0:0:0
     RDKit          3D

 75 79  0  0  1  0  0  0  0  0999 V2000
    3.2064   -2.5183   -2.3869 C   0  0  0  0  0  0  0  0  0  0  0  0
    3.5949   -2.0530   -0.9635 C   0  0  2  0  0  0  0  0  0  0  0  0
    5.0699   -1.6477   -0.8352 C   0  0  1  0  0  0  0  0  0  0  0  0
    5.4022   -0.6640   -1.7922 O   0  0  0  0  0  0  0  0  0  0  0  0
    5.3476   -1.0776    0.5644 C   0  0  0  0  0  0  0  0  0  0  0  0
    4.9625   -2.0781    1.6736 C   0  0  0  0  0  0  0  0  0  0  0  0
    3.4852   -2.5710    1.6002 C   0  0  1  0  0  0  0  0  0  0  0  0
    2.5596   -1.3607    1.9094 C   0  0  0  0  0  0  0  0  0  0  0  0
    3.1895   -3.0727    0.1494 C   0  0  2  0  0  0  0  0  0  0  0  0
    3.8082   -4.4618   -0.0913 C   0  0  0  0  0  0  0  0  0  0  0  0
    3.2581   -5.5093    0.8879 C   0  0  0  0  0  0  0  0  0  0  0  0
    3.5732   -5.1773    2.3647 C   0  0  2  0  0  0  0  0  0  0  0  0
    5.0948   -5.4126    2.6022 C   0  0  0  0  0  0  0  0  0  0  0  0
    2.8208   -6.1685    3.3388 C   0  0  2  0  0  0  0  0  0  0  0  0
    1.3738   -6.5892    2.9777 C   0  0  0  0  0  0  0  0  0  0  0  0
    0.7807   -7.5905    4.0012 C   0  0  0  0  0  0  0  0  0  0  0  0
    0.8516   -7.1106    5.4774 C   0  0  1  0  0  0  0  0  0  0  0  0
   -0.1074   -5.9126    5.6694 C   0  0  0  0  0  0  0  0  0  0  0  0
    0.3758   -8.2254    6.4469 C   0  0  0  0  0  0  0  0  0  0  0  0
    1.3686   -9.3748    6.6543 C   0  0  0  0  0  0  0  0  0  0  0  0
    2.7729   -8.8907    7.0737 C   0  0  0  0  0  0  0  0  0  0  0  0
    2.7480   -8.2580    8.4872 C   0  0  0  0  0  0  0  0  0  0  0  0
    3.7299  -10.0990    7.1206 C   0  0  0  0  0  0  0  0  0  0  0  0
    3.2648   -7.8829    6.0096 C   0  0  0  0  0  0  0  0  0  0  0  0
    2.3060   -6.6797    5.8217 C   0  0  1  0  0  0  0  0  0  0  0  0
    2.8217   -5.6818    4.7854 C   0  0  0  0  0  0  0  0  0  0  0  0
    3.1104   -4.4133    5.1196 C   0  0  0  0  0  0  0  0  0  0  0  0
    3.4400   -3.3138    4.1299 C   0  0  0  0  0  0  0  0  0  0  0  0
    3.1270   -3.7019    2.6587 C   0  0  1  0  0  0  0  0  0  0  0  0
    3.8536   -3.3131   -2.7576 H   0  0  0  0  0  0  0  0  0  0  0  0
    3.2722   -1.6890   -3.0917 H   0  0  0  0  0  0  0  0  0  0  0  0
    2.1749   -2.8741   -2.4201 H   0  0  0  0  0  0  0  0  0  0  0  0
    3.0231   -1.1389   -0.8172 H   0  0  0  0  0  0  0  0  0  0  0  0
    5.6998   -2.5178   -1.0206 H   0  0  0  0  0  0  0  0  0  0  0  0
    4.9877    0.1616   -1.5525 H   0  0  0  0  0  0  0  0  0  0  0  0
    6.4042   -0.8335    0.6529 H   0  0  0  0  0  0  0  0  0  0  0  0
    4.8127   -0.1387    0.7100 H   0  0  0  0  0  0  0  0  0  0  0  0
    5.6463   -2.9116    1.5736 H   0  0  0  0  0  0  0  0  0  0  0  0
    5.1751   -1.6308    2.6439 H   0  0  0  0  0  0  0  0  0  0  0  0
    1.5063   -1.6492    1.9016 H   0  0  0  0  0  0  0  0  0  0  0  0
    2.6530   -0.5474    1.1925 H   0  0  0  0  0  0  0  0  0  0  0  0
    2.7801   -0.9184    2.8798 H   0  0  0  0  0  0  0  0  0  0  0  0
    2.1122   -3.2046    0.0596 H   0  0  0  0  0  0  0  0  0  0  0  0
    3.5670   -4.7681   -1.0986 H   0  0  0  0  0  0  0  0  0  0  0  0
    4.8958   -4.4345   -0.0554 H   0  0  0  0  0  0  0  0  0  0  0  0
    2.1820   -5.5399    0.7247 H   0  0  0  0  0  0  0  0  0  0  0  0
    3.6385   -6.4983    0.6339 H   0  0  0  0  0  0  0  0  0  0  0  0
    5.4318   -5.0517    3.5734 H   0  0  0  0  0  0  0  0  0  0  0  0
    5.7347   -4.9621    1.8547 H   0  0  0  0  0  0  0  0  0  0  0  0
    5.3397   -6.4765    2.5689 H   0  0  0  0  0  0  0  0  0  0  0  0
    3.3863   -7.0986    3.3246 H   0  0  0  0  0  0  0  0  0  0  0  0
    0.7362   -5.7093    2.9050 H   0  0  0  0  0  0  0  0  0  0  0  0
    1.3514   -7.0820    2.0083 H   0  0  0  0  0  0  0  0  0  0  0  0
   -0.2528   -7.8178    3.7341 H   0  0  0  0  0  0  0  0  0  0  0  0
    1.3186   -8.5301    3.9002 H   0  0  0  0  0  0  0  0  0  0  0  0
   -0.0830   -5.5527    6.6978 H   0  0  0  0  0  0  0  0  0  0  0  0
   -1.1372   -6.1920    5.4440 H   0  0  0  0  0  0  0  0  0  0  0  0
    0.1518   -5.0659    5.0334 H   0  0  0  0  0  0  0  0  0  0  0  0
    0.1439   -7.7901    7.4168 H   0  0  0  0  0  0  0  0  0  0  0  0
   -0.5620   -8.6542    6.0865 H   0  0  0  0  0  0  0  0  0  0  0  0
    0.9691  -10.0670    7.3948 H   0  0  0  0  0  0  0  0  0  0  0  0
    1.4430   -9.9517    5.7329 H   0  0  0  0  0  0  0  0  0  0  0  0
    3.7300   -7.8620    8.7539 H   0  0  0  0  0  0  0  0  0  0  0  0
    2.4655   -8.9921    9.2484 H   0  0  0  0  0  0  0  0  0  0  0  0
    2.0383   -7.4340    8.5646 H   0  0  0  0  0  0  0  0  0  0  0  0
    4.7429   -9.7909    7.3925 H   0  0  0  0  0  0  0  0  0  0  0  0
    3.7821  -10.5992    6.1556 H   0  0  0  0  0  0  0  0  0  0  0  0
    3.4021  -10.8424    7.8503 H   0  0  0  0  0  0  0  0  0  0  0  0
    4.2666   -7.5337    6.2574 H   0  0  0  0  0  0  0  0  0  0  0  0
    3.3632   -8.4234    5.0708 H   0  0  0  0  0  0  0  0  0  0  0  0
    2.2831   -6.1419    6.7703 H   0  0  0  0  0  0  0  0  0  0  0  0
    3.0744   -4.1028    6.1548 H   0  0  0  0  0  0  0  0  0  0  0  0
    2.8327   -2.4583    4.4274 H   0  0  0  0  0  0  0  0  0  0  0  0
    4.4847   -3.0413    4.2730 H   0  0  0  0  0  0  0  0  0  0  0  0
    2.0387   -3.7583    2.6244 H   0  0  0  0  0  0  0  0  0  0  0  0
  1  2  1  0
  1 30  1  0
  1 31  1  0
  1 32  1  0
  2  9  1  0
  2  3  1  0
  2 33  1  1
  3  4  1  0
  3  5  1  0
  3 34  1  6
  4 35  1  0
  5  6  1  0
  5 36  1  0
  5 37  1  0
  6  7  1  0
  6 38  1  0
  6 39  1  0
  7 29  1  0
  7  8  1  1
  7  9  1  0
  8 40  1  0
  8 41  1  0
  8 42  1  0
  9 10  1  0
  9 43  1  1
 10 11  1  0
 10 44  1  0
 10 45  1  0
 11 12  1  0
 11 46  1  0
 11 47  1  0
 12 29  1  0
 12 13  1  6
 12 14  1  0
 13 48  1  0
 13 49  1  0
 13 50  1  0
 14 26  1  0
 14 15  1  0
 14 51  1  1
 15 16  1  0
 15 52  1  0
 15 53  1  0
 16 17  1  0
 16 54  1  0
 16 55  1  0
 17 25  1  0
 17 18  1  6
 17 19  1  0
 18 56  1  0
 18 57  1  0
 18 58  1  0
 19 20  1  0
 19 59  1  0
 19 60  1  0
 20 21  1  0
 20 61  1  0
 20 62  1  0
 21 22  1  0
 21 23  1  0
 21 24  1  0
 22 63  1  0
 22 64  1  0
 22 65  1  0
 23 66  1  0
 23 67  1  0
 23 68  1  0
 24 25  1  0
 24 69  1  0
 24 70  1  0
 25 26  1  0
 25 71  1  1
 26 27  2  0
 27 28  1  0
 27 72  1  0
 28 29  1  0
 28 73  1  0
 28 74  1  0
 29 75  1  1
M  END
>  <i_m_ct_stereo_status>  (1) 
1

>  <s_m_source_file>  (1) 
/var/tmp/pbs.5076255.sched01/tmpoa2zap1w/0_chicbso.sdf

>  <i_m_source_file_index>  (1) 
1

>  <i_lp_mmshare_version>  (1) 
48012

>  <i_f3d_flags>  (1) 
0

>  <s_epik_input>  (1) 
W0NIMl0xW0NIMl1bQ0BIXShbT0hdKVtDQEBIXShbQ0gzXSlbQ0BIXShbQ0BdMTJbQ0gzXSlbQ0gyXVtDSDJdW0NAXTMoW0NIM10pW0NASF00Qyg9W0NIXVtDSDJdW0NAQEhdMjMpW0NASF01W0NAQF0oW0NIM10pKFtDSDJdW0NIMl00KVtDSDJdW0NIMl1DKFtDSDNdKShbQ0gzXSlbQ0gyXTU=

>  <s_epik_cmdline>  (1) 
J2VwaWtfcHl0aG9uJywgJy1waHQnLCAnMi4wJywgJy1waCcsICc3LjAnLCAnLXRuJywgJzgnLCAnLW1hJywgJzIwMCcsICctaW1hZScsICc8aW5maWxlLm1hZT4nLCAnLW9tYWUnLCAnPG91dGZpbGUubWFlPic=

>  <r_lp_tautomer_probability>  (1) 
1

>  <r_epik_Ionization_Penalty>  (1) 
2.87404e-06

>  <r_epik_Ionization_Penalty_Charging>  (1) 
0

>  <r_epik_Ionization_Penalty_Neutral>  (1) 
2.87404e-06

>  <r_epik_State_Penalty>  (1) 
-0

>  <r_epik_Charging_Adjusted_Penalty>  (1) 
0

>  <i_epik_Tot_Q>  (1) 
0

>  <i_epik_Tot_abs_Q>  (1) 
0

>  <s_lp_Force_Field>  (1) 
OPLS3e

>  <r_lp_Energy>  (1) 
69.4585

>  <b_lp_Chiralities_Consistent>  (1) 
1

>  <s_lp_Variant>  (1) 
0:0-1

>  <s_i_glide_gridfile>  (1) 
pfpi4k_grid

>  <i_i_glide_lignum>  (1) 
1

>  <i_i_glide_rotatable_bonds>  (1) 
1

>  <r_i_docking_score>  (1) 
-2.86821

>  <r_i_glide_ligand_efficiency>  (1) 
-0.0989038

>  <r_i_glide_ligand_efficiency_sa>  (1) 
-0.303864

>  <r_i_glide_ligand_efficiency_ln>  (1) 
-0.656748

>  <r_i_glide_gscore>  (1) 
-2.86821

>  <r_i_glide_lipo>  (1) 
-0.157273

>  <r_i_glide_hbond>  (1) 
-0.248949

>  <r_i_glide_metal>  (1) 
-0

>  <r_i_glide_rewards>  (1) 
-0.690926

>  <r_i_glide_evdw>  (1) 
-24.2377

>  <r_i_glide_ecoul>  (1) 
-3.72785

>  <r_i_glide_erotb>  (1) 
0

>  <r_i_glide_esite>  (1) 
0

>  <r_i_glide_emodel>  (1) 
-32.8638

>  <r_i_glide_energy>  (1) 
-27.9656

>  <r_i_glide_einternal>  (1) 
0.111054

>  <r_i_glide_intrahb_reward>  (1) 
-0

>  <i_i_glide_confnum>  (1) 
2

>  <i_i_glide_posenum>  (1) 
36

>  <r_i_glide_eff_state_penalty>  (1) 
0

>  <ligand_id>  (1) 
0

>  <original_smiles>  (1) 
CC1C(O)CCC2(C)C1CCC1(C)C3CCC4(C)CCC(C)(C)CC4C3=CCC12

>  <smiles>  (1) 
[H]OC1([H])C([H])([H])C([H])([H])C2(C([H])([H])[H])C([H])(C([H])([H])C([H])([H])C3(C([H])([H])[H])C4([H])C(=C([H])C([H])([H])C32[H])C2([H])C([H])([H])C(C([H])([H])[H])(C([H])([H])[H])C([H])([H])C([H])([H])C2(C([H])([H])[H])C([H])([H])C4([H])[H])C1([H])C([H])([H])[H]

$$$$
0:0:1
     RDKit          3D

 75 79  0  0  1  0  0  0  0  0999 V2000
    3.7885   -2.8921   -2.4352 C   0  0  0  0  0  0  0  0  0  0  0  0
    3.8950   -2.5590   -0.9333 C   0  0  2  0  0  0  0  0  0  0  0  0
    5.2104   -1.8360   -0.5759 C   0  0  1  0  0  0  0  0  0  0  0  0
    5.3975   -0.6835   -1.3716 O   0  0  0  0  0  0  0  0  0  0  0  0
    5.2246   -1.4214    0.9037 C   0  0  0  0  0  0  0  0  0  0  0  0
    5.0093   -2.6328    1.8327 C   0  0  0  0  0  0  0  0  0  0  0  0
    3.7145   -3.4435    1.5231 C   0  0  1  0  0  0  0  0  0  0  0  0
    2.5066   -2.5308    1.8637 C   0  0  0  0  0  0  0  0  0  0  0  0
    3.6784   -3.7981   -0.0049 C   0  0  2  0  0  0  0  0  0  0  0  0
    4.6604   -4.9536   -0.3196 C   0  0  0  0  0  0  0  0  0  0  0  0
    4.2972   -6.2208    0.4644 C   0  0  0  0  0  0  0  0  0  0  0  0
    4.3820   -6.0344    1.9940 C   0  0  2  0  0  0  0  0  0  0  0  0
    5.8846   -5.9371    2.3890 C   0  0  0  0  0  0  0  0  0  0  0  0
    3.8145   -7.3057    2.7425 C   0  0  2  0  0  0  0  0  0  0  0  0
    2.5583   -8.0016    2.1590 C   0  0  0  0  0  0  0  0  0  0  0  0
    2.1424   -9.2463    2.9755 C   0  0  0  0  0  0  0  0  0  0  0  0
    1.9531   -8.9744    4.4944 C   0  0  1  0  0  0  0  0  0  0  0  0
    0.7094   -8.0808    4.7037 C   0  0  0  0  0  0  0  0  0  0  0  0
    1.6901  -10.2950    5.2598 C   0  0  0  0  0  0  0  0  0  0  0  0
    2.9363  -11.1811    5.4259 C   0  0  0  0  0  0  0  0  0  0  0  0
    4.1160  -10.4515    6.0970 C   0  0  0  0  0  0  0  0  0  0  0  0
    3.7964  -10.0593    7.5599 C   0  0  0  0  0  0  0  0  0  0  0  0
    5.3281  -11.4003    6.1278 C   0  0  0  0  0  0  0  0  0  0  0  0
    4.4327   -9.2140    5.2297 C   0  0  0  0  0  0  0  0  0  0  0  0
    3.2185   -8.2629    5.0664 C   0  0  1  0  0  0  0  0  0  0  0  0
    3.5539   -7.0386    4.2254 C   0  0  0  0  0  0  0  0  0  0  0  0
    3.4855   -5.7961    4.7342 C   0  0  0  0  0  0  0  0  0  0  0  0
    3.6212   -4.5247    3.9269 C   0  0  0  0  0  0  0  0  0  0  0  0
    3.5539   -4.7638    2.3953 C   0  0  1  0  0  0  0  0  0  0  0  0
    4.6532   -3.4496   -2.7958 H   0  0  0  0  0  0  0  0  0  0  0  0
    3.7173   -1.9797   -3.0281 H   0  0  0  0  0  0  0  0  0  0  0  0
    2.8913   -3.4765   -2.6428 H   0  0  0  0  0  0  0  0  0  0  0  0
    3.0740   -1.8616   -0.7660 H   0  0  0  0  0  0  0  0  0  0  0  0
    6.0509   -2.4992   -0.7794 H   0  0  0  0  0  0  0  0  0  0  0  0
    4.7585   -0.0344   -1.1157 H   0  0  0  0  0  0  0  0  0  0  0  0
    6.1771   -0.9502    1.1436 H   0  0  0  0  0  0  0  0  0  0  0  0
    4.4629   -0.6649    1.0917 H   0  0  0  0  0  0  0  0  0  0  0  0
    5.8892   -3.2562    1.7297 H   0  0  0  0  0  0  0  0  0  0  0  0
    5.0073   -2.2874    2.8669 H   0  0  0  0  0  0  0  0  0  0  0  0
    1.5710   -3.0614    1.7171 H   0  0  0  0  0  0  0  0  0  0  0  0
    2.4503   -1.6295    1.2562 H   0  0  0  0  0  0  0  0  0  0  0  0
    2.5304   -2.1909    2.8979 H   0  0  0  0  0  0  0  0  0  0  0  0
    2.6823   -4.1737   -0.2374 H   0  0  0  0  0  0  0  0  0  0  0  0
    4.6239   -5.2026   -1.3772 H   0  0  0  0  0  0  0  0  0  0  0  0
    5.6904   -4.6645   -0.1401 H   0  0  0  0  0  0  0  0  0  0  0  0
    3.2822   -6.4743    0.1693 H   0  0  0  0  0  0  0  0  0  0  0  0
    4.9326   -7.0476    0.1500 H   0  0  0  0  0  0  0  0  0  0  0  0
    6.0281   -5.6491    3.4289 H   0  0  0  0  0  0  0  0  0  0  0  0
    6.4557   -5.2446    1.7820 H   0  0  0  0  0  0  0  0  0  0  0  0
    6.3876   -6.8963    2.2603 H   0  0  0  0  0  0  0  0  0  0  0  0
    4.5942   -8.0631    2.6927 H   0  0  0  0  0  0  0  0  0  0  0  0
    1.7290   -7.2991    2.1032 H   0  0  0  0  0  0  0  0  0  0  0  0
    2.7527   -8.3459    1.1450 H   0  0  0  0  0  0  0  0  0  0  0  0
    1.2265   -9.6680    2.5565 H   0  0  0  0  0  0  0  0  0  0  0  0
    2.9037  -10.0109    2.8326 H   0  0  0  0  0  0  0  0  0  0  0  0
    0.5501   -7.8799    5.7631 H   0  0  0  0  0  0  0  0  0  0  0  0
   -0.1922   -8.5658    4.3243 H   0  0  0  0  0  0  0  0  0  0  0  0
    0.8047   -7.1164    4.2057 H   0  0  0  0  0  0  0  0  0  0  0  0
    1.2750  -10.0771    6.2429 H   0  0  0  0  0  0  0  0  0  0  0  0
    0.9122  -10.8711    4.7556 H   0  0  0  0  0  0  0  0  0  0  0  0
    2.6782  -12.0540    6.0224 H   0  0  0  0  0  0  0  0  0  0  0  0
    3.2307  -11.5789    4.4550 H   0  0  0  0  0  0  0  0  0  0  0  0
    4.6184   -9.4903    7.9978 H   0  0  0  0  0  0  0  0  0  0  0  0
    3.6322  -10.9458    8.1816 H   0  0  0  0  0  0  0  0  0  0  0  0
    2.8963   -9.4494    7.6432 H   0  0  0  0  0  0  0  0  0  0  0  0
    6.1982  -10.9066    6.5650 H   0  0  0  0  0  0  0  0  0  0  0  0
    5.5964  -11.7361    5.1270 H   0  0  0  0  0  0  0  0  0  0  0  0
    5.1161  -12.2897    6.7276 H   0  0  0  0  0  0  0  0  0  0  0  0
    5.2841   -8.6732    5.6466 H   0  0  0  0  0  0  0  0  0  0  0  0
    4.7500   -9.5756    4.2539 H   0  0  0  0  0  0  0  0  0  0  0  0
    2.9668   -7.8888    6.0608 H   0  0  0  0  0  0  0  0  0  0  0  0
    3.2772   -5.6569    5.7840 H   0  0  0  0  0  0  0  0  0  0  0  0
    2.7933   -3.8900    4.2420 H   0  0  0  0  0  0  0  0  0  0  0  0
    4.5509   -4.0401    4.2275 H   0  0  0  0  0  0  0  0  0  0  0  0
    2.5223   -5.0730    2.2165 H   0  0  0  0  0  0  0  0  0  0  0  0
  1  2  1  0
  1 30  1  0
  1 31  1  0
  1 32  1  0
  2  9  1  0
  2  3  1  0
  2 33  1  1
  3  4  1  0
  3  5  1  0
  3 34  1  1
  4 35  1  0
  5  6  1  0
  5 36  1  0
  5 37  1  0
  6  7  1  0
  6 38  1  0
  6 39  1  0
  7 29  1  0
  7  8  1  6
  7  9  1  0
  8 40  1  0
  8 41  1  0
  8 42  1  0
  9 10  1  0
  9 43  1  6
 10 11  1  0
 10 44  1  0
 10 45  1  0
 11 12  1  0
 11 46  1  0
 11 47  1  0
 12 29  1  0
 12 13  1  6
 12 14  1  0
 13 48  1  0
 13 49  1  0
 13 50  1  0
 14 26  1  0
 14 15  1  0
 14 51  1  1
 15 16  1  0
 15 52  1  0
 15 53  1  0
 16 17  1  0
 16 54  1  0
 16 55  1  0
 17 25  1  0
 17 18  1  6
 17 19  1  0
 18 56  1  0
 18 57  1  0
 18 58  1  0
 19 20  1  0
 19 59  1  0
 19 60  1  0
 20 21  1  0
 20 61  1  0
 20 62  1  0
 21 22  1  0
 21 23  1  0
 21 24  1  0
 22 63  1  0
 22 64  1  0
 22 65  1  0
 23 66  1  0
 23 67  1  0
 23 68  1  0
 24 25  1  0
 24 69  1  0
 24 70  1  0
 25 26  1  0
 25 71  1  1
 26 27  2  0
 27 28  1  0
 27 72  1  0
 28 29  1  0
 28 73  1  0
 28 74  1  0
 29 75  1  1
M  END
>  <i_m_ct_stereo_status>  (2) 
1

>  <s_m_source_file>  (2) 
/var/tmp/pbs.5076255.sched01/tmpoa2zap1w/0_chicbso.sdf

>  <i_m_source_file_index>  (2) 
1

>  <i_lp_mmshare_version>  (2) 
48012

>  <i_f3d_flags>  (2) 
0

>  <s_epik_input>  (2) 
W0NIMl0xW0NIMl1bQ0BIXShbT0hdKVtDQEBIXShbQ0gzXSlbQ0BIXShbQ0BdMTJbQ0gzXSlbQ0gyXVtDSDJdW0NAXTMoW0NIM10pW0NASF00Qyg9W0NIXVtDSDJdW0NAQEhdMjMpW0NASF01W0NAQF0oW0NIM10pKFtDSDJdW0NIMl00KVtDSDJdW0NIMl1DKFtDSDNdKShbQ0gzXSlbQ0gyXTU=

>  <s_epik_cmdline>  (2) 
J2VwaWtfcHl0aG9uJywgJy1waHQnLCAnMi4wJywgJy1waCcsICc3LjAnLCAnLXRuJywgJzgnLCAnLW1hJywgJzIwMCcsICctaW1hZScsICc8aW5maWxlLm1hZT4nLCAnLW9tYWUnLCAnPG91dGZpbGUubWFlPic=

>  <r_lp_tautomer_probability>  (2) 
1

>  <r_epik_Ionization_Penalty>  (2) 
2.87404e-06

>  <r_epik_Ionization_Penalty_Charging>  (2) 
0

>  <r_epik_Ionization_Penalty_Neutral>  (2) 
2.87404e-06

>  <r_epik_State_Penalty>  (2) 
-0

>  <r_epik_Charging_Adjusted_Penalty>  (2) 
0

>  <i_epik_Tot_Q>  (2) 
0

>  <i_epik_Tot_abs_Q>  (2) 
0

>  <s_lp_Force_Field>  (2) 
OPLS3e

>  <r_lp_Energy>  (2) 
69.4585

>  <b_lp_Chiralities_Consistent>  (2) 
1

>  <s_lp_Variant>  (2) 
0:0-1

>  <s_i_glide_gridfile>  (2) 
pfpi4k_grid

>  <i_i_glide_lignum>  (2) 
1

>  <i_i_glide_rotatable_bonds>  (2) 
1

>  <r_i_docking_score>  (2) 
-2.71207

>  <r_i_glide_ligand_efficiency>  (2) 
-0.0935198

>  <r_i_glide_ligand_efficiency_sa>  (2) 
-0.287322

>  <r_i_glide_ligand_efficiency_ln>  (2) 
-0.620996

>  <r_i_glide_gscore>  (2) 
-2.71207

>  <r_i_glide_lipo>  (2) 
-0.309764

>  <r_i_glide_hbond>  (2) 
-0.0651229

>  <r_i_glide_metal>  (2) 
-0

>  <r_i_glide_rewards>  (2) 
-0.690926

>  <r_i_glide_evdw>  (2) 
-23.9447

>  <r_i_glide_ecoul>  (2) 
-2.99352

>  <r_i_glide_erotb>  (2) 
0

>  <r_i_glide_esite>  (2) 
0

>  <r_i_glide_emodel>  (2) 
-31.5958

>  <r_i_glide_energy>  (2) 
-26.9382

>  <r_i_glide_einternal>  (2) 
0.0992114

>  <r_i_glide_intrahb_reward>  (2) 
-0

>  <i_i_glide_confnum>  (2) 
2

>  <i_i_glide_posenum>  (2) 
24

>  <r_i_glide_eff_state_penalty>  (2) 
0

>  <ligand_id>  (2) 
0

>  <original_smiles>  (2) 
CC1C(O)CCC2(C)C1CCC1(C)C3CCC4(C)CCC(C)(C)CC4C3=CCC12

>  <smiles>  (2) 
[H]OC1([H])C([H])([H])C([H])([H])C2(C([H])([H])[H])C([H])(C([H])([H])C([H])([H])C3(C([H])([H])[H])C4([H])C(=C([H])C([H])([H])C32[H])C2([H])C([H])([H])C(C([H])([H])[H])(C([H])([H])[H])C([H])([H])C([H])([H])C2(C([H])([H])[H])C([H])([H])C4([H])[H])C1([H])C([H])([H])[H]

$$$$
0:0:2
     RDKit          3D

 75 79  0  0  1  0  0  0  0  0999 V2000
    2.1559    0.8849    1.6986 C   0  0  0  0  0  0  0  0  0  0  0  0
    2.0997    0.2269    3.0898 C   0  0  2  0  0  0  0  0  0  0  0  0
    3.2838    0.6312    3.9919 C   0  0  1  0  0  0  0  0  0  0  0  0
    3.3740    2.0373    4.0947 O   0  0  0  0  0  0  0  0  0  0  0  0
    3.1160    0.0555    5.4045 C   0  0  0  0  0  0  0  0  0  0  0  0
    2.9573   -1.4762    5.3765 C   0  0  0  0  0  0  0  0  0  0  0  0
    1.7968   -1.9795    4.4602 C   0  0  1  0  0  0  0  0  0  0  0  0
    0.4543   -1.5187    5.0933 C   0  0  0  0  0  0  0  0  0  0  0  0
    1.9404   -1.3264    3.0384 C   0  0  2  0  0  0  0  0  0  0  0  0
    3.0638   -2.0031    2.2184 C   0  0  0  0  0  0  0  0  0  0  0  0
    2.7972   -3.5003    2.0405 C   0  0  0  0  0  0  0  0  0  0  0  0
    2.7300   -4.2857    3.3718 C   0  0  2  0  0  0  0  0  0  0  0  0
    4.1707   -4.3863    3.9543 C   0  0  0  0  0  0  0  0  0  0  0  0
    2.2602   -5.7751    3.1249 C   0  0  2  0  0  0  0  0  0  0  0  0
    1.1500   -6.0252    2.0763 C   0  0  0  0  0  0  0  0  0  0  0  0
    0.8080   -7.5229    1.9067 C   0  0  0  0  0  0  0  0  0  0  0  0
    0.4522   -8.2412    3.2380 C   0  0  1  0  0  0  0  0  0  0  0  0
   -0.9012   -7.7078    3.7651 C   0  0  0  0  0  0  0  0  0  0  0  0
    0.2693   -9.7660    3.0193 C   0  0  0  0  0  0  0  0  0  0  0  0
    1.5769  -10.5428    2.8174 C   0  0  0  0  0  0  0  0  0  0  0  0
    2.6226  -10.3004    3.9176 C   0  0  0  0  0  0  0  0  0  0  0  0
    2.1457  -10.8878    5.2604 C   0  0  0  0  0  0  0  0  0  0  0  0
    3.9326  -11.0166    3.5287 C   0  0  0  0  0  0  0  0  0  0  0  0
    2.8675   -8.7801    4.0087 C   0  0  0  0  0  0  0  0  0  0  0  0
    1.5726   -7.9772    4.2909 C   0  0  1  0  0  0  0  0  0  0  0  0
    1.8387   -6.4815    4.4140 C   0  0  0  0  0  0  0  0  0  0  0  0
    1.5774   -5.8104    5.5491 C   0  0  0  0  0  0  0  0  0  0  0  0
    1.6316   -4.3058    5.6979 C   0  0  0  0  0  0  0  0  0  0  0  0
    1.7234   -3.5614    4.3374 C   0  0  1  0  0  0  0  0  0  0  0  0
    3.1068    0.7035    1.1991 H   0  0  0  0  0  0  0  0  0  0  0  0
    2.0253    1.9654    1.7712 H   0  0  0  0  0  0  0  0  0  0  0  0
    1.3543    0.5183    1.0564 H   0  0  0  0  0  0  0  0  0  0  0  0
    1.1990    0.6441    3.5372 H   0  0  0  0  0  0  0  0  0  0  0  0
    4.2205    0.2761    3.5614 H   0  0  0  0  0  0  0  0  0  0  0  0
    3.6927    2.3776    3.2695 H   0  0  0  0  0  0  0  0  0  0  0  0
    3.9839    0.3194    6.0092 H   0  0  0  0  0  0  0  0  0  0  0  0
    2.2610    0.5186    5.8966 H   0  0  0  0  0  0  0  0  0  0  0  0
    3.9102   -1.8717    5.0454 H   0  0  0  0  0  0  0  0  0  0  0  0
    2.8284   -1.8329    6.3982 H   0  0  0  0  0  0  0  0  0  0  0  0
   -0.4000   -1.8686    4.5150 H   0  0  0  0  0  0  0  0  0  0  0  0
    0.3609   -0.4378    5.1667 H   0  0  0  0  0  0  0  0  0  0  0  0
    0.3418   -1.8854    6.1122 H   0  0  0  0  0  0  0  0  0  0  0  0
    1.0114   -1.5184    2.4981 H   0  0  0  0  0  0  0  0  0  0  0  0
    3.1144   -1.5637    1.2245 H   0  0  0  0  0  0  0  0  0  0  0  0
    4.0407   -1.8317    2.6658 H   0  0  0  0  0  0  0  0  0  0  0  0
    1.8476   -3.5675    1.5151 H   0  0  0  0  0  0  0  0  0  0  0  0
    3.5523   -3.9365    1.3861 H   0  0  0  0  0  0  0  0  0  0  0  0
    4.1857   -4.7916    4.9645 H   0  0  0  0  0  0  0  0  0  0  0  0
    4.7079   -3.4454    3.9739 H   0  0  0  0  0  0  0  0  0  0  0  0
    4.7915   -5.0460    3.3488 H   0  0  0  0  0  0  0  0  0  0  0  0
    3.1261   -6.3116    2.7393 H   0  0  0  0  0  0  0  0  0  0  0  0
    0.2578   -5.4715    2.3588 H   0  0  0  0  0  0  0  0  0  0  0  0
    1.4644   -5.6594    1.0991 H   0  0  0  0  0  0  0  0  0  0  0  0
   -0.0122   -7.6347    1.1964 H   0  0  0  0  0  0  0  0  0  0  0  0
    1.6614   -8.0145    1.4408 H   0  0  0  0  0  0  0  0  0  0  0  0
   -1.1787   -8.2066    4.6942 H   0  0  0  0  0  0  0  0  0  0  0  0
   -1.7031   -7.8888    3.0494 H   0  0  0  0  0  0  0  0  0  0  0  0
   -0.8763   -6.6395    3.9754 H   0  0  0  0  0  0  0  0  0  0  0  0
   -0.2547  -10.2008    3.8675 H   0  0  0  0  0  0  0  0  0  0  0  0
   -0.3809   -9.9426    2.1626 H   0  0  0  0  0  0  0  0  0  0  0  0
    1.3524  -11.6085    2.7471 H   0  0  0  0  0  0  0  0  0  0  0  0
    2.0009  -10.2594    1.8532 H   0  0  0  0  0  0  0  0  0  0  0  0
    2.8519  -10.6739    6.0636 H   0  0  0  0  0  0  0  0  0  0  0  0
    2.0375  -11.9759    5.1978 H   0  0  0  0  0  0  0  0  0  0  0  0
    1.1733  -10.5006    5.5680 H   0  0  0  0  0  0  0  0  0  0  0  0
    4.7055  -10.8592    4.2855 H   0  0  0  0  0  0  0  0  0  0  0  0
    4.3220  -10.6600    2.5735 H   0  0  0  0  0  0  0  0  0  0  0  0
    3.7846  -12.0969    3.4331 H   0  0  0  0  0  0  0  0  0  0  0  0
    3.6123   -8.5710    4.7778 H   0  0  0  0  0  0  0  0  0  0  0  0
    3.3103   -8.4588    3.0670 H   0  0  0  0  0  0  0  0  0  0  0  0
    1.1973   -8.3048    5.2614 H   0  0  0  0  0  0  0  0  0  0  0  0
    1.2637   -6.3551    6.4284 H   0  0  0  0  0  0  0  0  0  0  0  0
    0.7132   -4.0283    6.2133 H   0  0  0  0  0  0  0  0  0  0  0  0
    2.4669   -4.0662    6.3570 H   0  0  0  0  0  0  0  0  0  0  0  0
    0.7551   -3.7366    3.8634 H   0  0  0  0  0  0  0  0  0  0  0  0
  1  2  1  0
  1 30  1  0
  1 31  1  0
  1 32  1  0
  2  9  1  0
  2  3  1  0
  2 33  1  1
  3  4  1  0
  3  5  1  0
  3 34  1  6
  4 35  1  0
  5  6  1  0
  5 36  1  0
  5 37  1  0
  6  7  1  0
  6 38  1  0
  6 39  1  0
  7 29  1  0
  7  8  1  1
  7  9  1  0
  8 40  1  0
  8 41  1  0
  8 42  1  0
  9 10  1  0
  9 43  1  6
 10 11  1  0
 10 44  1  0
 10 45  1  0
 11 12  1  0
 11 46  1  0
 11 47  1  0
 12 29  1  0
 12 13  1  1
 12 14  1  0
 13 48  1  0
 13 49  1  0
 13 50  1  0
 14 26  1  0
 14 15  1  0
 14 51  1  6
 15 16  1  0
 15 52  1  0
 15 53  1  0
 16 17  1  0
 16 54  1  0
 16 55  1  0
 17 25  1  0
 17 18  1  1
 17 19  1  0
 18 56  1  0
 18 57  1  0
 18 58  1  0
 19 20  1  0
 19 59  1  0
 19 60  1  0
 20 21  1  0
 20 61  1  0
 20 62  1  0
 21 22  1  0
 21 23  1  0
 21 24  1  0
 22 63  1  0
 22 64  1  0
 22 65  1  0
 23 66  1  0
 23 67  1  0
 23 68  1  0
 24 25  1  0
 24 69  1  0
 24 70  1  0
 25 26  1  0
 25 71  1  1
 26 27  2  0
 27 28  1  0
 27 72  1  0
 28 29  1  0
 28 73  1  0
 28 74  1  0
 29 75  1  6
M  END
>  <i_m_ct_stereo_status>  (3) 
1

>  <s_m_source_file>  (3) 
/var/tmp/pbs.5076255.sched01/tmpoa2zap1w/0_chicbso.sdf

>  <i_m_source_file_index>  (3) 
1

>  <i_lp_mmshare_version>  (3) 
48012

>  <i_f3d_flags>  (3) 
0

>  <s_epik_input>  (3) 
W0NIMl0xW0NIMl1bQ0BIXShbT0hdKVtDQEBIXShbQ0gzXSlbQ0BIXShbQ0BdMTJbQ0gzXSlbQ0gyXVtDSDJdW0NAXTMoW0NIM10pW0NASF00Qyg9W0NIXVtDSDJdW0NAQEhdMjMpW0NASF01W0NAQF0oW0NIM10pKFtDSDJdW0NIMl00KVtDSDJdW0NIMl1DKFtDSDNdKShbQ0gzXSlbQ0gyXTU=

>  <s_epik_cmdline>  (3) 
J2VwaWtfcHl0aG9uJywgJy1waHQnLCAnMi4wJywgJy1waCcsICc3LjAnLCAnLXRuJywgJzgnLCAnLW1hJywgJzIwMCcsICctaW1hZScsICc8aW5maWxlLm1hZT4nLCAnLW9tYWUnLCAnPG91dGZpbGUubWFlPic=

>  <r_lp_tautomer_probability>  (3) 
1

>  <r_epik_Ionization_Penalty>  (3) 
2.87404e-06

>  <r_epik_Ionization_Penalty_Charging>  (3) 
0

>  <r_epik_Ionization_Penalty_Neutral>  (3) 
2.87404e-06

>  <r_epik_State_Penalty>  (3) 
-0

>  <r_epik_Charging_Adjusted_Penalty>  (3) 
0

>  <i_epik_Tot_Q>  (3) 
0

>  <i_epik_Tot_abs_Q>  (3) 
0

>  <s_lp_Force_Field>  (3) 
OPLS3e

>  <r_lp_Energy>  (3) 
69.4585

>  <b_lp_Chiralities_Consistent>  (3) 
1

>  <s_lp_Variant>  (3) 
0:0-1

>  <s_i_glide_gridfile>  (3) 
pfpi4k_grid

>  <i_i_glide_lignum>  (3) 
1

>  <i_i_glide_rotatable_bonds>  (3) 
1

>  <r_i_docking_score>  (3) 
-2.7106

>  <r_i_glide_ligand_efficiency>  (3) 
-0.0934691

>  <r_i_glide_ligand_efficiency_sa>  (3) 
-0.287167

>  <r_i_glide_ligand_efficiency_ln>  (3) 
-0.620659

>  <r_i_glide_gscore>  (3) 
-2.7106

>  <r_i_glide_lipo>  (3) 
-0.128794

>  <r_i_glide_hbond>  (3) 
-0.183881

>  <r_i_glide_metal>  (3) 
-0

>  <r_i_glide_rewards>  (3) 
-0.690926

>  <r_i_glide_evdw>  (3) 
-27.0725

>  <r_i_glide_ecoul>  (3) 
-2.35584

>  <r_i_glide_erotb>  (3) 
0

>  <r_i_glide_esite>  (3) 
0

>  <r_i_glide_emodel>  (3) 
-33.9062

>  <r_i_glide_energy>  (3) 
-29.4284

>  <r_i_glide_einternal>  (3) 
0.395292

>  <r_i_glide_intrahb_reward>  (3) 
-0

>  <i_i_glide_confnum>  (3) 
1

>  <i_i_glide_posenum>  (3) 
14

>  <r_i_glide_eff_state_penalty>  (3) 
0

>  <ligand_id>  (3) 
0

>  <original_smiles>  (3) 
CC1C(O)CCC2(C)C1CCC1(C)C3CCC4(C)CCC(C)(C)CC4C3=CCC12

>  <smiles>  (3) 
[H]OC1([H])C([H])([H])C([H])([H])C2(C([H])([H])[H])C([H])(C([H])([H])C([H])([H])C3(C([H])([H])[H])C4([H])C(=C([H])C([H])([H])C32[H])C2([H])C([H])([H])C(C([H])([H])[H])(C([H])([H])[H])C([H])([H])C([H])([H])C2(C([H])([H])[H])C([H])([H])C4([H])[H])C1([H])C([H])([H])[H]

$$$$
1:0:0
     RDKit          3D

 71 74  0  0  1  0  0  0  0  0999 V2000
    6.7363  -11.0495    1.2933 C   0  0  0  0  0  0  0  0  0  0  0  0
    6.7836  -10.2986    2.4061 C   0  0  0  0  0  0  0  0  0  0  0  0
    5.8600   -9.1401    2.8104 C   0  0  1  0  0  0  0  0  0  0  0  0
    6.8247   -8.0258    3.2969 C   0  0  0  0  0  0  0  0  0  0  0  0
    5.1046   -8.5789    1.5456 C   0  0  0  0  0  0  0  0  0  0  0  0
    4.1305   -7.3941    1.7496 C   0  0  1  0  0  0  0  0  0  0  0  0
    4.2332   -6.5356    0.6057 O   0  0  0  0  0  0  0  0  0  0  0  0
    5.1131   -5.5148    0.5627 C   0  0  0  0  0  0  0  0  0  0  0  0
    6.0266   -5.3142    1.3655 O   0  0  0  0  0  0  0  0  0  0  0  0
    4.8818   -4.5766   -0.6172 C   0  0  0  0  0  0  0  0  0  0  0  0
    3.3362   -3.6450   -0.4147 S   0  0  0  0  0  0  0  0  0  0  0  0
    3.6406   -2.4270   -1.6420 C   0  0  0  0  0  0  0  0  0  0  0  0
    4.4396   -1.3838   -1.4184 N   0  0  0  0  0  0  0  0  0  0  0  0
    4.3739   -0.6524   -2.6413 C   0  0  0  0  0  0  0  0  0  0  0  0
    3.5847   -1.3238   -3.5257 C   0  0  0  0  0  0  0  0  0  0  0  0
    3.1161   -2.4609   -2.8612 N   0  0  0  0  0  0  0  0  0  0  0  0
    2.2364   -3.4469   -3.4436 C   0  0  0  0  0  0  0  0  0  0  0  0
    2.5823   -7.6475    1.8961 C   0  0  2  0  0  0  0  0  0  0  0  0
    2.0243   -6.3399    2.4457 C   0  0  0  0  0  0  0  0  0  0  0  0
    1.4025   -5.5567    1.7267 O   0  0  0  0  0  0  0  0  0  0  0  0
    2.2748   -6.0452    3.9153 C   0  0  0  0  0  0  0  0  0  0  0  0
    1.8816   -7.2564    4.7763 C   0  0  0  0  0  0  0  0  0  0  0  0
    2.4464   -8.6490    4.3019 C   0  0  1  0  0  0  0  0  0  0  0  0
    1.5729   -9.7219    4.9861 C   0  0  0  0  0  0  0  0  0  0  0  0
    0.2383   -9.7382    4.2195 C   0  0  0  0  0  0  0  0  0  0  0  0
    0.4959   -9.0969    2.8406 C   0  0  1  0  0  0  0  0  0  0  0  0
   -0.5349   -7.9913    2.4997 C   0  0  0  0  0  0  0  0  0  0  0  0
    2.0692   -8.8491    2.7832 C   0  0  1  0  0  0  0  0  0  0  0  0
    2.4782  -10.2015    2.1308 C   0  0  0  0  0  0  0  0  0  0  0  0
    3.9754   -8.6971    4.7460 C   0  0  1  0  0  0  0  0  0  0  0  0
    4.1181   -8.8884    6.2810 C   0  0  0  0  0  0  0  0  0  0  0  0
    5.0262   -9.6394    4.0600 C   0  0  1  0  0  0  0  0  0  0  0  0
    4.6140  -10.9922    4.0461 O   0  0  0  0  0  0  0  0  0  0  0  0
    5.9994  -10.9176    0.5157 H   0  0  0  0  0  0  0  0  0  0  0  0
    7.4542  -11.8441    1.1619 H   0  0  0  0  0  0  0  0  0  0  0  0
    7.5676  -10.5268    3.1158 H   0  0  0  0  0  0  0  0  0  0  0  0
    6.3059   -7.1417    3.6648 H   0  0  0  0  0  0  0  0  0  0  0  0
    7.4932   -7.6957    2.5004 H   0  0  0  0  0  0  0  0  0  0  0  0
    7.4648   -8.3691    4.1120 H   0  0  0  0  0  0  0  0  0  0  0  0
    5.9077   -8.2170    0.9051 H   0  0  0  0  0  0  0  0  0  0  0  0
    4.6565   -9.3168    0.8895 H   0  0  0  0  0  0  0  0  0  0  0  0
    4.4783   -6.8314    2.6107 H   0  0  0  0  0  0  0  0  0  0  0  0
    5.7227   -3.8915   -0.7014 H   0  0  0  0  0  0  0  0  0  0  0  0
    4.8320   -5.1544   -1.5424 H   0  0  0  0  0  0  0  0  0  0  0  0
    4.8992    0.2752   -2.7239 H   0  0  0  0  0  0  0  0  0  0  0  0
    3.2974   -1.0848   -4.5410 H   0  0  0  0  0  0  0  0  0  0  0  0
    1.6081   -2.9824   -4.2059 H   0  0  0  0  0  0  0  0  0  0  0  0
    1.5850   -3.8550   -2.6723 H   0  0  0  0  0  0  0  0  0  0  0  0
    2.8177   -4.2406   -3.9043 H   0  0  0  0  0  0  0  0  0  0  0  0
    2.1747   -7.7929    0.9010 H   0  0  0  0  0  0  0  0  0  0  0  0
    3.3224   -5.7869    4.0621 H   0  0  0  0  0  0  0  0  0  0  0  0
    1.7025   -5.1682    4.2120 H   0  0  0  0  0  0  0  0  0  0  0  0
    2.1745   -7.0296    5.7978 H   0  0  0  0  0  0  0  0  0  0  0  0
    0.8000   -7.2743    4.8518 H   0  0  0  0  0  0  0  0  0  0  0  0
    2.0384  -10.7040    4.9227 H   0  0  0  0  0  0  0  0  0  0  0  0
    1.4028   -9.5233    6.0441 H   0  0  0  0  0  0  0  0  0  0  0  0
   -0.1183  -10.7634    4.1100 H   0  0  0  0  0  0  0  0  0  0  0  0
   -0.5319   -9.2011    4.7729 H   0  0  0  0  0  0  0  0  0  0  0  0
    0.2125   -9.8528    2.1059 H   0  0  0  0  0  0  0  0  0  0  0  0
   -0.5269   -7.1459    3.1831 H   0  0  0  0  0  0  0  0  0  0  0  0
   -1.5457   -8.4005    2.5350 H   0  0  0  0  0  0  0  0  0  0  0  0
   -0.3871   -7.6203    1.4849 H   0  0  0  0  0  0  0  0  0  0  0  0
    2.0256  -11.0641    2.6231 H   0  0  0  0  0  0  0  0  0  0  0  0
    3.5216  -10.4370    2.0751 H   0  0  0  0  0  0  0  0  0  0  0  0
    2.1511  -10.2159    1.0905 H   0  0  0  0  0  0  0  0  0  0  0  0
    4.3608   -7.6954    4.5848 H   0  0  0  0  0  0  0  0  0  0  0  0
    3.8706   -9.9087    6.5818 H   0  0  0  0  0  0  0  0  0  0  0  0
    3.4930   -8.2210    6.8692 H   0  0  0  0  0  0  0  0  0  0  0  0
    5.1406   -8.6959    6.6087 H   0  0  0  0  0  0  0  0  0  0  0  0
    5.8150   -9.7390    4.8036 H   0  0  0  0  0  0  0  0  0  0  0  0
    3.9568  -11.1074    3.3854 H   0  0  0  0  0  0  0  0  0  0  0  0
  1  2  2  0
  1 34  1  0
  1 35  1  0
  2  3  1  0
  2 36  1  0
  3 32  1  0
  3  4  1  1
  3  5  1  0
  4 37  1  0
  4 38  1  0
  4 39  1  0
  5  6  1  0
  5 40  1  0
  5 41  1  0
  6  7  1  0
  6 18  1  0
  6 42  1  1
  7  8  1  0
  8  9  2  0
  8 10  1  0
 10 11  1  0
 10 43  1  0
 10 44  1  0
 11 12  1  0
 12 16  1  0
 12 13  2  0
 13 14  1  0
 14 15  2  0
 14 45  1  0
 15 16  1  0
 15 46  1  0
 16 17  1  0
 17 47  1  0
 17 48  1  0
 17 49  1  0
 18 28  1  0
 18 19  1  0
 18 50  1  6
 19 20  2  0
 19 21  1  0
 21 22  1  0
 21 51  1  0
 21 52  1  0
 23 22  1  1
 22 53  1  0
 22 54  1  0
 23 28  1  0
 23 24  1  0
 23 30  1  0
 24 25  1  0
 24 55  1  0
 24 56  1  0
 25 26  1  0
 25 57  1  0
 25 58  1  0
 26 27  1  0
 26 28  1  0
 26 59  1  6
 27 60  1  0
 27 61  1  0
 27 62  1  0
 28 29  1  6
 29 63  1  0
 29 64  1  0
 29 65  1  0
 30 31  1  0
 30 32  1  0
 30 66  1  1
 31 67  1  0
 31 68  1  0
 31 69  1  0
 32 33  1  0
 32 70  1  1
 33 71  1  0
M  END
>  <i_m_ct_stereo_status>  (4) 
1

>  <s_m_source_file>  (4) 
/var/tmp/pbs.5076255.sched01/tmpoa2zap1w/0_chicbso.sdf

>  <i_m_source_file_index>  (4) 
2

>  <i_lp_mmshare_version>  (4) 
48012

>  <i_f3d_flags>  (4) 
0

>  <s_epik_input>  (4) 
W0NIMl0xW0NIMl1bQ0BASF0oW0NIM10pW0NAQF0oW0NAXTEyMykoW0NIM10pW0NAQEhdKEMoPU8pW0NIMl1bQ0gyXTIpW0NAQEhdKFtDSDJdW0NAXShbQ0gzXSkoW0NIXT1bQ0gyXSlbQ0BIXShbT0hdKVtDQEBIXTNbQ0gzXSlPQyg9TylbQ0gyXVNjNG5bY0hdW2NIXW40W0NIM10=

>  <s_epik_cmdline>  (4) 
J2VwaWtfcHl0aG9uJywgJy1waHQnLCAnMi4wJywgJy1waCcsICc3LjAnLCAnLXRuJywgJzgnLCAnLW1hJywgJzIwMCcsICctaW1hZScsICc8aW5maWxlLm1hZT4nLCAnLW9tYWUnLCAnPG91dGZpbGUubWFlPic=

>  <r_lp_tautomer_probability>  (4) 
1

>  <r_epik_Ionization_Penalty>  (4) 
0.164191

>  <r_epik_Ionization_Penalty_Charging>  (4) 
0.16419

>  <r_epik_Ionization_Penalty_Neutral>  (4) 
3.26009e-07

>  <r_epik_State_Penalty>  (4) 
0.153524

>  <r_epik_Charging_Adjusted_Penalty>  (4) 
0.317714

>  <i_epik_Tot_Q>  (4) 
0

>  <i_epik_Tot_abs_Q>  (4) 
0

>  <s_epik_Chemistry_Notes>  (4) 
This compound has an ester and may undergo hydrolysis at high or low pH.

>  <s_lp_Force_Field>  (4) 
OPLS3e

>  <r_lp_Energy>  (4) 
77.7767

>  <b_lp_Chiralities_Consistent>  (4) 
1

>  <s_lp_Variant>  (4) 
1:0-1

>  <s_i_glide_gridfile>  (4) 
pfpi4k_grid

>  <i_i_glide_lignum>  (4) 
2

>  <i_i_glide_rotatable_bonds>  (4) 
7

>  <r_i_docking_score>  (4) 
-2.62293

>  <r_i_glide_ligand_efficiency>  (4) 
-0.0794826

>  <r_i_glide_ligand_efficiency_sa>  (4) 
-0.254943

>  <r_i_glide_ligand_efficiency_ln>  (4) 
-0.583325

>  <r_i_glide_gscore>  (4) 
-2.62293

>  <r_i_glide_lipo>  (4) 
-0.527646

>  <r_i_glide_hbond>  (4) 
-0.102166

>  <r_i_glide_metal>  (4) 
-0

>  <r_i_glide_rewards>  (4) 
-0.308102

>  <r_i_glide_evdw>  (4) 
-35.5035

>  <r_i_glide_ecoul>  (4) 
-2.54662

>  <r_i_glide_erotb>  (4) 
0.538926

>  <r_i_glide_esite>  (4) 
-0.0667668

>  <r_i_glide_emodel>  (4) 
-43.7247

>  <r_i_glide_energy>  (4) 
-38.0501

>  <r_i_glide_einternal>  (4) 
1.86078

>  <r_i_glide_intrahb_reward>  (4) 
-0

>  <i_i_glide_confnum>  (4) 
6

>  <i_i_glide_posenum>  (4) 
12

>  <r_i_glide_eff_state_penalty>  (4) 
0

>  <ligand_id>  (4) 
1

>  <original_smiles>  (4) 
C=CC1(C)CC(OC(=O)CSc2nccn2C)C2C(=O)CCC3(CCC(C)C23C)C(C)C1O

>  <smiles>  (4) 
[H]OC1([H])C([H])(C([H])([H])[H])C23C([H])([H])C([H])([H])C(=O)C([H])(C([H])(OC(=O)C([H])([H])Sc4nc([H])c([H])n4C([H])([H])[H])C([H])([H])C1(C([H])=C([H])[H])C([H])([H])[H])C2(C([H])([H])[H])C([H])(C([H])([H])[H])C([H])([H])C3([H])[H]

$$$$
1:0:1
     RDKit          3D

 71 74  0  0  1  0  0  0  0  0999 V2000
    6.9575  -10.9699    2.0554 C   0  0  0  0  0  0  0  0  0  0  0  0
    6.9748  -10.0067    2.9930 C   0  0  0  0  0  0  0  0  0  0  0  0
    5.9210   -8.9195    3.2453 C   0  0  1  0  0  0  0  0  0  0  0  0
    6.7393   -7.6753    3.6844 C   0  0  0  0  0  0  0  0  0  0  0  0
    5.2045   -8.5468    1.8913 C   0  0  0  0  0  0  0  0  0  0  0  0
    4.1119   -7.4457    1.9240 C   0  0  1  0  0  0  0  0  0  0  0  0
    4.2281   -6.6782    0.7184 O   0  0  0  0  0  0  0  0  0  0  0  0
    5.0759   -5.6287    0.6338 C   0  0  0  0  0  0  0  0  0  0  0  0
    5.9002   -5.3149    1.4918 O   0  0  0  0  0  0  0  0  0  0  0  0
    4.8987   -4.8337   -0.6654 C   0  0  0  0  0  0  0  0  0  0  0  0
    6.0134   -3.4034   -0.7729 S   0  0  0  0  0  0  0  0  0  0  0  0
    5.0904   -2.4637   -1.9160 C   0  0  0  0  0  0  0  0  0  0  0  0
    4.9370   -2.7740   -3.2003 N   0  0  0  0  0  0  0  0  0  0  0  0
    4.1176   -1.7543   -3.7211 C   0  0  0  0  0  0  0  0  0  0  0  0
    3.8209   -0.8664   -2.7112 C   0  0  0  0  0  0  0  0  0  0  0  0
    4.4626   -1.3275   -1.5614 N   0  0  0  0  0  0  0  0  0  0  0  0
    4.4021   -0.7258   -0.2406 C   0  0  0  0  0  0  0  0  0  0  0  0
    2.5866   -7.8272    2.0056 C   0  0  2  0  0  0  0  0  0  0  0  0
    1.8696   -6.5332    2.3953 C   0  0  0  0  0  0  0  0  0  0  0  0
    1.2291   -5.8684    1.5741 O   0  0  0  0  0  0  0  0  0  0  0  0
    1.9949   -6.1025    3.8500 C   0  0  0  0  0  0  0  0  0  0  0  0
    1.6608   -7.2692    4.7944 C   0  0  0  0  0  0  0  0  0  0  0  0
    2.3835   -8.6352    4.4823 C   0  0  1  0  0  0  0  0  0  0  0  0
    1.5669   -9.7284    5.2052 C   0  0  0  0  0  0  0  0  0  0  0  0
    0.2945   -9.9374    4.3664 C   0  0  0  0  0  0  0  0  0  0  0  0
    0.5861   -9.3917    2.9526 C   0  0  1  0  0  0  0  0  0  0  0  0
   -0.5205   -8.4237    2.4592 C   0  0  0  0  0  0  0  0  0  0  0  0
    2.1285   -8.9917    2.9688 C   0  0  1  0  0  0  0  0  0  0  0  0
    2.7112  -10.3453    2.4729 C   0  0  0  0  0  0  0  0  0  0  0  0
    3.8768   -8.5031    5.0166 C   0  0  1  0  0  0  0  0  0  0  0  0
    3.9325   -8.5500    6.5679 C   0  0  0  0  0  0  0  0  0  0  0  0
    5.0552   -9.3919    4.4815 C   0  0  1  0  0  0  0  0  0  0  0  0
    4.7914  -10.7787    4.5609 O   0  0  0  0  0  0  0  0  0  0  0  0
    6.1496  -11.0961    1.3474 H   0  0  0  0  0  0  0  0  0  0  0  0
    7.7729  -11.6787    2.0025 H   0  0  0  0  0  0  0  0  0  0  0  0
    7.8319   -9.9872    3.6552 H   0  0  0  0  0  0  0  0  0  0  0  0
    6.1172   -6.8205    3.9394 H   0  0  0  0  0  0  0  0  0  0  0  0
    7.4271   -7.3495    2.9024 H   0  0  0  0  0  0  0  0  0  0  0  0
    7.3521   -7.8832    4.5643 H   0  0  0  0  0  0  0  0  0  0  0  0
    6.0175   -8.1679    1.2725 H   0  0  0  0  0  0  0  0  0  0  0  0
    4.8784   -9.3756    1.2732 H   0  0  0  0  0  0  0  0  0  0  0  0
    4.3450   -6.7798    2.7493 H   0  0  0  0  0  0  0  0  0  0  0  0
    5.0203   -5.4848   -1.5303 H   0  0  0  0  0  0  0  0  0  0  0  0
    3.8706   -4.4678   -0.6961 H   0  0  0  0  0  0  0  0  0  0  0  0
    3.8119   -1.7399   -4.7539 H   0  0  0  0  0  0  0  0  0  0  0  0
    3.2086    0.0214   -2.7308 H   0  0  0  0  0  0  0  0  0  0  0  0
    4.2769    0.3481   -0.3021 H   0  0  0  0  0  0  0  0  0  0  0  0
    5.3206   -0.9080    0.3125 H   0  0  0  0  0  0  0  0  0  0  0  0
    3.5555   -1.1248    0.3090 H   0  0  0  0  0  0  0  0  0  0  0  0
    2.2615   -8.1029    1.0055 H   0  0  0  0  0  0  0  0  0  0  0  0
    3.0028   -5.7355    4.0365 H   0  0  0  0  0  0  0  0  0  0  0  0
    1.3266   -5.2635    4.0392 H   0  0  0  0  0  0  0  0  0  0  0  0
    1.8615   -6.9329    5.8087 H   0  0  0  0  0  0  0  0  0  0  0  0
    0.5821   -7.3880    4.8087 H   0  0  0  0  0  0  0  0  0  0  0  0
    2.1241  -10.6635    5.2542 H   0  0  0  0  0  0  0  0  0  0  0  0
    1.3086   -9.4642    6.2312 H   0  0  0  0  0  0  0  0  0  0  0  0
    0.0472  -10.9999    4.3327 H   0  0  0  0  0  0  0  0  0  0  0  0
   -0.5568   -9.4277    4.8218 H   0  0  0  0  0  0  0  0  0  0  0  0
    0.4227  -10.2301    2.2707 H   0  0  0  0  0  0  0  0  0  0  0  0
   -0.6389   -7.5285    3.0652 H   0  0  0  0  0  0  0  0  0  0  0  0
   -1.4896   -8.9266    2.4667 H   0  0  0  0  0  0  0  0  0  0  0  0
   -0.3419   -8.1192    1.4271 H   0  0  0  0  0  0  0  0  0  0  0  0
    2.2954  -11.2169    2.9862 H   0  0  0  0  0  0  0  0  0  0  0  0
    3.7701  -10.4875    2.5032 H   0  0  0  0  0  0  0  0  0  0  0  0
    2.4892  -10.4356    1.4145 H   0  0  0  0  0  0  0  0  0  0  0  0
    4.1776   -7.4858    4.7893 H   0  0  0  0  0  0  0  0  0  0  0  0
    3.7602   -9.5612    6.9428 H   0  0  0  0  0  0  0  0  0  0  0  0
    3.2105   -7.9007    7.0568 H   0  0  0  0  0  0  0  0  0  0  0  0
    4.9084   -8.2320    6.9375 H   0  0  0  0  0  0  0  0  0  0  0  0
    5.7975   -9.3486    5.2776 H   0  0  0  0  0  0  0  0  0  0  0  0
    4.3137  -11.0442    3.7891 H   0  0  0  0  0  0  0  0  0  0  0  0
  1  2  2  0
  1 34  1  0
  1 35  1  0
  2  3  1  0
  2 36  1  0
  3 32  1  0
  3  4  1  1
  3  5  1  0
  4 37  1  0
  4 38  1  0
  4 39  1  0
  5  6  1  0
  5 40  1  0
  5 41  1  0
  6  7  1  0
  6 18  1  0
  6 42  1  1
  7  8  1  0
  8  9  2  0
  8 10  1  0
 10 11  1  0
 10 43  1  0
 10 44  1  0
 11 12  1  0
 12 16  1  0
 12 13  2  0
 13 14  1  0
 14 15  2  0
 14 45  1  0
 15 16  1  0
 15 46  1  0
 16 17  1  0
 17 47  1  0
 17 48  1  0
 17 49  1  0
 18 28  1  0
 18 19  1  0
 18 50  1  6
 19 20  2  0
 19 21  1  0
 21 22  1  0
 21 51  1  0
 21 52  1  0
 23 22  1  6
 22 53  1  0
 22 54  1  0
 23 28  1  0
 23 24  1  0
 23 30  1  0
 24 25  1  0
 24 55  1  0
 24 56  1  0
 25 26  1  0
 25 57  1  0
 25 58  1  0
 26 27  1  0
 26 28  1  0
 26 59  1  6
 27 60  1  0
 27 61  1  0
 27 62  1  0
 28 29  1  6
 29 63  1  0
 29 64  1  0
 29 65  1  0
 30 31  1  0
 30 32  1  0
 30 66  1  1
 31 67  1  0
 31 68  1  0
 31 69  1  0
 32 33  1  0
 32 70  1  1
 33 71  1  0
M  END
>  <i_m_ct_stereo_status>  (5) 
1

>  <s_m_source_file>  (5) 
/var/tmp/pbs.5076255.sched01/tmpoa2zap1w/0_chicbso.sdf

>  <i_m_source_file_index>  (5) 
2

>  <i_lp_mmshare_version>  (5) 
48012

>  <i_f3d_flags>  (5) 
0

>  <s_epik_input>  (5) 
W0NIMl0xW0NIMl1bQ0BASF0oW0NIM10pW0NAQF0oW0NAXTEyMykoW0NIM10pW0NAQEhdKEMoPU8pW0NIMl1bQ0gyXTIpW0NAQEhdKFtDSDJdW0NAXShbQ0gzXSkoW0NIXT1bQ0gyXSlbQ0BIXShbT0hdKVtDQEBIXTNbQ0gzXSlPQyg9TylbQ0gyXVNjNG5bY0hdW2NIXW40W0NIM10=

>  <s_epik_cmdline>  (5) 
J2VwaWtfcHl0aG9uJywgJy1waHQnLCAnMi4wJywgJy1waCcsICc3LjAnLCAnLXRuJywgJzgnLCAnLW1hJywgJzIwMCcsICctaW1hZScsICc8aW5maWxlLm1hZT4nLCAnLW9tYWUnLCAnPG91dGZpbGUubWFlPic=

>  <r_lp_tautomer_probability>  (5) 
1

>  <r_epik_Ionization_Penalty>  (5) 
0.164191

>  <r_epik_Ionization_Penalty_Charging>  (5) 
0.16419

>  <r_epik_Ionization_Penalty_Neutral>  (5) 
3.26009e-07

>  <r_epik_State_Penalty>  (5) 
0.153524

>  <r_epik_Charging_Adjusted_Penalty>  (5) 
0.317714

>  <i_epik_Tot_Q>  (5) 
0

>  <i_epik_Tot_abs_Q>  (5) 
0

>  <s_epik_Chemistry_Notes>  (5) 
This compound has an ester and may undergo hydrolysis at high or low pH.

>  <s_lp_Force_Field>  (5) 
OPLS3e

>  <r_lp_Energy>  (5) 
77.7767

>  <b_lp_Chiralities_Consistent>  (5) 
1

>  <s_lp_Variant>  (5) 
1:0-1

>  <s_i_glide_gridfile>  (5) 
pfpi4k_grid

>  <i_i_glide_lignum>  (5) 
2

>  <i_i_glide_rotatable_bonds>  (5) 
7

>  <r_i_docking_score>  (5) 
-2.56992

>  <r_i_glide_ligand_efficiency>  (5) 
-0.0778764

>  <r_i_glide_ligand_efficiency_sa>  (5) 
-0.249791

>  <r_i_glide_ligand_efficiency_ln>  (5) 
-0.571537

>  <r_i_glide_gscore>  (5) 
-2.56992

>  <r_i_glide_lipo>  (5) 
-0.326011

>  <r_i_glide_hbond>  (5) 
-0.135934

>  <r_i_glide_metal>  (5) 
-0

>  <r_i_glide_rewards>  (5) 
-0.3294

>  <r_i_glide_evdw>  (5) 
-33.2125

>  <r_i_glide_ecoul>  (5) 
-3.93151

>  <r_i_glide_erotb>  (5) 
0.538926

>  <r_i_glide_esite>  (5) 
-0.0671479

>  <r_i_glide_emodel>  (5) 
-42.0831

>  <r_i_glide_energy>  (5) 
-37.144

>  <r_i_glide_einternal>  (5) 
2.80516

>  <r_i_glide_intrahb_reward>  (5) 
-0

>  <i_i_glide_confnum>  (5) 
6

>  <i_i_glide_posenum>  (5) 
36

>  <r_i_glide_eff_state_penalty>  (5) 
0

>  <ligand_id>  (5) 
1

>  <original_smiles>  (5) 
C=CC1(C)CC(OC(=O)CSc2nccn2C)C2C(=O)CCC3(CCC(C)C23C)C(C)C1O

>  <smiles>  (5) 
[H]OC1([H])C([H])(C([H])([H])[H])C23C([H])([H])C([H])([H])C(=O)C([H])(C([H])(OC(=O)C([H])([H])Sc4nc([H])c([H])n4C([H])([H])[H])C([H])([H])C1(C([H])=C([H])[H])C([H])([H])[H])C2(C([H])([H])[H])C([H])(C([H])([H])[H])C([H])([H])C3([H])[H]

$$$$
1:0:2
     RDKit          3D

 71 74  0  0  1  0  0  0  0  0999 V2000
    6.8816  -10.9343    2.0369 C   0  0  0  0  0  0  0  0  0  0  0  0
    6.8719  -10.0364    3.0389 C   0  0  0  0  0  0  0  0  0  0  0  0
    5.8395   -8.9348    3.3217 C   0  0  1  0  0  0  0  0  0  0  0  0
    6.6880   -7.6877    3.6958 C   0  0  0  0  0  0  0  0  0  0  0  0
    5.0543   -8.5753    2.0037 C   0  0  0  0  0  0  0  0  0  0  0  0
    3.9727   -7.4669    2.0635 C   0  0  1  0  0  0  0  0  0  0  0  0
    4.0618   -6.7406    0.8294 O   0  0  0  0  0  0  0  0  0  0  0  0
    4.8324   -5.6349    0.7187 C   0  0  0  0  0  0  0  0  0  0  0  0
    5.5429   -5.1757    1.6145 O   0  0  0  0  0  0  0  0  0  0  0  0
    4.7252   -4.9847   -0.6646 C   0  0  0  0  0  0  0  0  0  0  0  0
    5.8003   -3.5249   -0.8368 S   0  0  0  0  0  0  0  0  0  0  0  0
    4.7728   -2.6046   -1.9192 C   0  0  0  0  0  0  0  0  0  0  0  0
    4.8570   -2.6432   -3.2458 N   0  0  0  0  0  0  0  0  0  0  0  0
    3.8863   -1.7466   -3.6869 C   0  0  0  0  0  0  0  0  0  0  0  0
    3.2461   -1.2052   -2.6015 C   0  0  0  0  0  0  0  0  0  0  0  0
    3.8224   -1.7643   -1.4694 N   0  0  0  0  0  0  0  0  0  0  0  0
    3.4462   -1.4879   -0.0910 C   0  0  0  0  0  0  0  0  0  0  0  0
    2.4527   -7.8386    2.2228 C   0  0  2  0  0  0  0  0  0  0  0  0
    1.7690   -6.5212    2.6158 C   0  0  0  0  0  0  0  0  0  0  0  0
    1.1028   -5.8572    1.8139 O   0  0  0  0  0  0  0  0  0  0  0  0
    1.9661   -6.0713    4.0583 C   0  0  0  0  0  0  0  0  0  0  0  0
    1.6718   -7.2178    5.0409 C   0  0  0  0  0  0  0  0  0  0  0  0
    2.3667   -8.5963    4.7192 C   0  0  1  0  0  0  0  0  0  0  0  0
    1.5762   -9.6659    5.5041 C   0  0  0  0  0  0  0  0  0  0  0  0
    0.2667   -9.8846    4.7334 C   0  0  0  0  0  0  0  0  0  0  0  0
    0.4855   -9.3672    3.2970 C   0  0  1  0  0  0  0  0  0  0  0  0
   -0.6316   -8.4012    2.8338 C   0  0  0  0  0  0  0  0  0  0  0  0
    2.0284   -8.9858    3.2239 C   0  0  1  0  0  0  0  0  0  0  0  0
    2.5722  -10.3584    2.7183 C   0  0  0  0  0  0  0  0  0  0  0  0
    3.8859   -8.4608    5.1833 C   0  0  1  0  0  0  0  0  0  0  0  0
    4.0155   -8.4803    6.7328 C   0  0  0  0  0  0  0  0  0  0  0  0
    5.0285   -9.3703    4.6119 C   0  0  1  0  0  0  0  0  0  0  0  0
    4.7278  -10.7479    4.7320 O   0  0  0  0  0  0  0  0  0  0  0  0
    6.1099  -10.9920    1.2821 H   0  0  0  0  0  0  0  0  0  0  0  0
    7.6855  -11.6515    1.9730 H   0  0  0  0  0  0  0  0  0  0  0  0
    7.6920  -10.0845    3.7421 H   0  0  0  0  0  0  0  0  0  0  0  0
    6.0844   -6.8225    3.9640 H   0  0  0  0  0  0  0  0  0  0  0  0
    7.3362   -7.3815    2.8731 H   0  0  0  0  0  0  0  0  0  0  0  0
    7.3426   -7.8843    4.5471 H   0  0  0  0  0  0  0  0  0  0  0  0
    5.8348   -8.2136    1.3329 H   0  0  0  0  0  0  0  0  0  0  0  0
    4.6850   -9.4136    1.4227 H   0  0  0  0  0  0  0  0  0  0  0  0
    4.2486   -6.7928    2.8693 H   0  0  0  0  0  0  0  0  0  0  0  0
    4.9820   -5.7143   -1.4338 H   0  0  0  0  0  0  0  0  0  0  0  0
    3.6874   -4.6859   -0.8252 H   0  0  0  0  0  0  0  0  0  0  0  0
    3.7132   -1.5559   -4.7351 H   0  0  0  0  0  0  0  0  0  0  0  0
    2.4340   -0.4911   -2.5331 H   0  0  0  0  0  0  0  0  0  0  0  0
    3.0288   -0.4853   -0.0071 H   0  0  0  0  0  0  0  0  0  0  0  0
    4.3073   -1.5492    0.5712 H   0  0  0  0  0  0  0  0  0  0  0  0
    2.6914   -2.2025    0.2306 H   0  0  0  0  0  0  0  0  0  0  0  0
    2.0791   -8.1279    1.2422 H   0  0  0  0  0  0  0  0  0  0  0  0
    2.9852   -5.7109    4.1867 H   0  0  0  0  0  0  0  0  0  0  0  0
    1.3141   -5.2239    4.2645 H   0  0  0  0  0  0  0  0  0  0  0  0
    1.9184   -6.8657    6.0382 H   0  0  0  0  0  0  0  0  0  0  0  0
    0.5930   -7.3269    5.1046 H   0  0  0  0  0  0  0  0  0  0  0  0
    2.1262  -10.6053    5.5483 H   0  0  0  0  0  0  0  0  0  0  0  0
    1.3748   -9.3788    6.5364 H   0  0  0  0  0  0  0  0  0  0  0  0
    0.0298  -10.9481    4.7285 H   0  0  0  0  0  0  0  0  0  0  0  0
   -0.5626   -9.3717    5.2221 H   0  0  0  0  0  0  0  0  0  0  0  0
    0.2799  -10.2178    2.6433 H   0  0  0  0  0  0  0  0  0  0  0  0
   -0.7119   -7.4923    3.4252 H   0  0  0  0  0  0  0  0  0  0  0  0
   -1.6024   -8.8949    2.9040 H   0  0  0  0  0  0  0  0  0  0  0  0
   -0.4995   -8.1236    1.7874 H   0  0  0  0  0  0  0  0  0  0  0  0
    2.1922  -11.2059    3.2932 H   0  0  0  0  0  0  0  0  0  0  0  0
    3.6327  -10.5066    2.7066 H   0  0  0  0  0  0  0  0  0  0  0  0
    2.2689  -10.5082    1.6825 H   0  0  0  0  0  0  0  0  0  0  0  0
    4.1842   -7.4509    4.9198 H   0  0  0  0  0  0  0  0  0  0  0  0
    3.8521   -9.4798    7.1400 H   0  0  0  0  0  0  0  0  0  0  0  0
    3.3238   -7.8125    7.2399 H   0  0  0  0  0  0  0  0  0  0  0  0
    5.0109   -8.1631    7.0468 H   0  0  0  0  0  0  0  0  0  0  0  0
    5.8125   -9.3250    5.3677 H   0  0  0  0  0  0  0  0  0  0  0  0
    4.3122  -10.9017    5.5684 H   0  0  0  0  0  0  0  0  0  0  0  0
  1  2  2  0
  1 34  1  0
  1 35  1  0
  2  3  1  0
  2 36  1  0
  3 32  1  0
  3  4  1  1
  3  5  1  0
  4 37  1  0
  4 38  1  0
  4 39  1  0
  5  6  1  0
  5 40  1  0
  5 41  1  0
  6  7  1  0
  6 18  1  0
  6 42  1  1
  7  8  1  0
  8  9  2  0
  8 10  1  0
 10 11  1  0
 10 43  1  0
 10 44  1  0
 11 12  1  0
 12 16  1  0
 12 13  2  0
 13 14  1  0
 14 15  2  0
 14 45  1  0
 15 16  1  0
 15 46  1  0
 16 17  1  0
 17 47  1  0
 17 48  1  0
 17 49  1  0
 18 28  1  0
 18 19  1  0
 18 50  1  6
 19 20  2  0
 19 21  1  0
 21 22  1  0
 21 51  1  0
 21 52  1  0
 23 22  1  1
 22 53  1  0
 22 54  1  0
 23 28  1  0
 23 24  1  0
 23 30  1  0
 24 25  1  0
 24 55  1  0
 24 56  1  0
 25 26  1  0
 25 57  1  0
 25 58  1  0
 26 27  1  0
 26 28  1  0
 26 59  1  6
 27 60  1  0
 27 61  1  0
 27 62  1  0
 28 29  1  6
 29 63  1  0
 29 64  1  0
 29 65  1  0
 30 31  1  0
 30 32  1  0
 30 66  1  6
 31 67  1  0
 31 68  1  0
 31 69  1  0
 32 33  1  0
 32 70  1  1
 33 71  1  0
M  END
>  <i_m_ct_stereo_status>  (6) 
1

>  <s_m_source_file>  (6) 
/var/tmp/pbs.5076255.sched01/tmpoa2zap1w/0_chicbso.sdf

>  <i_m_source_file_index>  (6) 
2

>  <i_lp_mmshare_version>  (6) 
48012

>  <i_f3d_flags>  (6) 
0

>  <s_epik_input>  (6) 
W0NIMl0xW0NIMl1bQ0BASF0oW0NIM10pW0NAQF0oW0NAXTEyMykoW0NIM10pW0NAQEhdKEMoPU8pW0NIMl1bQ0gyXTIpW0NAQEhdKFtDSDJdW0NAXShbQ0gzXSkoW0NIXT1bQ0gyXSlbQ0BIXShbT0hdKVtDQEBIXTNbQ0gzXSlPQyg9TylbQ0gyXVNjNG5bY0hdW2NIXW40W0NIM10=

>  <s_epik_cmdline>  (6) 
J2VwaWtfcHl0aG9uJywgJy1waHQnLCAnMi4wJywgJy1waCcsICc3LjAnLCAnLXRuJywgJzgnLCAnLW1hJywgJzIwMCcsICctaW1hZScsICc8aW5maWxlLm1hZT4nLCAnLW9tYWUnLCAnPG91dGZpbGUubWFlPic=

>  <r_lp_tautomer_probability>  (6) 
1

>  <r_epik_Ionization_Penalty>  (6) 
0.164191

>  <r_epik_Ionization_Penalty_Charging>  (6) 
0.16419

>  <r_epik_Ionization_Penalty_Neutral>  (6) 
3.26009e-07

>  <r_epik_State_Penalty>  (6) 
0.153524

>  <r_epik_Charging_Adjusted_Penalty>  (6) 
0.317714

>  <i_epik_Tot_Q>  (6) 
0

>  <i_epik_Tot_abs_Q>  (6) 
0

>  <s_epik_Chemistry_Notes>  (6) 
This compound has an ester and may undergo hydrolysis at high or low pH.

>  <s_lp_Force_Field>  (6) 
OPLS3e

>  <r_lp_Energy>  (6) 
77.7767

>  <b_lp_Chiralities_Consistent>  (6) 
1

>  <s_lp_Variant>  (6) 
1:0-1

>  <s_i_glide_gridfile>  (6) 
pfpi4k_grid

>  <i_i_glide_lignum>  (6) 
2

>  <i_i_glide_rotatable_bonds>  (6) 
7

>  <r_i_docking_score>  (6) 
-2.53391

>  <r_i_glide_ligand_efficiency>  (6) 
-0.076785

>  <r_i_glide_ligand_efficiency_sa>  (6) 
-0.246291

>  <r_i_glide_ligand_efficiency_ln>  (6) 
-0.563528

>  <r_i_glide_gscore>  (6) 
-2.53391

>  <r_i_glide_lipo>  (6) 
-0.308258

>  <r_i_glide_hbond>  (6) 
-0.124299

>  <r_i_glide_metal>  (6) 
-0

>  <r_i_glide_rewards>  (6) 
-0.304333

>  <r_i_glide_evdw>  (6) 
-31.8288

>  <r_i_glide_ecoul>  (6) 
-4.44007

>  <r_i_glide_erotb>  (6) 
0.538926

>  <r_i_glide_esite>  (6) 
-0.0784884

>  <r_i_glide_emodel>  (6) 
-41.3827

>  <r_i_glide_energy>  (6) 
-36.2689

>  <r_i_glide_einternal>  (6) 
2.55013

>  <r_i_glide_intrahb_reward>  (6) 
-0

>  <i_i_glide_confnum>  (6) 
6

>  <i_i_glide_posenum>  (6) 
13

>  <r_i_glide_eff_state_penalty>  (6) 
0

>  <ligand_id>  (6) 
1

>  <original_smiles>  (6) 
C=CC1(C)CC(OC(=O)CSc2nccn2C)C2C(=O)CCC3(CCC(C)C23C)C(C)C1O

>  <smiles>  (6) 
[H]OC1([H])C([H])(C([H])([H])[H])C23C([H])([H])C([H])([H])C(=O)C([H])(C([H])(OC(=O)C([H])([H])Sc4nc([H])c([H])n4C([H])([H])[H])C([H])([H])C1(C([H])=C([H])[H])C([H])([H])[H])C2(C([H])([H])[H])C([H])(C([H])([H])[H])C([H])([H])C3([H])[H]

$$$$
1:1:0
     RDKit          3D

 72 75  0  0  1  0  0  0  0  0999 V2000
    6.9650  -10.7403    2.4591 C   0  0  0  0  0  0  0  0  0  0  0  0
    6.9366   -9.7789    3.4009 C   0  0  0  0  0  0  0  0  0  0  0  0
    5.8491   -8.7183    3.6394 C   0  0  1  0  0  0  0  0  0  0  0  0
    6.6336   -7.4296    4.0070 C   0  0  0  0  0  0  0  0  0  0  0  0
    5.0854   -8.4212    2.2949 C   0  0  0  0  0  0  0  0  0  0  0  0
    3.9578   -7.3590    2.3087 C   0  0  1  0  0  0  0  0  0  0  0  0
    4.0712   -6.6483    1.0657 O   0  0  0  0  0  0  0  0  0  0  0  0
    4.7169   -5.4592    0.9845 C   0  0  0  0  0  0  0  0  0  0  0  0
    5.2636   -4.8727    1.9201 O   0  0  0  0  0  0  0  0  0  0  0  0
    4.7090   -4.8939   -0.4355 C   0  0  0  0  0  0  0  0  0  0  0  0
    4.8219   -3.0760   -0.5132 S   0  0  0  0  0  0  0  0  0  0  0  0
    3.8516   -2.5950   -1.9278 C   0  0  0  0  0  0  0  0  0  0  0  0
    2.9976   -3.3693   -2.5553 N   0  0  0  0  0  0  0  0  0  0  0  0
    2.4549   -2.7304   -3.6289 C   0  0  0  0  0  0  0  0  0  0  0  0
    3.0145   -1.4800   -3.6420 C   0  0  0  0  0  0  0  0  0  0  0  0
    3.8574   -1.4340   -2.5640 N   0  0  0  0  0  0  0  0  0  0  0  0
    4.6748   -0.2916   -2.1628 C   0  0  0  0  0  0  0  0  0  0  0  0
    2.4447   -7.7922    2.4267 C   0  0  2  0  0  0  0  0  0  0  0  0
    1.7006   -6.5028    2.7839 C   0  0  0  0  0  0  0  0  0  0  0  0
    1.0337   -5.8752    1.9501 O   0  0  0  0  0  0  0  0  0  0  0  0
    1.8382   -6.0122    4.2191 C   0  0  0  0  0  0  0  0  0  0  0  0
    1.5707   -7.1534    5.2172 C   0  0  0  0  0  0  0  0  0  0  0  0
    2.3316   -8.5065    4.9408 C   0  0  1  0  0  0  0  0  0  0  0  0
    1.5720   -9.5926    5.7332 C   0  0  0  0  0  0  0  0  0  0  0  0
    0.2915   -9.8802    4.9381 C   0  0  0  0  0  0  0  0  0  0  0  0
    0.5195   -9.3829    3.4932 C   0  0  1  0  0  0  0  0  0  0  0  0
   -0.6255   -8.4723    2.9866 C   0  0  0  0  0  0  0  0  0  0  0  0
    2.0484   -8.9380    3.4460 C   0  0  1  0  0  0  0  0  0  0  0  0
    2.6535  -10.3002    2.9806 C   0  0  0  0  0  0  0  0  0  0  0  0
    3.8323   -8.2965    5.4407 C   0  0  1  0  0  0  0  0  0  0  0  0
    3.9244   -8.2805    6.9926 C   0  0  0  0  0  0  0  0  0  0  0  0
    5.0277   -9.1666    4.9174 C   0  0  1  0  0  0  0  0  0  0  0  0
    4.7741  -10.5516    5.0568 O   0  0  0  0  0  0  0  0  0  0  0  0
    6.1743  -10.8880    1.7366 H   0  0  0  0  0  0  0  0  0  0  0  0
    7.8015  -11.4221    2.4154 H   0  0  0  0  0  0  0  0  0  0  0  0
    7.7798   -9.7363    4.0742 H   0  0  0  0  0  0  0  0  0  0  0  0
    5.9873   -6.5855    4.2443 H   0  0  0  0  0  0  0  0  0  0  0  0
    7.2887   -7.1087    3.1943 H   0  0  0  0  0  0  0  0  0  0  0  0
    7.2762   -7.5790    4.8767 H   0  0  0  0  0  0  0  0  0  0  0  0
    5.8653   -8.0347    1.6348 H   0  0  0  0  0  0  0  0  0  0  0  0
    4.7679   -9.2857    1.7219 H   0  0  0  0  0  0  0  0  0  0  0  0
    4.1798   -6.6642    3.1100 H   0  0  0  0  0  0  0  0  0  0  0  0
    5.5170   -5.3348   -1.0167 H   0  0  0  0  0  0  0  0  0  0  0  0
    3.7793   -5.2054   -0.8920 H   0  0  0  0  0  0  0  0  0  0  0  0
    1.7382   -3.1984   -4.2956 H   0  0  0  0  0  0  0  0  0  0  0  0
    2.8474   -0.6384   -4.3132 H   0  0  0  0  0  0  0  0  0  0  0  0
    4.3946    0.5608   -2.7830 H   0  0  0  0  0  0  0  0  0  0  0  0
    5.7237   -0.5378   -2.3097 H   0  0  0  0  0  0  0  0  0  0  0  0
    4.4847   -0.0801   -1.1109 H   0  0  0  0  0  0  0  0  0  0  0  0
    2.1112   -8.1176    1.4433 H   0  0  0  0  0  0  0  0  0  0  0  0
    2.8358   -5.6020    4.3651 H   0  0  0  0  0  0  0  0  0  0  0  0
    1.1457   -5.1910    4.3934 H   0  0  0  0  0  0  0  0  0  0  0  0
    1.7772   -6.7710    6.2127 H   0  0  0  0  0  0  0  0  0  0  0  0
    0.4952   -7.3069    5.2602 H   0  0  0  0  0  0  0  0  0  0  0  0
    2.1570  -10.5079    5.8067 H   0  0  0  0  0  0  0  0  0  0  0  0
    1.3286   -9.2938    6.7528 H   0  0  0  0  0  0  0  0  0  0  0  0
    0.1034  -10.9539    4.9553 H   0  0  0  0  0  0  0  0  0  0  0  0
   -0.5732   -9.3992    5.3963 H   0  0  0  0  0  0  0  0  0  0  0  0
    0.3634  -10.2534    2.8533 H   0  0  0  0  0  0  0  0  0  0  0  0
   -0.7563   -7.5547    3.5545 H   0  0  0  0  0  0  0  0  0  0  0  0
   -1.5796   -9.0003    3.0446 H   0  0  0  0  0  0  0  0  0  0  0  0
   -0.4821   -8.2112    1.9373 H   0  0  0  0  0  0  0  0  0  0  0  0
    2.3030  -11.1496    3.5718 H   0  0  0  0  0  0  0  0  0  0  0  0
    3.7214  -10.3988    2.9957 H   0  0  0  0  0  0  0  0  0  0  0  0
    2.3774  -10.5052    1.9471 H   0  0  0  0  0  0  0  0  0  0  0  0
    4.0932   -7.2811    5.1654 H   0  0  0  0  0  0  0  0  0  0  0  0
    3.7970   -9.2771    7.4179 H   0  0  0  0  0  0  0  0  0  0  0  0
    3.1907   -7.6355    7.4710 H   0  0  0  0  0  0  0  0  0  0  0  0
    4.8959   -7.9112    7.3251 H   0  0  0  0  0  0  0  0  0  0  0  0
    5.7897   -9.0751    5.6915 H   0  0  0  0  0  0  0  0  0  0  0  0
    4.3362  -10.7067    5.8726 H   0  0  0  0  0  0  0  0  0  0  0  0
    2.8145   -4.3609   -2.3279 H   0  0  0  0  0  0  0  0  0  0  0  0
  1  2  2  0
  1 34  1  0
  1 35  1  0
  2  3  1  0
  2 36  1  0
  3 32  1  0
  3  4  1  1
  3  5  1  0
  4 37  1  0
  4 38  1  0
  4 39  1  0
  5  6  1  0
  5 40  1  0
  5 41  1  0
  6  7  1  0
  6 18  1  0
  6 42  1  1
  7  8  1  0
  8  9  2  0
  8 10  1  0
 10 11  1  0
 10 43  1  0
 10 44  1  0
 11 12  1  0
 12 16  1  0
 12 13  2  0
 13 14  1  0
 13 72  1  0
 14 15  2  0
 14 45  1  0
 15 16  1  0
 15 46  1  0
 16 17  1  0
 17 47  1  0
 17 48  1  0
 17 49  1  0
 18 28  1  0
 18 19  1  0
 18 50  1  6
 19 20  2  0
 19 21  1  0
 21 22  1  0
 21 51  1  0
 21 52  1  0
 23 22  1  6
 22 53  1  0
 22 54  1  0
 23 28  1  0
 23 24  1  0
 23 30  1  0
 24 25  1  0
 24 55  1  0
 24 56  1  0
 25 26  1  0
 25 57  1  0
 25 58  1  0
 26 27  1  0
 26 28  1  0
 26 59  1  6
 27 60  1  0
 27 61  1  0
 27 62  1  0
 28 29  1  6
 29 63  1  0
 29 64  1  0
 29 65  1  0
 30 31  1  0
 30 32  1  0
 30 66  1  6
 31 67  1  0
 31 68  1  0
 31 69  1  0
 32 33  1  0
 32 70  1  1
 33 71  1  0
M  CHG  1  13   1
M  END
>  <i_m_ct_stereo_status>  (7) 
1

>  <s_m_source_file>  (7) 
/var/tmp/pbs.5076255.sched01/tmpoa2zap1w/0_chicbso.sdf

>  <i_m_source_file_index>  (7) 
3

>  <i_lp_mmshare_version>  (7) 
48012

>  <i_f3d_flags>  (7) 
0

>  <s_epik_input>  (7) 
W0NIMl0xW0NIMl1bQ0BASF0oW0NIM10pW0NAQF0oW0NAXTEyMykoW0NIM10pW0NAQEhdKEMoPU8pW0NIMl1bQ0gyXTIpW0NAQEhdKFtDSDJdW0NAXShbQ0gzXSkoW0NIXT1bQ0gyXSlbQ0BIXShbT0hdKVtDQEBIXTNbQ0gzXSlPQyg9TylbQ0gyXVNjNG5bY0hdW2NIXW40W0NIM10=

>  <s_epik_cmdline>  (7) 
J2VwaWtfcHl0aG9uJywgJy1waHQnLCAnMi4wJywgJy1waCcsICc3LjAnLCAnLXRuJywgJzgnLCAnLW1hJywgJzIwMCcsICctaW1hZScsICc8aW5maWxlLm1hZT4nLCAnLW9tYWUnLCAnPG91dGZpbGUubWFlPic=

>  <r_lp_tautomer_probability>  (7) 
1

>  <r_epik_Ionization_Penalty>  (7) 
0.840538

>  <r_epik_Ionization_Penalty_Charging>  (7) 
0

>  <r_epik_Ionization_Penalty_Neutral>  (7) 
0.840538

>  <r_epik_State_Penalty>  (7) 
0.875241

>  <r_epik_Charging_Adjusted_Penalty>  (7) 
0.875241

>  <i_epik_Tot_Q>  (7) 
1

>  <i_epik_Tot_abs_Q>  (7) 
1

>  <s_epik_Chemistry_Notes>  (7) 
This compound has an ester and may undergo hydrolysis at high or low pH.

>  <s_lp_Force_Field>  (7) 
OPLS3e

>  <r_lp_Energy>  (7) 
77.8806

>  <b_lp_Chiralities_Consistent>  (7) 
1

>  <s_lp_Variant>  (7) 
1:0-2

>  <s_i_glide_gridfile>  (7) 
pfpi4k_grid

>  <i_i_glide_lignum>  (7) 
3

>  <i_i_glide_rotatable_bonds>  (7) 
7

>  <r_i_docking_score>  (7) 
-3.30396

>  <r_i_glide_ligand_efficiency>  (7) 
-0.10012

>  <r_i_glide_ligand_efficiency_sa>  (7) 
-0.321138

>  <r_i_glide_ligand_efficiency_ln>  (7) 
-0.734783

>  <r_i_glide_gscore>  (7) 
-3.30396

>  <r_i_glide_lipo>  (7) 
-0.54138

>  <r_i_glide_hbond>  (7) 
-0.113054

>  <r_i_glide_metal>  (7) 
-0

>  <r_i_glide_rewards>  (7) 
-0.247248

>  <r_i_glide_evdw>  (7) 
-29.2827

>  <r_i_glide_ecoul>  (7) 
-9.12226

>  <r_i_glide_erotb>  (7) 
0.536842

>  <r_i_glide_esite>  (7) 
-0.106643

>  <r_i_glide_emodel>  (7) 
-48.0991

>  <r_i_glide_energy>  (7) 
-38.405

>  <r_i_glide_einternal>  (7) 
2.3885

>  <r_i_glide_intrahb_reward>  (7) 
-0

>  <i_i_glide_confnum>  (7) 
6

>  <i_i_glide_posenum>  (7) 
14

>  <r_i_glide_eff_state_penalty>  (7) 
0

>  <ligand_id>  (7) 
1

>  <original_smiles>  (7) 
C=CC1(C)CC(OC(=O)CSc2nccn2C)C2C(=O)CCC3(CCC(C)C23C)C(C)C1O

>  <smiles>  (7) 
[H]OC1([H])C([H])(C([H])([H])[H])C23C([H])([H])C([H])([H])C(=O)C([H])(C([H])(OC(=O)C([H])([H])Sc4n(C([H])([H])[H])c([H])c([H])[n+]4[H])C([H])([H])C1(C([H])=C([H])[H])C([H])([H])[H])C2(C([H])([H])[H])C([H])(C([H])([H])[H])C([H])([H])C3([H])[H]

$$$$
1:1:1
     RDKit          3D

 72 75  0  0  1  0  0  0  0  0999 V2000
    6.6959  -10.7965    2.2206 C   0  0  0  0  0  0  0  0  0  0  0  0
    6.7275   -9.8839    3.2100 C   0  0  0  0  0  0  0  0  0  0  0  0
    5.6826   -8.8060    3.5426 C   0  0  1  0  0  0  0  0  0  0  0  0
    6.5183   -7.5209    3.7939 C   0  0  0  0  0  0  0  0  0  0  0  0
    4.7771   -8.5270    2.2850 C   0  0  0  0  0  0  0  0  0  0  0  0
    3.6698   -7.4514    2.4048 C   0  0  1  0  0  0  0  0  0  0  0  0
    3.6255   -6.7574    1.1485 O   0  0  0  0  0  0  0  0  0  0  0  0
    4.3395   -5.6259    0.9416 C   0  0  0  0  0  0  0  0  0  0  0  0
    5.1371   -5.1258    1.7363 O   0  0  0  0  0  0  0  0  0  0  0  0
    4.0630   -5.0084   -0.4268 C   0  0  0  0  0  0  0  0  0  0  0  0
    4.4773   -3.2371   -0.5487 S   0  0  0  0  0  0  0  0  0  0  0  0
    3.7049   -2.6599   -2.0490 C   0  0  0  0  0  0  0  0  0  0  0  0
    2.9091   -3.3697   -2.8084 N   0  0  0  0  0  0  0  0  0  0  0  0
    2.5163   -2.6670   -3.9031 C   0  0  0  0  0  0  0  0  0  0  0  0
    3.1056   -1.4379   -3.7908 C   0  0  0  0  0  0  0  0  0  0  0  0
    3.8294   -1.4773   -2.6261 N   0  0  0  0  0  0  0  0  0  0  0  0
    4.6395   -0.3861   -2.0774 C   0  0  0  0  0  0  0  0  0  0  0  0
    2.1753   -7.8665    2.7030 C   0  0  2  0  0  0  0  0  0  0  0  0
    1.4888   -6.5615    3.1093 C   0  0  0  0  0  0  0  0  0  0  0  0
    0.7436   -5.9456    2.3365 O   0  0  0  0  0  0  0  0  0  0  0  0
    1.7899   -6.0382    4.5070 C   0  0  0  0  0  0  0  0  0  0  0  0
    1.6246   -7.1531    5.5558 C   0  0  0  0  0  0  0  0  0  0  0  0
    2.3369   -8.5213    5.2292 C   0  0  1  0  0  0  0  0  0  0  0  0
    1.6604   -9.5779    6.1279 C   0  0  0  0  0  0  0  0  0  0  0  0
    0.2945   -9.8689    5.4907 C   0  0  0  0  0  0  0  0  0  0  0  0
    0.3659   -9.4083    4.0172 C   0  0  1  0  0  0  0  0  0  0  0  0
   -0.8183   -8.4940    3.6177 C   0  0  0  0  0  0  0  0  0  0  0  0
    1.8857   -8.9852    3.7871 C   0  0  1  0  0  0  0  0  0  0  0  0
    2.4204  -10.3665    3.2881 C   0  0  0  0  0  0  0  0  0  0  0  0
    3.8864   -8.3181    5.5513 C   0  0  1  0  0  0  0  0  0  0  0  0
    4.1531   -8.2675    7.0816 C   0  0  0  0  0  0  0  0  0  0  0  0
    5.0045   -9.2162    4.9141 C   0  0  1  0  0  0  0  0  0  0  0  0
    4.7580  -10.5936    5.1215 O   0  0  0  0  0  0  0  0  0  0  0  0
    5.8794  -10.8940    1.5205 H   0  0  0  0  0  0  0  0  0  0  0  0
    7.5155  -11.4913    2.1082 H   0  0  0  0  0  0  0  0  0  0  0  0
    7.5947   -9.8970    3.8536 H   0  0  0  0  0  0  0  0  0  0  0  0
    5.9124   -6.6632    4.0833 H   0  0  0  0  0  0  0  0  0  0  0  0
    7.0820   -7.2245    2.9074 H   0  0  0  0  0  0  0  0  0  0  0  0
    7.2531   -7.6595    4.5896 H   0  0  0  0  0  0  0  0  0  0  0  0
    5.4822   -8.1661    1.5339 H   0  0  0  0  0  0  0  0  0  0  0  0
    4.3869   -9.3983    1.7724 H   0  0  0  0  0  0  0  0  0  0  0  0
    3.9884   -6.7376    3.1569 H   0  0  0  0  0  0  0  0  0  0  0  0
    4.6293   -5.5566   -1.1819 H   0  0  0  0  0  0  0  0  0  0  0  0
    3.0013   -5.1326   -0.6527 H   0  0  0  0  0  0  0  0  0  0  0  0
    1.8578   -3.0831   -4.6596 H   0  0  0  0  0  0  0  0  0  0  0  0
    3.0508   -0.5608   -4.4343 H   0  0  0  0  0  0  0  0  0  0  0  0
    4.4716    0.5056   -2.6906 H   0  0  0  0  0  0  0  0  0  0  0  0
    5.6894   -0.6698   -2.1078 H   0  0  0  0  0  0  0  0  0  0  0  0
    4.3344   -0.2122   -1.0455 H   0  0  0  0  0  0  0  0  0  0  0  0
    1.7323   -8.2091    1.7706 H   0  0  0  0  0  0  0  0  0  0  0  0
    2.8014   -5.6363    4.5318 H   0  0  0  0  0  0  0  0  0  0  0  0
    1.1292   -5.2045    4.7377 H   0  0  0  0  0  0  0  0  0  0  0  0
    1.9465   -6.7502    6.5123 H   0  0  0  0  0  0  0  0  0  0  0  0
    0.5599   -7.2922    5.7230 H   0  0  0  0  0  0  0  0  0  0  0  0
    2.2418  -10.4981    6.1565 H   0  0  0  0  0  0  0  0  0  0  0  0
    1.5365   -9.2535    7.1607 H   0  0  0  0  0  0  0  0  0  0  0  0
    0.0935  -10.9386    5.5633 H   0  0  0  0  0  0  0  0  0  0  0  0
   -0.5108   -9.3673    6.0268 H   0  0  0  0  0  0  0  0  0  0  0  0
    0.1297  -10.2917    3.4220 H   0  0  0  0  0  0  0  0  0  0  0  0
   -0.8778   -7.5626    4.1748 H   0  0  0  0  0  0  0  0  0  0  0  0
   -1.7649   -9.0097    3.7916 H   0  0  0  0  0  0  0  0  0  0  0  0
   -0.7899   -8.2575    2.5538 H   0  0  0  0  0  0  0  0  0  0  0  0
    2.1267  -11.1968    3.9342 H   0  0  0  0  0  0  0  0  0  0  0  0
    3.4810  -10.4762    3.1716 H   0  0  0  0  0  0  0  0  0  0  0  0
    2.0175  -10.5913    2.2993 H   0  0  0  0  0  0  0  0  0  0  0  0
    4.1252   -7.3120    5.2253 H   0  0  0  0  0  0  0  0  0  0  0  0
    4.0664   -9.2554    7.5377 H   0  0  0  0  0  0  0  0  0  0  0  0
    3.4835   -7.6047    7.6259 H   0  0  0  0  0  0  0  0  0  0  0  0
    5.1596   -7.9040    7.2949 H   0  0  0  0  0  0  0  0  0  0  0  0
    5.8503   -9.1175    5.5934 H   0  0  0  0  0  0  0  0  0  0  0  0
    3.9534  -10.8284    4.7031 H   0  0  0  0  0  0  0  0  0  0  0  0
    2.6609   -4.3656   -2.6475 H   0  0  0  0  0  0  0  0  0  0  0  0
  1  2  2  0
  1 34  1  0
  1 35  1  0
  2  3  1  0
  2 36  1  0
  3 32  1  0
  3  4  1  1
  3  5  1  0
  4 37  1  0
  4 38  1  0
  4 39  1  0
  5  6  1  0
  5 40  1  0
  5 41  1  0
  6  7  1  0
  6 18  1  0
  6 42  1  1
  7  8  1  0
  8  9  2  0
  8 10  1  0
 10 11  1  0
 10 43  1  0
 10 44  1  0
 11 12  1  0
 12 16  1  0
 12 13  2  0
 13 14  1  0
 13 72  1  0
 14 15  2  0
 14 45  1  0
 15 16  1  0
 15 46  1  0
 16 17  1  0
 17 47  1  0
 17 48  1  0
 17 49  1  0
 18 28  1  0
 18 19  1  0
 18 50  1  6
 19 20  2  0
 19 21  1  0
 21 22  1  0
 21 51  1  0
 21 52  1  0
 23 22  1  1
 22 53  1  0
 22 54  1  0
 23 28  1  0
 23 24  1  0
 23 30  1  0
 24 25  1  0
 24 55  1  0
 24 56  1  0
 25 26  1  0
 25 57  1  0
 25 58  1  0
 26 27  1  0
 26 28  1  0
 26 59  1  6
 27 60  1  0
 27 61  1  0
 27 62  1  0
 28 29  1  6
 29 63  1  0
 29 64  1  0
 29 65  1  0
 30 31  1  0
 30 32  1  0
 30 66  1  6
 31 67  1  0
 31 68  1  0
 31 69  1  0
 32 33  1  0
 32 70  1  1
 33 71  1  0
M  CHG  1  13   1
M  END
>  <i_m_ct_stereo_status>  (8) 
1

>  <s_m_source_file>  (8) 
/var/tmp/pbs.5076255.sched01/tmpoa2zap1w/0_chicbso.sdf

>  <i_m_source_file_index>  (8) 
3

>  <i_lp_mmshare_version>  (8) 
48012

>  <i_f3d_flags>  (8) 
0

>  <s_epik_input>  (8) 
W0NIMl0xW0NIMl1bQ0BASF0oW0NIM10pW0NAQF0oW0NAXTEyMykoW0NIM10pW0NAQEhdKEMoPU8pW0NIMl1bQ0gyXTIpW0NAQEhdKFtDSDJdW0NAXShbQ0gzXSkoW0NIXT1bQ0gyXSlbQ0BIXShbT0hdKVtDQEBIXTNbQ0gzXSlPQyg9TylbQ0gyXVNjNG5bY0hdW2NIXW40W0NIM10=

>  <s_epik_cmdline>  (8) 
J2VwaWtfcHl0aG9uJywgJy1waHQnLCAnMi4wJywgJy1waCcsICc3LjAnLCAnLXRuJywgJzgnLCAnLW1hJywgJzIwMCcsICctaW1hZScsICc8aW5maWxlLm1hZT4nLCAnLW9tYWUnLCAnPG91dGZpbGUubWFlPic=

>  <r_lp_tautomer_probability>  (8) 
1

>  <r_epik_Ionization_Penalty>  (8) 
0.840538

>  <r_epik_Ionization_Penalty_Charging>  (8) 
0

>  <r_epik_Ionization_Penalty_Neutral>  (8) 
0.840538

>  <r_epik_State_Penalty>  (8) 
0.875241

>  <r_epik_Charging_Adjusted_Penalty>  (8) 
0.875241

>  <i_epik_Tot_Q>  (8) 
1

>  <i_epik_Tot_abs_Q>  (8) 
1

>  <s_epik_Chemistry_Notes>  (8) 
This compound has an ester and may undergo hydrolysis at high or low pH.

>  <s_lp_Force_Field>  (8) 
OPLS3e

>  <r_lp_Energy>  (8) 
77.8806

>  <b_lp_Chiralities_Consistent>  (8) 
1

>  <s_lp_Variant>  (8) 
1:0-2

>  <s_i_glide_gridfile>  (8) 
pfpi4k_grid

>  <i_i_glide_lignum>  (8) 
3

>  <i_i_glide_rotatable_bonds>  (8) 
7

>  <r_i_docking_score>  (8) 
-3.17834

>  <r_i_glide_ligand_efficiency>  (8) 
-0.0963133

>  <r_i_glide_ligand_efficiency_sa>  (8) 
-0.308928

>  <r_i_glide_ligand_efficiency_ln>  (8) 
-0.706846

>  <r_i_glide_gscore>  (8) 
-3.17834

>  <r_i_glide_lipo>  (8) 
-0.392448

>  <r_i_glide_hbond>  (8) 
-0.0831521

>  <r_i_glide_metal>  (8) 
-0

>  <r_i_glide_rewards>  (8) 
-0.246893

>  <r_i_glide_evdw>  (8) 
-29.6047

>  <r_i_glide_ecoul>  (8) 
-9.54105

>  <r_i_glide_erotb>  (8) 
0.536842

>  <r_i_glide_esite>  (8) 
-0.081295

>  <r_i_glide_emodel>  (8) 
-48.9909

>  <r_i_glide_energy>  (8) 
-39.1457

>  <r_i_glide_einternal>  (8) 
1.24672

>  <r_i_glide_intrahb_reward>  (8) 
-0

>  <i_i_glide_confnum>  (8) 
6

>  <i_i_glide_posenum>  (8) 
38

>  <r_i_glide_eff_state_penalty>  (8) 
0

>  <ligand_id>  (8) 
1

>  <original_smiles>  (8) 
C=CC1(C)CC(OC(=O)CSc2nccn2C)C2C(=O)CCC3(CCC(C)C23C)C(C)C1O

>  <smiles>  (8) 
[H]OC1([H])C([H])(C([H])([H])[H])C23C([H])([H])C([H])([H])C(=O)C([H])(C([H])(OC(=O)C([H])([H])Sc4n(C([H])([H])[H])c([H])c([H])[n+]4[H])C([H])([H])C1(C([H])=C([H])[H])C([H])([H])[H])C2(C([H])([H])[H])C([H])(C([H])([H])[H])C([H])([H])C3([H])[H]

$$$$
1:1:2
     RDKit          3D

 72 75  0  0  1  0  0  0  0  0999 V2000
    6.3551  -12.0177    3.0725 C   0  0  0  0  0  0  0  0  0  0  0  0
    5.1194  -11.4871    3.1913 C   0  0  0  0  0  0  0  0  0  0  0  0
    4.7448  -10.0229    3.4830 C   0  0  1  0  0  0  0  0  0  0  0  0
    6.0458   -9.2103    3.7319 C   0  0  0  0  0  0  0  0  0  0  0  0
    4.0927   -9.4550    2.1651 C   0  0  0  0  0  0  0  0  0  0  0  0
    3.5857   -7.9885    2.1784 C   0  0  1  0  0  0  0  0  0  0  0  0
    3.8522   -7.3806    0.9097 O   0  0  0  0  0  0  0  0  0  0  0  0
    4.7973   -6.4246    0.7742 C   0  0  0  0  0  0  0  0  0  0  0  0
    5.6976   -6.1861    1.5882 O   0  0  0  0  0  0  0  0  0  0  0  0
    4.5993   -5.6014   -0.5025 C   0  0  0  0  0  0  0  0  0  0  0  0
    5.3425   -3.9388   -0.4215 S   0  0  0  0  0  0  0  0  0  0  0  0
    4.4128   -2.9620   -1.5613 C   0  0  0  0  0  0  0  0  0  0  0  0
    3.7795   -3.4112   -2.6497 N   0  0  0  0  0  0  0  0  0  0  0  0
    3.1395   -2.3806   -3.2886 C   0  0  0  0  0  0  0  0  0  0  0  0
    3.3957   -1.2609   -2.5554 C   0  0  0  0  0  0  0  0  0  0  0  0
    4.1746   -1.6450   -1.4885 N   0  0  0  0  0  0  0  0  0  0  0  0
    4.6775   -0.8208   -0.3720 C   0  0  0  0  0  0  0  0  0  0  0  0
    2.0742   -7.6601    2.4280 C   0  0  2  0  0  0  0  0  0  0  0  0
    2.0547   -6.1608    2.7566 C   0  0  0  0  0  0  0  0  0  0  0  0
    1.7164   -5.3234    1.9050 O   0  0  0  0  0  0  0  0  0  0  0  0
    2.5221   -5.7403    4.1437 C   0  0  0  0  0  0  0  0  0  0  0  0
    1.8420   -6.5906    5.2188 C   0  0  0  0  0  0  0  0  0  0  0  0
    1.8544   -8.1515    4.9707 C   0  0  1  0  0  0  0  0  0  0  0  0
    0.7453   -8.7281    5.8694 C   0  0  0  0  0  0  0  0  0  0  0  0
   -0.5489   -8.3125    5.1793 C   0  0  0  0  0  0  0  0  0  0  0  0
   -0.2639   -8.0963    3.6862 C   0  0  1  0  0  0  0  0  0  0  0  0
   -0.8879   -6.7760    3.2006 C   0  0  0  0  0  0  0  0  0  0  0  0
    1.2710   -8.4377    3.5260 C   0  0  1  0  0  0  0  0  0  0  0  0
    1.1086   -9.9285    3.1051 C   0  0  0  0  0  0  0  0  0  0  0  0
    3.3074   -8.6629    5.3689 C   0  0  1  0  0  0  0  0  0  0  0  0
    3.5120   -8.6554    6.9070 C   0  0  0  0  0  0  0  0  0  0  0  0
    3.9038  -10.0077    4.8252 C   0  0  1  0  0  0  0  0  0  0  0  0
    3.0308  -11.1133    5.0464 O   0  0  0  0  0  0  0  0  0  0  0  0
    7.2545  -11.4356    3.1699 H   0  0  0  0  0  0  0  0  0  0  0  0
    6.4828  -13.0764    2.8916 H   0  0  0  0  0  0  0  0  0  0  0  0
    4.2838  -12.1643    3.0607 H   0  0  0  0  0  0  0  0  0  0  0  0
    5.8812   -8.1559    3.9620 H   0  0  0  0  0  0  0  0  0  0  0  0
    6.6956   -9.2252    2.8585 H   0  0  0  0  0  0  0  0  0  0  0  0
    6.6146   -9.6198    4.5668 H   0  0  0  0  0  0  0  0  0  0  0  0
    4.8991   -9.4828    1.4244 H   0  0  0  0  0  0  0  0  0  0  0  0
    3.3907  -10.1411    1.6915 H   0  0  0  0  0  0  0  0  0  0  0  0
    4.1746   -7.4730    2.9243 H   0  0  0  0  0  0  0  0  0  0  0  0
    4.9674   -6.1363   -1.3732 H   0  0  0  0  0  0  0  0  0  0  0  0
    3.5338   -5.4602   -0.6048 H   0  0  0  0  0  0  0  0  0  0  0  0
    2.5342   -2.5017   -4.1677 H   0  0  0  0  0  0  0  0  0  0  0  0
    3.0289   -0.2363   -2.6949 H   0  0  0  0  0  0  0  0  0  0  0  0
    4.2243    0.1440   -0.4449 H   0  0  0  0  0  0  0  0  0  0  0  0
    5.7605   -0.7382   -0.4456 H   0  0  0  0  0  0  0  0  0  0  0  0
    4.3835   -1.2621    0.5776 H   0  0  0  0  0  0  0  0  0  0  0  0
    1.5379   -7.7933    1.4833 H   0  0  0  0  0  0  0  0  0  0  0  0
    3.6013   -5.8445    4.2006 H   0  0  0  0  0  0  0  0  0  0  0  0
    2.3106   -4.6872    4.2963 H   0  0  0  0  0  0  0  0  0  0  0  0
    2.2925   -6.3285    6.1630 H   0  0  0  0  0  0  0  0  0  0  0  0
    0.8324   -6.2000    5.3462 H   0  0  0  0  0  0  0  0  0  0  0  0
    0.8142   -9.8139    5.9499 H   0  0  0  0  0  0  0  0  0  0  0  0
    0.7550   -8.3188    6.8792 H   0  0  0  0  0  0  0  0  0  0  0  0
   -1.3371   -9.0300    5.3389 H   0  0  0  0  0  0  0  0  0  0  0  0
   -0.9046   -7.3842    5.6163 H   0  0  0  0  0  0  0  0  0  0  0  0
   -0.8740   -8.8173    3.1351 H   0  0  0  0  0  0  0  0  0  0  0  0
   -0.5212   -5.8922    3.7237 H   0  0  0  0  0  0  0  0  0  0  0  0
   -1.9686   -6.7905    3.3671 H   0  0  0  0  0  0  0  0  0  0  0  0
   -0.7317   -6.6542    2.1286 H   0  0  0  0  0  0  0  0  0  0  0  0
    0.4437  -10.4816    3.7783 H   0  0  0  0  0  0  0  0  0  0  0  0
    1.9979  -10.5242    3.0631 H   0  0  0  0  0  0  0  0  0  0  0  0
    0.6688   -9.9996    2.1077 H   0  0  0  0  0  0  0  0  0  0  0  0
    3.9820   -7.8945    5.0175 H   0  0  0  0  0  0  0  0  0  0  0  0
    2.9618   -9.4622    7.3924 H   0  0  0  0  0  0  0  0  0  0  0  0
    3.2111   -7.7276    7.3850 H   0  0  0  0  0  0  0  0  0  0  0  0
    4.5646   -8.7849    7.1524 H   0  0  0  0  0  0  0  0  0  0  0  0
    4.6804  -10.2721    5.5503 H   0  0  0  0  0  0  0  0  0  0  0  0
    2.8343  -11.2138    5.9689 H   0  0  0  0  0  0  0  0  0  0  0  0
    3.7332   -4.4009   -2.8926 H   0  0  0  0  0  0  0  0  0  0  0  0
  1  2  2  0
  1 34  1  0
  1 35  1  0
  2  3  1  0
  2 36  1  0
  3 32  1  0
  3  4  1  1
  3  5  1  0
  4 37  1  0
  4 38  1  0
  4 39  1  0
  5  6  1  0
  5 40  1  0
  5 41  1  0
  6  7  1  0
  6 18  1  0
  6 42  1  1
  7  8  1  0
  8  9  2  0
  8 10  1  0
 10 11  1  0
 10 43  1  0
 10 44  1  0
 11 12  1  0
 12 16  1  0
 12 13  2  0
 13 14  1  0
 13 72  1  0
 14 15  2  0
 14 45  1  0
 15 16  1  0
 15 46  1  0
 16 17  1  0
 17 47  1  0
 17 48  1  0
 17 49  1  0
 18 28  1  0
 18 19  1  0
 18 50  1  6
 19 20  2  0
 19 21  1  0
 21 22  1  0
 21 51  1  0
 21 52  1  0
 23 22  1  1
 22 53  1  0
 22 54  1  0
 23 28  1  0
 23 24  1  0
 23 30  1  0
 24 25  1  0
 24 55  1  0
 24 56  1  0
 25 26  1  0
 25 57  1  0
 25 58  1  0
 26 27  1  0
 26 28  1  0
 26 59  1  6
 27 60  1  0
 27 61  1  0
 27 62  1  0
 28 29  1  6
 29 63  1  0
 29 64  1  0
 29 65  1  0
 30 31  1  0
 30 32  1  0
 30 66  1  6
 31 67  1  0
 31 68  1  0
 31 69  1  0
 32 33  1  0
 32 70  1  1
 33 71  1  0
M  CHG  1  13   1
M  END
>  <i_m_ct_stereo_status>  (9) 
1

>  <s_m_source_file>  (9) 
/var/tmp/pbs.5076255.sched01/tmpoa2zap1w/0_chicbso.sdf

>  <i_m_source_file_index>  (9) 
3

>  <i_lp_mmshare_version>  (9) 
48012

>  <i_f3d_flags>  (9) 
0

>  <s_epik_input>  (9) 
W0NIMl0xW0NIMl1bQ0BASF0oW0NIM10pW0NAQF0oW0NAXTEyMykoW0NIM10pW0NAQEhdKEMoPU8pW0NIMl1bQ0gyXTIpW0NAQEhdKFtDSDJdW0NAXShbQ0gzXSkoW0NIXT1bQ0gyXSlbQ0BIXShbT0hdKVtDQEBIXTNbQ0gzXSlPQyg9TylbQ0gyXVNjNG5bY0hdW2NIXW40W0NIM10=

>  <s_epik_cmdline>  (9) 
J2VwaWtfcHl0aG9uJywgJy1waHQnLCAnMi4wJywgJy1waCcsICc3LjAnLCAnLXRuJywgJzgnLCAnLW1hJywgJzIwMCcsICctaW1hZScsICc8aW5maWxlLm1hZT4nLCAnLW9tYWUnLCAnPG91dGZpbGUubWFlPic=

>  <r_lp_tautomer_probability>  (9) 
1

>  <r_epik_Ionization_Penalty>  (9) 
0.840538

>  <r_epik_Ionization_Penalty_Charging>  (9) 
0

>  <r_epik_Ionization_Penalty_Neutral>  (9) 
0.840538

>  <r_epik_State_Penalty>  (9) 
0.875241

>  <r_epik_Charging_Adjusted_Penalty>  (9) 
0.875241

>  <i_epik_Tot_Q>  (9) 
1

>  <i_epik_Tot_abs_Q>  (9) 
1

>  <s_epik_Chemistry_Notes>  (9) 
This compound has an ester and may undergo hydrolysis at high or low pH.

>  <s_lp_Force_Field>  (9) 
OPLS3e

>  <r_lp_Energy>  (9) 
77.8806

>  <b_lp_Chiralities_Consistent>  (9) 
1

>  <s_lp_Variant>  (9) 
1:0-2

>  <s_i_glide_gridfile>  (9) 
pfpi4k_grid

>  <i_i_glide_lignum>  (9) 
3

>  <i_i_glide_rotatable_bonds>  (9) 
7

>  <r_i_docking_score>  (9) 
-2.92524

>  <r_i_glide_ligand_efficiency>  (9) 
-0.0886438

>  <r_i_glide_ligand_efficiency_sa>  (9) 
-0.284328

>  <r_i_glide_ligand_efficiency_ln>  (9) 
-0.650559

>  <r_i_glide_gscore>  (9) 
-2.92524

>  <r_i_glide_lipo>  (9) 
-0.271532

>  <r_i_glide_hbond>  (9) 
-0.0366044

>  <r_i_glide_metal>  (9) 
-0

>  <r_i_glide_rewards>  (9) 
-0.334999

>  <r_i_glide_evdw>  (9) 
-29.7066

>  <r_i_glide_ecoul>  (9) 
-8.21023

>  <r_i_glide_erotb>  (9) 
0.536842

>  <r_i_glide_esite>  (9) 
-0.102088

>  <r_i_glide_emodel>  (9) 
-44.5776

>  <r_i_glide_energy>  (9) 
-37.9168

>  <r_i_glide_einternal>  (9) 
5.42849

>  <r_i_glide_intrahb_reward>  (9) 
-0

>  <i_i_glide_confnum>  (9) 
6

>  <i_i_glide_posenum>  (9) 
21

>  <r_i_glide_eff_state_penalty>  (9) 
0

>  <ligand_id>  (9) 
1

>  <original_smiles>  (9) 
C=CC1(C)CC(OC(=O)CSc2nccn2C)C2C(=O)CCC3(CCC(C)C23C)C(C)C1O

>  <smiles>  (9) 
[H]OC1([H])C([H])(C([H])([H])[H])C23C([H])([H])C([H])([H])C(=O)C([H])(C([H])(OC(=O)C([H])([H])Sc4n(C([H])([H])[H])c([H])c([H])[n+]4[H])C([H])([H])C1(C([H])=C([H])[H])C([H])([H])[H])C2(C([H])([H])[H])C([H])(C([H])([H])[H])C([H])([H])C3([H])[H]

$$$$
3:0:0
     RDKit          3D

 38 42  0  0  1  0  0  0  0  0999 V2000
    1.6861  -10.2587    2.5048 O   0  0  0  0  0  0  0  0  0  0  0  0
    1.5670   -9.3717    3.5946 C   0  0  2  0  0  0  0  0  0  0  0  0
    0.1126   -8.9525    3.9315 C   0  0  2  0  0  0  0  0  0  0  0  0
   -0.9685   -9.2365    2.8931 C   0  0  0  0  0  0  0  0  0  0  0  0
   -1.8493   -8.0042    2.9822 C   0  0  0  0  0  0  0  0  0  0  0  0
   -0.9269   -6.9469    3.1757 O   0  0  0  0  0  0  0  0  0  0  0  0
    0.0860   -7.4163    4.0630 C   0  0  2  0  0  0  0  0  0  0  0  0
    1.4458   -6.9278    3.6272 C   0  0  2  0  0  0  0  0  0  0  0  0
    1.9561   -7.1383    2.2199 C   0  0  1  0  0  0  0  0  0  0  0  0
    2.9786   -6.2267    1.6251 C   0  0  0  0  0  0  0  0  0  0  0  0
    3.0850   -4.8665    1.6949 C   0  0  0  0  0  0  0  0  0  0  0  0
    4.2172   -4.5851    0.9525 N   0  0  0  0  0  0  0  0  0  0  0  0
    4.8180   -3.3251    0.7144 C   0  0  0  0  0  0  0  0  0  0  0  0
    6.2116   -3.2168    0.4864 C   0  0  0  0  0  0  0  0  0  0  0  0
    6.7977   -1.9570    0.2653 C   0  0  0  0  0  0  0  0  0  0  0  0
    5.9983   -0.8000    0.2695 C   0  0  0  0  0  0  0  0  0  0  0  0
    4.6151   -0.8974    0.4933 C   0  0  0  0  0  0  0  0  0  0  0  0
    4.0241   -2.1543    0.7201 C   0  0  0  0  0  0  0  0  0  0  0  0
    4.7637   -5.7267    0.4594 N   0  0  0  0  0  0  0  0  0  0  0  0
    4.0251   -6.7127    0.8521 N   0  0  0  0  0  0  0  0  0  0  0  0
    2.3316   -8.1003    3.3236 C   0  0  2  0  0  0  0  0  0  0  0  0
    1.2658   -9.8857    1.7432 H   0  0  0  0  0  0  0  0  0  0  0  0
    2.0197   -9.8571    4.4618 H   0  0  0  0  0  0  0  0  0  0  0  0
   -0.1827   -9.4027    4.8806 H   0  0  0  0  0  0  0  0  0  0  0  0
   -0.5776   -9.3221    1.8825 H   0  0  0  0  0  0  0  0  0  0  0  0
   -1.5103  -10.1525    3.1203 H   0  0  0  0  0  0  0  0  0  0  0  0
   -2.4477   -7.8626    2.0802 H   0  0  0  0  0  0  0  0  0  0  0  0
   -2.5249   -8.0706    3.8333 H   0  0  0  0  0  0  0  0  0  0  0  0
   -0.1185   -7.1164    5.0933 H   0  0  0  0  0  0  0  0  0  0  0  0
    1.8567   -6.0882    4.1839 H   0  0  0  0  0  0  0  0  0  0  0  0
    1.2578   -7.4922    1.4650 H   0  0  0  0  0  0  0  0  0  0  0  0
    2.4897   -4.1245    2.2011 H   0  0  0  0  0  0  0  0  0  0  0  0
    6.8420   -4.0963    0.4934 H   0  0  0  0  0  0  0  0  0  0  0  0
    7.8632   -1.8807    0.1014 H   0  0  0  0  0  0  0  0  0  0  0  0
    6.4425    0.1641    0.0990 H   0  0  0  0  0  0  0  0  0  0  0  0
    4.0010   -0.0079    0.4849 H   0  0  0  0  0  0  0  0  0  0  0  0
    2.9571   -2.2120    0.8830 H   0  0  0  0  0  0  0  0  0  0  0  0
    3.3651   -8.0745    3.6613 H   0  0  0  0  0  0  0  0  0  0  0  0
  1  2  1  0
  1 22  1  0
  2 21  1  0
  2  3  1  0
  2 23  1  1
  3  7  1  0
  3  4  1  0
  3 24  1  1
  4  5  1  0
  4 25  1  0
  4 26  1  0
  5  6  1  0
  5 27  1  0
  5 28  1  0
  6  7  1  0
  7  8  1  0
  7 29  1  1
  8 21  1  0
  8  9  1  0
  8 30  1  1
  9 10  1  0
  9 21  1  0
  9 31  1  6
 10 20  1  0
 10 11  2  0
 11 12  1  0
 11 32  1  0
 12 13  1  0
 12 19  1  0
 13 18  1  0
 13 14  2  0
 14 15  1  0
 14 33  1  0
 15 16  2  0
 15 34  1  0
 16 17  1  0
 16 35  1  0
 17 18  2  0
 17 36  1  0
 18 37  1  0
 19 20  2  0
 21 38  1  1
M  END
>  <i_m_ct_stereo_status>  (10) 
1

>  <s_m_source_file>  (10) 
/var/tmp/pbs.5076255.sched01/tmpoa2zap1w/0_chicbso.sdf

>  <i_m_source_file_index>  (10) 
5

>  <i_lp_mmshare_version>  (10) 
48012

>  <i_f3d_flags>  (10) 
0

>  <s_epik_input>  (10) 
W0NIMl0xW0NIMl1PW0NAQEhdKFtDQEBIXTEyKVtDQEhdM1tDQEBIXShbQ0BASF0yW09IXSlbQ0BASF0zYzRbY0hdbihubjQpLWM1W2NIXVtjSF1bY0hdW2NIXVtjSF01

>  <s_epik_cmdline>  (10) 
J2VwaWtfcHl0aG9uJywgJy1waHQnLCAnMi4wJywgJy1waCcsICc3LjAnLCAnLXRuJywgJzgnLCAnLW1hJywgJzIwMCcsICctaW1hZScsICc8aW5maWxlLm1hZT4nLCAnLW9tYWUnLCAnPG91dGZpbGUubWFlPic=

>  <r_lp_tautomer_probability>  (10) 
1

>  <r_epik_Ionization_Penalty>  (10) 
7.37223e-06

>  <r_epik_Ionization_Penalty_Charging>  (10) 
0

>  <r_epik_Ionization_Penalty_Neutral>  (10) 
7.37223e-06

>  <r_epik_State_Penalty>  (10) 
-0

>  <r_epik_Charging_Adjusted_Penalty>  (10) 
0

>  <i_epik_Tot_Q>  (10) 
0

>  <i_epik_Tot_abs_Q>  (10) 
0

>  <s_lp_Force_Field>  (10) 
OPLS3e

>  <r_lp_Energy>  (10) 
24.8398

>  <b_lp_Chiralities_Consistent>  (10) 
1

>  <s_lp_Variant>  (10) 
3:0-1

>  <s_i_glide_gridfile>  (10) 
pfpi4k_grid

>  <i_i_glide_lignum>  (10) 
5

>  <i_i_glide_rotatable_bonds>  (10) 
3

>  <r_i_docking_score>  (10) 
-3.33654

>  <r_i_glide_ligand_efficiency>  (10) 
-0.158883

>  <r_i_glide_ligand_efficiency_sa>  (10) 
-0.438346

>  <r_i_glide_ligand_efficiency_ln>  (10) 
-0.824953

>  <r_i_glide_gscore>  (10) 
-3.33654

>  <r_i_glide_lipo>  (10) 
-0.284779

>  <r_i_glide_hbond>  (10) 
-0.182909

>  <r_i_glide_metal>  (10) 
-0

>  <r_i_glide_rewards>  (10) 
-1.51436

>  <r_i_glide_evdw>  (10) 
-25.2491

>  <r_i_glide_ecoul>  (10) 
-3.6214

>  <r_i_glide_erotb>  (10) 
0.451174

>  <r_i_glide_esite>  (10) 
0

>  <r_i_glide_emodel>  (10) 
-35.1657

>  <r_i_glide_energy>  (10) 
-28.8705

>  <r_i_glide_einternal>  (10) 
0.502789

>  <r_i_glide_intrahb_reward>  (10) 
-0

>  <i_i_glide_confnum>  (10) 
3

>  <i_i_glide_posenum>  (10) 
2

>  <r_i_glide_eff_state_penalty>  (10) 
0

>  <ligand_id>  (10) 
3

>  <original_smiles>  (10) 
OC1C2CCOC2C2C(c3cn(-c4ccccc4)nn3)C12

>  <smiles>  (10) 
[H]OC1([H])C2([H])C([H])([H])C([H])([H])OC2([H])C2([H])C([H])(c3nnn(-c4c([H])c([H])c([H])c([H])c4[H])c3[H])C12[H]

$$$$
3:0:1
     RDKit          3D

 38 42  0  0  1  0  0  0  0  0999 V2000
    1.7848  -10.2596    2.5064 O   0  0  0  0  0  0  0  0  0  0  0  0
    1.6227   -9.3934    3.6064 C   0  0  2  0  0  0  0  0  0  0  0  0
    0.1480   -9.0117    3.9287 C   0  0  2  0  0  0  0  0  0  0  0  0
   -0.9200   -9.3110    2.8806 C   0  0  0  0  0  0  0  0  0  0  0  0
   -1.8345   -8.1031    2.9798 C   0  0  0  0  0  0  0  0  0  0  0  0
   -0.9478   -7.0184    3.2001 O   0  0  0  0  0  0  0  0  0  0  0  0
    0.0752   -7.4779    4.0814 C   0  0  2  0  0  0  0  0  0  0  0  0
    1.4221   -6.9475    3.6589 C   0  0  2  0  0  0  0  0  0  0  0  0
    1.9506   -7.1335    2.2536 C   0  0  1  0  0  0  0  0  0  0  0  0
    2.9509   -6.1846    1.6723 C   0  0  0  0  0  0  0  0  0  0  0  0
    3.0422   -4.8308    1.8015 C   0  0  0  0  0  0  0  0  0  0  0  0
    4.1551   -4.5049    1.0506 N   0  0  0  0  0  0  0  0  0  0  0  0
    4.7266   -3.2271    0.8521 C   0  0  0  0  0  0  0  0  0  0  0  0
    3.8995   -2.0809    0.8869 C   0  0  0  0  0  0  0  0  0  0  0  0
    4.4516   -0.8006    0.6986 C   0  0  0  0  0  0  0  0  0  0  0  0
    5.8306   -0.6579    0.4838 C   0  0  0  0  0  0  0  0  0  0  0  0
    6.6665   -1.7901    0.4557 C   0  0  0  0  0  0  0  0  0  0  0  0
    6.1208   -3.0751    0.6368 C   0  0  0  0  0  0  0  0  0  0  0  0
    4.7107   -5.6143    0.4955 N   0  0  0  0  0  0  0  0  0  0  0  0
    3.9894   -6.6254    0.8599 N   0  0  0  0  0  0  0  0  0  0  0  0
    2.3472   -8.0932    3.3537 C   0  0  2  0  0  0  0  0  0  0  0  0
    2.6992  -10.4929    2.4107 H   0  0  0  0  0  0  0  0  0  0  0  0
    2.0730   -9.8695    4.4814 H   0  0  0  0  0  0  0  0  0  0  0  0
   -0.1476   -9.4809    4.8704 H   0  0  0  0  0  0  0  0  0  0  0  0
   -0.5106   -9.3738    1.8784 H   0  0  0  0  0  0  0  0  0  0  0  0
   -1.4396  -10.2458    3.0947 H   0  0  0  0  0  0  0  0  0  0  0  0
   -2.4331   -7.9640    2.0814 H   0  0  0  0  0  0  0  0  0  0  0  0
   -2.5116   -8.2023    3.8300 H   0  0  0  0  0  0  0  0  0  0  0  0
   -0.1407   -7.2007    5.1157 H   0  0  0  0  0  0  0  0  0  0  0  0
    1.8060   -6.1065    4.2283 H   0  0  0  0  0  0  0  0  0  0  0  0
    1.2651   -7.4951    1.4923 H   0  0  0  0  0  0  0  0  0  0  0  0
    2.4505   -4.1168    2.3525 H   0  0  0  0  0  0  0  0  0  0  0  0
    2.8337   -2.1743    1.0429 H   0  0  0  0  0  0  0  0  0  0  0  0
    3.8137    0.0709    0.7182 H   0  0  0  0  0  0  0  0  0  0  0  0
    6.2441    0.3245    0.3558 H   0  0  0  0  0  0  0  0  0  0  0  0
    7.7299   -1.6717    0.3092 H   0  0  0  0  0  0  0  0  0  0  0  0
    6.7768   -3.9351    0.6259 H   0  0  0  0  0  0  0  0  0  0  0  0
    3.3770   -8.0361    3.6939 H   0  0  0  0  0  0  0  0  0  0  0  0
  1  2  1  0
  1 22  1  0
  2 21  1  0
  2  3  1  0
  2 23  1  1
  3  7  1  0
  3  4  1  0
  3 24  1  1
  4  5  1  0
  4 25  1  0
  4 26  1  0
  5  6  1  0
  5 27  1  0
  5 28  1  0
  6  7  1  0
  7  8  1  0
  7 29  1  1
  8 21  1  0
  8  9  1  0
  8 30  1  1
  9 10  1  0
  9 21  1  0
  9 31  1  6
 10 20  1  0
 10 11  2  0
 11 12  1  0
 11 32  1  0
 12 13  1  0
 12 19  1  0
 13 18  1  0
 13 14  2  0
 14 15  1  0
 14 33  1  0
 15 16  2  0
 15 34  1  0
 16 17  1  0
 16 35  1  0
 17 18  2  0
 17 36  1  0
 18 37  1  0
 19 20  2  0
 21 38  1  1
M  END
>  <i_m_ct_stereo_status>  (11) 
1

>  <s_m_source_file>  (11) 
/var/tmp/pbs.5076255.sched01/tmpoa2zap1w/0_chicbso.sdf

>  <i_m_source_file_index>  (11) 
5

>  <i_lp_mmshare_version>  (11) 
48012

>  <i_f3d_flags>  (11) 
0

>  <s_epik_input>  (11) 
W0NIMl0xW0NIMl1PW0NAQEhdKFtDQEBIXTEyKVtDQEhdM1tDQEBIXShbQ0BASF0yW09IXSlbQ0BASF0zYzRbY0hdbihubjQpLWM1W2NIXVtjSF1bY0hdW2NIXVtjSF01

>  <s_epik_cmdline>  (11) 
J2VwaWtfcHl0aG9uJywgJy1waHQnLCAnMi4wJywgJy1waCcsICc3LjAnLCAnLXRuJywgJzgnLCAnLW1hJywgJzIwMCcsICctaW1hZScsICc8aW5maWxlLm1hZT4nLCAnLW9tYWUnLCAnPG91dGZpbGUubWFlPic=

>  <r_lp_tautomer_probability>  (11) 
1

>  <r_epik_Ionization_Penalty>  (11) 
7.37223e-06

>  <r_epik_Ionization_Penalty_Charging>  (11) 
0

>  <r_epik_Ionization_Penalty_Neutral>  (11) 
7.37223e-06

>  <r_epik_State_Penalty>  (11) 
-0

>  <r_epik_Charging_Adjusted_Penalty>  (11) 
0

>  <i_epik_Tot_Q>  (11) 
0

>  <i_epik_Tot_abs_Q>  (11) 
0

>  <s_lp_Force_Field>  (11) 
OPLS3e

>  <r_lp_Energy>  (11) 
24.8398

>  <b_lp_Chiralities_Consistent>  (11) 
1

>  <s_lp_Variant>  (11) 
3:0-1

>  <s_i_glide_gridfile>  (11) 
pfpi4k_grid

>  <i_i_glide_lignum>  (11) 
5

>  <i_i_glide_rotatable_bonds>  (11) 
3

>  <r_i_docking_score>  (11) 
-3.21496

>  <r_i_glide_ligand_efficiency>  (11) 
-0.153093

>  <r_i_glide_ligand_efficiency_sa>  (11) 
-0.422373

>  <r_i_glide_ligand_efficiency_ln>  (11) 
-0.794892

>  <r_i_glide_gscore>  (11) 
-3.21496

>  <r_i_glide_lipo>  (11) 
-0.34397

>  <r_i_glide_hbond>  (11) 
-0.149389

>  <r_i_glide_metal>  (11) 
-0

>  <r_i_glide_rewards>  (11) 
-1.5092

>  <r_i_glide_evdw>  (11) 
-25.5444

>  <r_i_glide_ecoul>  (11) 
-2.57567

>  <r_i_glide_erotb>  (11) 
0.451174

>  <r_i_glide_esite>  (11) 
0

>  <r_i_glide_emodel>  (11) 
-34.0033

>  <r_i_glide_energy>  (11) 
-28.1201

>  <r_i_glide_einternal>  (11) 
0.811683

>  <r_i_glide_intrahb_reward>  (11) 
-0

>  <i_i_glide_confnum>  (11) 
5

>  <i_i_glide_posenum>  (11) 
18

>  <r_i_glide_eff_state_penalty>  (11) 
0

>  <ligand_id>  (11) 
3

>  <original_smiles>  (11) 
OC1C2CCOC2C2C(c3cn(-c4ccccc4)nn3)C12

>  <smiles>  (11) 
[H]OC1([H])C2([H])C([H])([H])C([H])([H])OC2([H])C2([H])C([H])(c3nnn(-c4c([H])c([H])c([H])c([H])c4[H])c3[H])C12[H]

$$$$
3:0:2
     RDKit          3D

 38 42  0  0  1  0  0  0  0  0999 V2000
    1.8692  -10.1986    2.7858 O   0  0  0  0  0  0  0  0  0  0  0  0
    1.6125   -9.1331    3.6768 C   0  0  2  0  0  0  0  0  0  0  0  0
    0.1150   -8.7745    3.8658 C   0  0  2  0  0  0  0  0  0  0  0  0
   -0.8833   -9.3579    2.8743 C   0  0  0  0  0  0  0  0  0  0  0  0
   -1.8552   -8.2125    2.6649 C   0  0  0  0  0  0  0  0  0  0  0  0
   -1.0351   -7.0542    2.6768 O   0  0  0  0  0  0  0  0  0  0  0  0
   -0.0363   -7.2515    3.6735 C   0  0  2  0  0  0  0  0  0  0  0  0
    1.3004   -6.7493    3.1904 C   0  0  2  0  0  0  0  0  0  0  0  0
    1.9001   -7.2052    1.8787 C   0  0  1  0  0  0  0  0  0  0  0  0
    2.8820   -6.3437    1.1578 C   0  0  0  0  0  0  0  0  0  0  0  0
    2.7284   -5.0908    0.6421 C   0  0  0  0  0  0  0  0  0  0  0  0
    3.9546   -4.8132    0.0710 N   0  0  0  0  0  0  0  0  0  0  0  0
    4.3679   -3.6351   -0.6043 C   0  0  0  0  0  0  0  0  0  0  0  0
    5.7276   -3.4352   -0.9510 C   0  0  0  0  0  0  0  0  0  0  0  0
    6.1265   -2.2599   -1.6094 C   0  0  0  0  0  0  0  0  0  0  0  0
    5.1769   -1.2659   -1.9185 C   0  0  0  0  0  0  0  0  0  0  0  0
    3.8282   -1.4585   -1.5895 C   0  0  0  0  0  0  0  0  0  0  0  0
    3.4239   -2.6348   -0.9343 C   0  0  0  0  0  0  0  0  0  0  0  0
    4.8022   -5.8627    0.2280 N   0  0  0  0  0  0  0  0  0  0  0  0
    4.1659   -6.7882    0.8668 N   0  0  0  0  0  0  0  0  0  0  0  0
    2.2849   -7.8772    3.1786 C   0  0  2  0  0  0  0  0  0  0  0  0
    1.5147  -11.0003    3.1395 H   0  0  0  0  0  0  0  0  0  0  0  0
    2.0515   -9.3887    4.6416 H   0  0  0  0  0  0  0  0  0  0  0  0
   -0.2006   -9.0451    4.8725 H   0  0  0  0  0  0  0  0  0  0  0  0
   -0.4289   -9.6140    1.9236 H   0  0  0  0  0  0  0  0  0  0  0  0
   -1.3730  -10.2477    3.2668 H   0  0  0  0  0  0  0  0  0  0  0  0
   -2.4049   -8.3152    1.7299 H   0  0  0  0  0  0  0  0  0  0  0  0
   -2.5704   -8.1580    3.4870 H   0  0  0  0  0  0  0  0  0  0  0  0
   -0.3139   -6.7668    4.6109 H   0  0  0  0  0  0  0  0  0  0  0  0
    1.6193   -5.7813    3.5687 H   0  0  0  0  0  0  0  0  0  0  0  0
    1.2710   -7.7621    1.1880 H   0  0  0  0  0  0  0  0  0  0  0  0
    1.8933   -4.4122    0.6334 H   0  0  0  0  0  0  0  0  0  0  0  0
    6.4802   -4.1757   -0.7177 H   0  0  0  0  0  0  0  0  0  0  0  0
    7.1663   -2.1459   -1.8762 H   0  0  0  0  0  0  0  0  0  0  0  0
    5.4551   -0.3505   -2.4067 H   0  0  0  0  0  0  0  0  0  0  0  0
    3.0959   -0.7039   -1.8361 H   0  0  0  0  0  0  0  0  0  0  0  0
    2.3753   -2.7382   -0.6975 H   0  0  0  0  0  0  0  0  0  0  0  0
    3.2962   -7.6968    3.5325 H   0  0  0  0  0  0  0  0  0  0  0  0
  1  2  1  0
  1 22  1  0
  2 21  1  0
  2  3  1  0
  2 23  1  1
  3  7  1  0
  3  4  1  0
  3 24  1  1
  4  5  1  0
  4 25  1  0
  4 26  1  0
  5  6  1  0
  5 27  1  0
  5 28  1  0
  6  7  1  0
  7  8  1  0
  7 29  1  1
  8 21  1  0
  8  9  1  0
  8 30  1  1
  9 10  1  0
  9 21  1  0
  9 31  1  6
 10 20  1  0
 10 11  2  0
 11 12  1  0
 11 32  1  0
 12 13  1  0
 12 19  1  0
 13 18  1  0
 13 14  2  0
 14 15  1  0
 14 33  1  0
 15 16  2  0
 15 34  1  0
 16 17  1  0
 16 35  1  0
 17 18  2  0
 17 36  1  0
 18 37  1  0
 19 20  2  0
 21 38  1  1
M  END
>  <i_m_ct_stereo_status>  (12) 
1

>  <s_m_source_file>  (12) 
/var/tmp/pbs.5076255.sched01/tmpoa2zap1w/0_chicbso.sdf

>  <i_m_source_file_index>  (12) 
5

>  <i_lp_mmshare_version>  (12) 
48012

>  <i_f3d_flags>  (12) 
0

>  <s_epik_input>  (12) 
W0NIMl0xW0NIMl1PW0NAQEhdKFtDQEBIXTEyKVtDQEhdM1tDQEBIXShbQ0BASF0yW09IXSlbQ0BASF0zYzRbY0hdbihubjQpLWM1W2NIXVtjSF1bY0hdW2NIXVtjSF01

>  <s_epik_cmdline>  (12) 
J2VwaWtfcHl0aG9uJywgJy1waHQnLCAnMi4wJywgJy1waCcsICc3LjAnLCAnLXRuJywgJzgnLCAnLW1hJywgJzIwMCcsICctaW1hZScsICc8aW5maWxlLm1hZT4nLCAnLW9tYWUnLCAnPG91dGZpbGUubWFlPic=

>  <r_lp_tautomer_probability>  (12) 
1

>  <r_epik_Ionization_Penalty>  (12) 
7.37223e-06

>  <r_epik_Ionization_Penalty_Charging>  (12) 
0

>  <r_epik_Ionization_Penalty_Neutral>  (12) 
7.37223e-06

>  <r_epik_State_Penalty>  (12) 
-0

>  <r_epik_Charging_Adjusted_Penalty>  (12) 
0

>  <i_epik_Tot_Q>  (12) 
0

>  <i_epik_Tot_abs_Q>  (12) 
0

>  <s_lp_Force_Field>  (12) 
OPLS3e

>  <r_lp_Energy>  (12) 
24.8398

>  <b_lp_Chiralities_Consistent>  (12) 
1

>  <s_lp_Variant>  (12) 
3:0-1

>  <s_i_glide_gridfile>  (12) 
pfpi4k_grid

>  <i_i_glide_lignum>  (12) 
5

>  <i_i_glide_rotatable_bonds>  (12) 
3

>  <r_i_docking_score>  (12) 
-3.05574

>  <r_i_glide_ligand_efficiency>  (12) 
-0.145512

>  <r_i_glide_ligand_efficiency_sa>  (12) 
-0.401455

>  <r_i_glide_ligand_efficiency_ln>  (12) 
-0.755526

>  <r_i_glide_gscore>  (12) 
-3.05574

>  <r_i_glide_lipo>  (12) 
-0.143484

>  <r_i_glide_hbond>  (12) 
-0.16

>  <r_i_glide_metal>  (12) 
-0

>  <r_i_glide_rewards>  (12) 
-1.47733

>  <r_i_glide_evdw>  (12) 
-27.6381

>  <r_i_glide_ecoul>  (12) 
-2.22154

>  <r_i_glide_erotb>  (12) 
0.451174

>  <r_i_glide_esite>  (12) 
-0.0109684

>  <r_i_glide_emodel>  (12) 
-35.3219

>  <r_i_glide_energy>  (12) 
-29.8596

>  <r_i_glide_einternal>  (12) 
0.856468

>  <r_i_glide_intrahb_reward>  (12) 
-0

>  <i_i_glide_confnum>  (12) 
3

>  <i_i_glide_posenum>  (12) 
9

>  <r_i_glide_eff_state_penalty>  (12) 
0

>  <ligand_id>  (12) 
3

>  <original_smiles>  (12) 
OC1C2CCOC2C2C(c3cn(-c4ccccc4)nn3)C12

>  <smiles>  (12) 
[H]OC1([H])C2([H])C([H])([H])C([H])([H])OC2([H])C2([H])C([H])(c3nnn(-c4c([H])c([H])c([H])c([H])c4[H])c3[H])C12[H]

$$$$
4:0:0
     RDKit          3D

 49 53  0  0  1  0  0  0  0  0999 V2000
    5.5209   -6.3248    0.8439 C   0  0  0  0  0  0  0  0  0  0  0  0
    6.1940   -4.9561    0.8503 C   0  0  2  0  0  0  0  0  0  0  0  0
    6.0318   -4.3143    2.2298 C   0  0  0  0  0  0  0  0  0  0  0  0
    4.9797   -3.2232    2.3843 C   0  0  2  0  0  0  0  0  0  0  0  0
    3.5570   -3.5573    1.9422 C   0  0  1  0  0  0  0  0  0  0  0  0
    2.4803   -3.0606    2.7207 O   0  0  0  0  0  0  0  0  0  0  0  0
    3.8721   -2.8656    0.6304 C   0  0  2  0  0  0  0  0  0  0  0  0
    2.7829   -2.0974   -0.0716 C   0  0  0  0  0  0  0  0  0  0  0  0
    3.4057   -1.8662   -1.4362 C   0  0  2  0  0  0  0  0  0  0  0  0
    2.6923   -1.5319   -2.7269 C   0  0  1  0  0  0  0  0  0  0  0  0
    2.6327   -0.0743   -3.1624 C   0  0  0  0  0  0  0  0  0  0  0  0
    3.7326   -2.1396   -3.6607 C   0  0  0  0  0  0  0  0  0  0  0  0
    4.0839   -1.5906   -4.7059 O   0  0  0  0  0  0  0  0  0  0  0  0
    4.3021   -3.1734   -3.0271 O   0  0  0  0  0  0  0  0  0  0  0  0
    3.7305   -3.2961   -1.7550 C   0  0  1  0  0  0  0  0  0  0  0  0
    4.3599   -3.8188   -0.4684 C   0  0  1  0  0  0  0  0  0  0  0  0
    5.8574   -4.1021   -0.4091 C   0  0  1  0  0  0  0  0  0  0  0  0
    6.7220   -2.8247   -0.4298 C   0  0  1  0  0  0  0  0  0  0  0  0
    6.8149   -2.2758   -1.7318 O   0  0  0  0  0  0  0  0  0  0  0  0
    6.3174   -1.7697    0.6490 C   0  0  1  0  0  0  0  0  0  0  0  0
    6.3417   -0.5023    0.0752 O   0  0  0  0  0  0  0  0  0  0  0  0
    4.9780   -2.0315    1.3933 C   0  0  2  0  0  0  0  0  0  0  0  0
    4.5457   -0.7145    2.0846 C   0  0  0  0  0  0  0  0  0  0  0  0
    4.4621   -6.3046    1.1513 H   0  0  0  0  0  0  0  0  0  0  0  0
    6.0519   -6.9797    1.5438 H   0  0  0  0  0  0  0  0  0  0  0  0
    5.6188   -6.6095   -0.2041 H   0  0  0  0  0  0  0  0  0  0  0  0
    7.2609   -5.1619    0.7267 H   0  0  0  0  0  0  0  0  0  0  0  0
    5.9429   -5.0880    2.9922 H   0  0  0  0  0  0  0  0  0  0  0  0
    7.0045   -3.8637    2.3870 H   0  0  0  0  0  0  0  0  0  0  0  0
    4.9460   -2.8545    3.4231 H   0  0  0  0  0  0  0  0  0  0  0  0
    3.3791   -4.6343    1.7958 H   0  0  0  0  0  0  0  0  0  0  0  0
    2.5433   -2.1165    2.7195 H   0  0  0  0  0  0  0  0  0  0  0  0
    1.8299   -2.6653   -0.0844 H   0  0  0  0  0  0  0  0  0  0  0  0
    2.6276   -1.1248    0.3885 H   0  0  0  0  0  0  0  0  0  0  0  0
    4.3115   -1.2239   -1.3686 H   0  0  0  0  0  0  0  0  0  0  0  0
    1.7310   -2.0600   -2.7962 H   0  0  0  0  0  0  0  0  0  0  0  0
    2.2905    0.1103   -4.1803 H   0  0  0  0  0  0  0  0  0  0  0  0
    3.5739    0.4941   -3.0472 H   0  0  0  0  0  0  0  0  0  0  0  0
    1.8184    0.2217   -2.5149 H   0  0  0  0  0  0  0  0  0  0  0  0
    2.7798   -3.8306   -1.8844 H   0  0  0  0  0  0  0  0  0  0  0  0
    3.8500   -4.7725   -0.3515 H   0  0  0  0  0  0  0  0  0  0  0  0
    6.0412   -4.6581   -1.3159 H   0  0  0  0  0  0  0  0  0  0  0  0
    7.7444   -3.1002   -0.1917 H   0  0  0  0  0  0  0  0  0  0  0  0
    7.1127   -2.9594   -2.3002 H   0  0  0  0  0  0  0  0  0  0  0  0
    7.1127   -1.7700    1.4038 H   0  0  0  0  0  0  0  0  0  0  0  0
    6.6857    0.0855    0.7473 H   0  0  0  0  0  0  0  0  0  0  0  0
    4.3174    0.0574    1.3536 H   0  0  0  0  0  0  0  0  0  0  0  0
    5.3320   -0.3312    2.7440 H   0  0  0  0  0  0  0  0  0  0  0  0
    3.6450   -0.8265    2.6879 H   0  0  0  0  0  0  0  0  0  0  0  0
  1  2  1  0
  1 24  1  0
  1 25  1  0
  1 26  1  0
  2 17  1  0
  2  3  1  0
  2 27  1  6
  3  4  1  0
  3 28  1  0
  3 29  1  0
  4 22  1  0
  4  5  1  0
  4 30  1  1
  5  6  1  0
  5  7  1  0
  5 31  1  6
  6 32  1  0
  7 16  1  0
  7 22  1  0
  7  8  1  6
  8  9  1  0
  8 33  1  0
  8 34  1  0
  9 15  1  0
  9 10  1  0
  9 35  1  1
 10 11  1  0
 10 12  1  0
 10 36  1  1
 11 37  1  0
 11 38  1  0
 11 39  1  0
 12 13  2  0
 12 14  1  0
 14 15  1  0
 15 16  1  0
 15 40  1  6
 16 17  1  0
 16 41  1  1
 17 18  1  0
 17 42  1  6
 18 19  1  0
 18 20  1  0
 18 43  1  1
 19 44  1  0
 20 21  1  0
 20 22  1  0
 20 45  1  1
 21 46  1  0
 22 23  1  1
 23 47  1  0
 23 48  1  0
 23 49  1  0
M  END
>  <i_m_ct_stereo_status>  (13) 
1

>  <s_m_source_file>  (13) 
/var/tmp/pbs.5076255.sched01/tmpoa2zap1w/0_chicbso.sdf

>  <i_m_source_file_index>  (13) 
6

>  <i_lp_mmshare_version>  (13) 
48012

>  <i_f3d_flags>  (13) 
0

>  <s_epik_input>  (13) 
W09IXVtDQEhdMVtDQEBIXShbT0hdKVtDQF0yKFtDSDNdKVtDQEBIXShbQ0BIXTNbT0hdKVtDSDJdW0NAQEhdKFtDSDNdKVtDQEhdMVtDQEBIXShbQ0BdMjM0KVtDQEhdNVtDQEhdKFtDSDJdNClbQ0BASF0oW0NIM10pQyg9TylPNQ==

>  <s_epik_cmdline>  (13) 
J2VwaWtfcHl0aG9uJywgJy1waHQnLCAnMi4wJywgJy1waCcsICc3LjAnLCAnLXRuJywgJzgnLCAnLW1hJywgJzIwMCcsICctaW1hZScsICc8aW5maWxlLm1hZT4nLCAnLW9tYWUnLCAnPG91dGZpbGUubWFlPic=

>  <r_lp_tautomer_probability>  (13) 
1

>  <r_epik_Ionization_Penalty>  (13) 
1.12174e-06

>  <r_epik_Ionization_Penalty_Charging>  (13) 
0

>  <r_epik_Ionization_Penalty_Neutral>  (13) 
1.12174e-06

>  <r_epik_State_Penalty>  (13) 
-0

>  <r_epik_Charging_Adjusted_Penalty>  (13) 
0

>  <i_epik_Tot_Q>  (13) 
0

>  <i_epik_Tot_abs_Q>  (13) 
0

>  <s_epik_Chemistry_Notes>  (13) 
This compound has an ester and may undergo hydrolysis at high or low pH.

>  <s_lp_Force_Field>  (13) 
OPLS3e

>  <r_lp_Energy>  (13) 
67.4123

>  <b_lp_Chiralities_Consistent>  (13) 
1

>  <s_lp_Variant>  (13) 
4:0-1

>  <s_i_glide_gridfile>  (13) 
pfpi4k_grid

>  <i_i_glide_lignum>  (13) 
6

>  <i_i_glide_rotatable_bonds>  (13) 
3

>  <r_i_docking_score>  (13) 
-3.97897

>  <r_i_glide_ligand_efficiency>  (13) 
-0.172999

>  <r_i_glide_ligand_efficiency_sa>  (13) 
-0.491986

>  <r_i_glide_ligand_efficiency_ln>  (13) 
-0.962152

>  <r_i_glide_gscore>  (13) 
-3.97897

>  <r_i_glide_lipo>  (13) 
-0.554034

>  <r_i_glide_hbond>  (13) 
-0.304

>  <r_i_glide_metal>  (13) 
-0

>  <r_i_glide_rewards>  (13) 
-1.49502

>  <r_i_glide_evdw>  (13) 
-4.11221

>  <r_i_glide_ecoul>  (13) 
-9.46871

>  <r_i_glide_erotb>  (13) 
0

>  <r_i_glide_esite>  (13) 
0

>  <r_i_glide_emodel>  (13) 
-15.5079

>  <r_i_glide_energy>  (13) 
-13.5809

>  <r_i_glide_einternal>  (13) 
1.16214

>  <r_i_glide_intrahb_reward>  (13) 
-0

>  <i_i_glide_confnum>  (13) 
1

>  <i_i_glide_posenum>  (13) 
1

>  <r_i_glide_eff_state_penalty>  (13) 
0

>  <ligand_id>  (13) 
4

>  <original_smiles>  (13) 
CC1CC2C(O)C34CC5C(C)C(=O)OC5C3C1C(O)C(O)C24C

>  <smiles>  (13) 
[H]OC1([H])C([H])(O[H])C2(C([H])([H])[H])C3([H])C([H])([H])C([H])(C([H])([H])[H])C1([H])C1([H])C4([H])OC(=O)C([H])(C([H])([H])[H])C4([H])C([H])([H])C12C3([H])O[H]

$$$$
4:0:1
     RDKit          3D

 49 53  0  0  1  0  0  0  0  0999 V2000
    5.0511   -6.7672    2.2392 C   0  0  0  0  0  0  0  0  0  0  0  0
    5.7137   -5.3762    2.2117 C   0  0  2  0  0  0  0  0  0  0  0  0
    5.3005   -4.5315    3.4506 C   0  0  0  0  0  0  0  0  0  0  0  0
    4.2739   -3.4127    3.2372 C   0  0  2  0  0  0  0  0  0  0  0  0
    2.9294   -3.7454    2.5853 C   0  0  1  0  0  0  0  0  0  0  0  0
    1.7783   -3.1121    3.0942 O   0  0  0  0  0  0  0  0  0  0  0  0
    3.5321   -3.2228    1.2750 C   0  0  2  0  0  0  0  0  0  0  0  0
    2.6563   -2.4625    0.2522 C   0  0  0  0  0  0  0  0  0  0  0  0
    3.5172   -2.4726   -0.9916 C   0  0  2  0  0  0  0  0  0  0  0  0
    3.0516   -2.2799   -2.4245 C   0  0  1  0  0  0  0  0  0  0  0  0
    3.0289   -0.8237   -2.9118 C   0  0  0  0  0  0  0  0  0  0  0  0
    4.1477   -3.1245   -3.0852 C   0  0  0  0  0  0  0  0  0  0  0  0
    4.4652   -3.0325   -4.2661 O   0  0  0  0  0  0  0  0  0  0  0  0
    4.6739   -3.9633   -2.1739 O   0  0  0  0  0  0  0  0  0  0  0  0
    3.8592   -3.9282   -1.0273 C   0  0  1  0  0  0  0  0  0  0  0  0
    4.1801   -4.3326    0.4161 C   0  0  1  0  0  0  0  0  0  0  0  0
    5.6339   -4.6633    0.8249 C   0  0  1  0  0  0  0  0  0  0  0  0
    6.5448   -3.4184    0.8148 C   0  0  1  0  0  0  0  0  0  0  0  0
    6.9130   -3.0866   -0.5140 O   0  0  0  0  0  0  0  0  0  0  0  0
    5.9732   -2.2073    1.6110 C   0  0  1  0  0  0  0  0  0  0  0  0
    6.2110   -1.0033    0.9074 O   0  0  0  0  0  0  0  0  0  0  0  0
    4.5076   -2.3533    2.1307 C   0  0  2  0  0  0  0  0  0  0  0  0
    4.0219   -0.9445    2.5527 C   0  0  0  0  0  0  0  0  0  0  0  0
    3.9636   -6.7187    2.2019 H   0  0  0  0  0  0  0  0  0  0  0  0
    5.3150   -7.2920    3.1585 H   0  0  0  0  0  0  0  0  0  0  0  0
    5.3930   -7.3819    1.4057 H   0  0  0  0  0  0  0  0  0  0  0  0
    6.7738   -5.5970    2.3619 H   0  0  0  0  0  0  0  0  0  0  0  0
    4.9671   -5.1907    4.2528 H   0  0  0  0  0  0  0  0  0  0  0  0
    6.2019   -4.0845    3.8599 H   0  0  0  0  0  0  0  0  0  0  0  0
    4.0804   -2.9011    4.1810 H   0  0  0  0  0  0  0  0  0  0  0  0
    2.7358   -4.8151    2.5624 H   0  0  0  0  0  0  0  0  0  0  0  0
    1.6283   -3.4708    3.9535 H   0  0  0  0  0  0  0  0  0  0  0  0
    1.7349   -3.0048    0.0716 H   0  0  0  0  0  0  0  0  0  0  0  0
    2.4133   -1.4473    0.5607 H   0  0  0  0  0  0  0  0  0  0  0  0
    4.4052   -1.8656   -0.8028 H   0  0  0  0  0  0  0  0  0  0  0  0
    2.0909   -2.7621   -2.6138 H   0  0  0  0  0  0  0  0  0  0  0  0
    2.8063   -0.7691   -3.9791 H   0  0  0  0  0  0  0  0  0  0  0  0
    3.9846   -0.3235   -2.7444 H   0  0  0  0  0  0  0  0  0  0  0  0
    2.2579   -0.2578   -2.3912 H   0  0  0  0  0  0  0  0  0  0  0  0
    2.9349   -4.4624   -1.2531 H   0  0  0  0  0  0  0  0  0  0  0  0
    3.6144   -5.2562    0.5466 H   0  0  0  0  0  0  0  0  0  0  0  0
    6.0154   -5.3735    0.0902 H   0  0  0  0  0  0  0  0  0  0  0  0
    7.4915   -3.6919    1.2797 H   0  0  0  0  0  0  0  0  0  0  0  0
    7.4020   -3.8083   -0.8844 H   0  0  0  0  0  0  0  0  0  0  0  0
    6.6156   -2.1245    2.4811 H   0  0  0  0  0  0  0  0  0  0  0  0
    6.5123   -0.3603    1.5348 H   0  0  0  0  0  0  0  0  0  0  0  0
    3.9704   -0.2508    1.7123 H   0  0  0  0  0  0  0  0  0  0  0  0
    4.6729   -0.5057    3.3066 H   0  0  0  0  0  0  0  0  0  0  0  0
    3.0207   -0.9568    2.9801 H   0  0  0  0  0  0  0  0  0  0  0  0
  1  2  1  0
  1 24  1  0
  1 25  1  0
  1 26  1  0
  2 17  1  0
  2  3  1  0
  2 27  1  1
  3  4  1  0
  3 28  1  0
  3 29  1  0
  4 22  1  0
  4  5  1  0
  4 30  1  1
  5  6  1  0
  5  7  1  0
  5 31  1  6
  6 32  1  0
  7 16  1  0
  7 22  1  0
  7  8  1  6
  8  9  1  0
  8 33  1  0
  8 34  1  0
  9 15  1  0
  9 10  1  0
  9 35  1  1
 10 11  1  0
 10 12  1  0
 10 36  1  1
 11 37  1  0
 11 38  1  0
 11 39  1  0
 12 13  2  0
 12 14  1  0
 14 15  1  0
 15 16  1  0
 15 40  1  6
 16 17  1  0
 16 41  1  1
 17 18  1  0
 17 42  1  6
 18 19  1  0
 18 20  1  0
 18 43  1  1
 19 44  1  0
 20 21  1  0
 20 22  1  0
 20 45  1  1
 21 46  1  0
 22 23  1  1
 23 47  1  0
 23 48  1  0
 23 49  1  0
M  END
>  <i_m_ct_stereo_status>  (14) 
1

>  <s_m_source_file>  (14) 
/var/tmp/pbs.5076255.sched01/tmpoa2zap1w/0_chicbso.sdf

>  <i_m_source_file_index>  (14) 
6

>  <i_lp_mmshare_version>  (14) 
48012

>  <i_f3d_flags>  (14) 
0

>  <s_epik_input>  (14) 
W09IXVtDQEhdMVtDQEBIXShbT0hdKVtDQF0yKFtDSDNdKVtDQEBIXShbQ0BIXTNbT0hdKVtDSDJdW0NAQEhdKFtDSDNdKVtDQEhdMVtDQEBIXShbQ0BdMjM0KVtDQEhdNVtDQEhdKFtDSDJdNClbQ0BASF0oW0NIM10pQyg9TylPNQ==

>  <s_epik_cmdline>  (14) 
J2VwaWtfcHl0aG9uJywgJy1waHQnLCAnMi4wJywgJy1waCcsICc3LjAnLCAnLXRuJywgJzgnLCAnLW1hJywgJzIwMCcsICctaW1hZScsICc8aW5maWxlLm1hZT4nLCAnLW9tYWUnLCAnPG91dGZpbGUubWFlPic=

>  <r_lp_tautomer_probability>  (14) 
1

>  <r_epik_Ionization_Penalty>  (14) 
1.12174e-06

>  <r_epik_Ionization_Penalty_Charging>  (14) 
0

>  <r_epik_Ionization_Penalty_Neutral>  (14) 
1.12174e-06

>  <r_epik_State_Penalty>  (14) 
-0

>  <r_epik_Charging_Adjusted_Penalty>  (14) 
0

>  <i_epik_Tot_Q>  (14) 
0

>  <i_epik_Tot_abs_Q>  (14) 
0

>  <s_epik_Chemistry_Notes>  (14) 
This compound has an ester and may undergo hydrolysis at high or low pH.

>  <s_lp_Force_Field>  (14) 
OPLS3e

>  <r_lp_Energy>  (14) 
67.4123

>  <b_lp_Chiralities_Consistent>  (14) 
1

>  <s_lp_Variant>  (14) 
4:0-1

>  <s_i_glide_gridfile>  (14) 
pfpi4k_grid

>  <i_i_glide_lignum>  (14) 
6

>  <i_i_glide_rotatable_bonds>  (14) 
3

>  <r_i_docking_score>  (14) 
-3.18764

>  <r_i_glide_ligand_efficiency>  (14) 
-0.138593

>  <r_i_glide_ligand_efficiency_sa>  (14) 
-0.39414

>  <r_i_glide_ligand_efficiency_ln>  (14) 
-0.7708

>  <r_i_glide_gscore>  (14) 
-3.18764

>  <r_i_glide_lipo>  (14) 
-0.394838

>  <r_i_glide_hbond>  (14) 
-0.210948

>  <r_i_glide_metal>  (14) 
-0

>  <r_i_glide_rewards>  (14) 
-1.29988

>  <r_i_glide_evdw>  (14) 
-16.4513

>  <r_i_glide_ecoul>  (14) 
-3.06272

>  <r_i_glide_erotb>  (14) 
0

>  <r_i_glide_esite>  (14) 
0

>  <r_i_glide_emodel>  (14) 
-22.2272

>  <r_i_glide_energy>  (14) 
-19.514

>  <r_i_glide_einternal>  (14) 
2.57431

>  <r_i_glide_intrahb_reward>  (14) 
-0

>  <i_i_glide_confnum>  (14) 
1

>  <i_i_glide_posenum>  (14) 
24

>  <r_i_glide_eff_state_penalty>  (14) 
0

>  <ligand_id>  (14) 
4

>  <original_smiles>  (14) 
CC1CC2C(O)C34CC5C(C)C(=O)OC5C3C1C(O)C(O)C24C

>  <smiles>  (14) 
[H]OC1([H])C([H])(O[H])C2(C([H])([H])[H])C3([H])C([H])([H])C([H])(C([H])([H])[H])C1([H])C1([H])C4([H])OC(=O)C([H])(C([H])([H])[H])C4([H])C([H])([H])C12C3([H])O[H]

$$$$
4:0:2
     RDKit          3D

 49 53  0  0  1  0  0  0  0  0999 V2000
    5.0727   -6.2967    2.8952 C   0  0  0  0  0  0  0  0  0  0  0  0
    5.7142   -4.9019    2.7475 C   0  0  2  0  0  0  0  0  0  0  0  0
    5.2699   -3.9518    3.9022 C   0  0  0  0  0  0  0  0  0  0  0  0
    4.2298   -2.8752    3.5697 C   0  0  2  0  0  0  0  0  0  0  0  0
    2.9076   -3.2930    2.9277 C   0  0  1  0  0  0  0  0  0  0  0  0
    1.7262   -2.6544    3.3565 O   0  0  0  0  0  0  0  0  0  0  0  0
    3.5145   -2.8835    1.5811 C   0  0  2  0  0  0  0  0  0  0  0  0
    2.6444   -2.2272    0.4892 C   0  0  0  0  0  0  0  0  0  0  0  0
    3.5156   -2.3595   -0.7451 C   0  0  2  0  0  0  0  0  0  0  0  0
    3.0735   -2.2951   -2.1944 C   0  0  1  0  0  0  0  0  0  0  0  0
    3.0393   -0.8859   -2.8098 C   0  0  0  0  0  0  0  0  0  0  0  0
    4.2041   -3.1728   -2.7593 C   0  0  0  0  0  0  0  0  0  0  0  0
    4.5907   -3.1398   -3.9212 O   0  0  0  0  0  0  0  0  0  0  0  0
    4.7022   -3.9458   -1.7679 O   0  0  0  0  0  0  0  0  0  0  0  0
    3.8683   -3.8137   -0.6448 C   0  0  1  0  0  0  0  0  0  0  0  0
    4.1824   -4.0622    0.8386 C   0  0  1  0  0  0  0  0  0  0  0  0
    5.6361   -4.3289    1.2965 C   0  0  1  0  0  0  0  0  0  0  0  0
    6.5303   -3.0783    1.1799 C   0  0  1  0  0  0  0  0  0  0  0  0
    6.9002   -2.8670   -0.1736 O   0  0  0  0  0  0  0  0  0  0  0  0
    5.9377   -1.8044    1.8606 C   0  0  1  0  0  0  0  0  0  0  0  0
    6.1672   -0.6627    1.0492 O   0  0  0  0  0  0  0  0  0  0  0  0
    4.4651   -1.9250    2.3690 C   0  0  2  0  0  0  0  0  0  0  0  0
    3.9675   -0.4875    2.6559 C   0  0  0  0  0  0  0  0  0  0  0  0
    3.9847   -6.2712    2.8411 H   0  0  0  0  0  0  0  0  0  0  0  0
    5.3327   -6.7317    3.8607 H   0  0  0  0  0  0  0  0  0  0  0  0
    5.4310   -6.9820    2.1252 H   0  0  0  0  0  0  0  0  0  0  0  0
    6.7742   -5.0981    2.9239 H   0  0  0  0  0  0  0  0  0  0  0  0
    4.9367   -4.5481    4.7526 H   0  0  0  0  0  0  0  0  0  0  0  0
    6.1432   -3.4405    4.3006 H   0  0  0  0  0  0  0  0  0  0  0  0
    4.0186   -2.2824    4.4590 H   0  0  0  0  0  0  0  0  0  0  0  0
    2.7469   -4.3657    3.0093 H   0  0  0  0  0  0  0  0  0  0  0  0
    1.8209   -1.7322    3.1755 H   0  0  0  0  0  0  0  0  0  0  0  0
    1.7230   -2.7792    0.3607 H   0  0  0  0  0  0  0  0  0  0  0  0
    2.4003   -1.1871    0.7006 H   0  0  0  0  0  0  0  0  0  0  0  0
    4.3957   -1.7286   -0.6039 H   0  0  0  0  0  0  0  0  0  0  0  0
    2.1181   -2.7994   -2.3473 H   0  0  0  0  0  0  0  0  0  0  0  0
    2.8217   -0.9300   -3.8791 H   0  0  0  0  0  0  0  0  0  0  0  0
    3.9894   -0.3592   -2.6855 H   0  0  0  0  0  0  0  0  0  0  0  0
    2.2575   -0.2808   -2.3486 H   0  0  0  0  0  0  0  0  0  0  0  0
    2.9706   -4.4014   -0.8526 H   0  0  0  0  0  0  0  0  0  0  0  0
    3.6295   -4.9761    1.0560 H   0  0  0  0  0  0  0  0  0  0  0  0
    6.0363   -5.1000    0.6373 H   0  0  0  0  0  0  0  0  0  0  0  0
    7.4749   -3.3202    1.6635 H   0  0  0  0  0  0  0  0  0  0  0  0
    7.2391   -3.6749   -0.5252 H   0  0  0  0  0  0  0  0  0  0  0  0
    6.5462   -1.6088    2.7375 H   0  0  0  0  0  0  0  0  0  0  0  0
    7.0053   -0.2852    1.2883 H   0  0  0  0  0  0  0  0  0  0  0  0
    3.9237    0.1254    1.7531 H   0  0  0  0  0  0  0  0  0  0  0  0
    4.6154    0.0256    3.3686 H   0  0  0  0  0  0  0  0  0  0  0  0
    2.9651   -0.4673    3.0775 H   0  0  0  0  0  0  0  0  0  0  0  0
  1  2  1  0
  1 24  1  0
  1 25  1  0
  1 26  1  0
  2 17  1  0
  2  3  1  0
  2 27  1  1
  3  4  1  0
  3 28  1  0
  3 29  1  0
  4 22  1  0
  4  5  1  0
  4 30  1  1
  5  6  1  0
  5  7  1  0
  5 31  1  6
  6 32  1  0
  7 16  1  0
  7 22  1  0
  7  8  1  6
  8  9  1  0
  8 33  1  0
  8 34  1  0
  9 15  1  0
  9 10  1  0
  9 35  1  6
 10 11  1  0
 10 12  1  0
 10 36  1  1
 11 37  1  0
 11 38  1  0
 11 39  1  0
 12 13  2  0
 12 14  1  0
 14 15  1  0
 15 16  1  0
 15 40  1  6
 16 17  1  0
 16 41  1  1
 17 18  1  0
 17 42  1  6
 18 19  1  0
 18 20  1  0
 18 43  1  1
 19 44  1  0
 20 21  1  0
 20 22  1  0
 20 45  1  1
 21 46  1  0
 22 23  1  1
 23 47  1  0
 23 48  1  0
 23 49  1  0
M  END
>  <i_m_ct_stereo_status>  (15) 
1

>  <s_m_source_file>  (15) 
/var/tmp/pbs.5076255.sched01/tmpoa2zap1w/0_chicbso.sdf

>  <i_m_source_file_index>  (15) 
6

>  <i_lp_mmshare_version>  (15) 
48012

>  <i_f3d_flags>  (15) 
0

>  <s_epik_input>  (15) 
W09IXVtDQEhdMVtDQEBIXShbT0hdKVtDQF0yKFtDSDNdKVtDQEBIXShbQ0BIXTNbT0hdKVtDSDJdW0NAQEhdKFtDSDNdKVtDQEhdMVtDQEBIXShbQ0BdMjM0KVtDQEhdNVtDQEhdKFtDSDJdNClbQ0BASF0oW0NIM10pQyg9TylPNQ==

>  <s_epik_cmdline>  (15) 
J2VwaWtfcHl0aG9uJywgJy1waHQnLCAnMi4wJywgJy1waCcsICc3LjAnLCAnLXRuJywgJzgnLCAnLW1hJywgJzIwMCcsICctaW1hZScsICc8aW5maWxlLm1hZT4nLCAnLW9tYWUnLCAnPG91dGZpbGUubWFlPic=

>  <r_lp_tautomer_probability>  (15) 
1

>  <r_epik_Ionization_Penalty>  (15) 
1.12174e-06

>  <r_epik_Ionization_Penalty_Charging>  (15) 
0

>  <r_epik_Ionization_Penalty_Neutral>  (15) 
1.12174e-06

>  <r_epik_State_Penalty>  (15) 
-0

>  <r_epik_Charging_Adjusted_Penalty>  (15) 
0

>  <i_epik_Tot_Q>  (15) 
0

>  <i_epik_Tot_abs_Q>  (15) 
0

>  <s_epik_Chemistry_Notes>  (15) 
This compound has an ester and may undergo hydrolysis at high or low pH.

>  <s_lp_Force_Field>  (15) 
OPLS3e

>  <r_lp_Energy>  (15) 
67.4123

>  <b_lp_Chiralities_Consistent>  (15) 
1

>  <s_lp_Variant>  (15) 
4:0-1

>  <s_i_glide_gridfile>  (15) 
pfpi4k_grid

>  <i_i_glide_lignum>  (15) 
6

>  <i_i_glide_rotatable_bonds>  (15) 
3

>  <r_i_docking_score>  (15) 
-3.16793

>  <r_i_glide_ligand_efficiency>  (15) 
-0.137736

>  <r_i_glide_ligand_efficiency_sa>  (15) 
-0.391703

>  <r_i_glide_ligand_efficiency_ln>  (15) 
-0.766034

>  <r_i_glide_gscore>  (15) 
-3.16793

>  <r_i_glide_lipo>  (15) 
-0.382465

>  <r_i_glide_hbond>  (15) 
-0.04201

>  <r_i_glide_metal>  (15) 
-0

>  <r_i_glide_rewards>  (15) 
-1.21094

>  <r_i_glide_evdw>  (15) 
-17.46

>  <r_i_glide_ecoul>  (15) 
-4.34963

>  <r_i_glide_erotb>  (15) 
0

>  <r_i_glide_esite>  (15) 
-0.00707297

>  <r_i_glide_emodel>  (15) 
-25.2075

>  <r_i_glide_energy>  (15) 
-21.8096

>  <r_i_glide_einternal>  (15) 
1.41128

>  <r_i_glide_intrahb_reward>  (15) 
-0

>  <i_i_glide_confnum>  (15) 
2

>  <i_i_glide_posenum>  (15) 
23

>  <r_i_glide_eff_state_penalty>  (15) 
0

>  <ligand_id>  (15) 
4

>  <original_smiles>  (15) 
CC1CC2C(O)C34CC5C(C)C(=O)OC5C3C1C(O)C(O)C24C

>  <smiles>  (15) 
[H]OC1([H])C([H])(O[H])C2(C([H])([H])[H])C3([H])C([H])([H])C([H])(C([H])([H])[H])C1([H])C1([H])C4([H])OC(=O)C([H])(C([H])([H])[H])C4([H])C([H])([H])C12C3([H])O[H]

$$$$
5:0:0
     RDKit          3D

 74 78  0  0  1  0  0  0  0  0999 V2000
    0.8542   -6.8293    7.8515 C   0  0  0  0  0  0  0  0  0  0  0  0
    0.9099   -7.5175    6.5018 C   0  0  0  0  0  0  0  0  0  0  0  0
    0.4946   -8.7789    6.3178 C   0  0  0  0  0  0  0  0  0  0  0  0
    0.5025   -9.4287    4.9555 C   0  0  0  0  0  0  0  0  0  0  0  0
    1.6878   -8.9958    4.0245 C   0  0  1  0  0  0  0  0  0  0  0  0
    2.7189  -10.1540    4.1296 C   0  0  0  0  0  0  0  0  0  0  0  0
    1.1344   -8.8650    2.5705 C   0  0  0  0  0  0  0  0  0  0  0  0
    1.6560   -7.6713    1.7429 C   0  0  0  0  0  0  0  0  0  0  0  0
    3.1596   -7.3251    1.9071 C   0  0  2  0  0  0  0  0  0  0  0  0
    3.9407   -8.5956    1.4139 C   0  0  0  0  0  0  0  0  0  0  0  0
    3.4182   -7.0325    3.4439 C   0  0  1  0  0  0  0  0  0  0  0  0
    3.7201   -5.5418    3.7455 C   0  0  0  0  0  0  0  0  0  0  0  0
    4.8274   -4.8827    2.9013 C   0  0  0  0  0  0  0  0  0  0  0  0
    4.9733   -5.4256    1.4545 C   0  0  2  0  0  0  0  0  0  0  0  0
    6.1542   -6.4283    1.4223 C   0  0  0  0  0  0  0  0  0  0  0  0
    5.3628   -4.2825    0.4615 C   0  0  2  0  0  0  0  0  0  0  0  0
    6.5875   -3.3960    0.7708 C   0  0  0  0  0  0  0  0  0  0  0  0
    6.3402   -2.0962   -0.0217 C   0  0  1  0  0  0  0  0  0  0  0  0
    6.8291   -2.2723   -1.3398 O   0  0  0  0  0  0  0  0  0  0  0  0
    4.8044   -1.8823    0.0266 C   0  0  0  0  0  0  0  0  0  0  0  0
    4.4704   -0.9658    1.2242 C   0  0  0  0  0  0  0  0  0  0  0  0
    4.2195   -1.2480   -1.2532 C   0  0  0  0  0  0  0  0  0  0  0  0
    4.2569   -3.2848    0.2659 C   0  0  0  0  0  0  0  0  0  0  0  0
    2.9672   -3.6256    0.3734 C   0  0  0  0  0  0  0  0  0  0  0  0
    2.4880   -5.0273    0.7135 C   0  0  1  0  0  0  0  0  0  0  0  0
    1.6125   -5.4573   -0.3133 O   0  0  0  0  0  0  0  0  0  0  0  0
    3.6149   -6.0907    0.9897 C   0  0  2  0  0  0  0  0  0  0  0  0
    2.4028   -7.6744    4.4830 C   0  0  1  0  0  0  0  0  0  0  0  0
    1.4805   -6.7302    5.3291 C   0  0  1  0  0  0  0  0  0  0  0  0
    0.3359   -6.0366    4.5656 C   0  0  0  0  0  0  0  0  0  0  0  0
    1.8575   -6.5575    8.1771 H   0  0  0  0  0  0  0  0  0  0  0  0
    0.4256   -7.4904    8.6057 H   0  0  0  0  0  0  0  0  0  0  0  0
    0.2471   -5.9273    7.8006 H   0  0  0  0  0  0  0  0  0  0  0  0
    0.0691   -9.3593    7.1252 H   0  0  0  0  0  0  0  0  0  0  0  0
    0.4694  -10.5108    5.0841 H   0  0  0  0  0  0  0  0  0  0  0  0
   -0.4691   -9.1694    4.5372 H   0  0  0  0  0  0  0  0  0  0  0  0
    3.6856   -9.9118    3.6965 H   0  0  0  0  0  0  0  0  0  0  0  0
    2.3655  -11.0685    3.6558 H   0  0  0  0  0  0  0  0  0  0  0  0
    2.9187  -10.4027    5.1729 H   0  0  0  0  0  0  0  0  0  0  0  0
    1.2988   -9.7990    2.0335 H   0  0  0  0  0  0  0  0  0  0  0  0
    0.0479   -8.7667    2.5684 H   0  0  0  0  0  0  0  0  0  0  0  0
    1.4093   -7.8582    0.6990 H   0  0  0  0  0  0  0  0  0  0  0  0
    1.0552   -6.8191    2.0393 H   0  0  0  0  0  0  0  0  0  0  0  0
    4.8752   -8.7707    1.9431 H   0  0  0  0  0  0  0  0  0  0  0  0
    4.1830   -8.5558    0.3514 H   0  0  0  0  0  0  0  0  0  0  0  0
    3.3852   -9.5241    1.5208 H   0  0  0  0  0  0  0  0  0  0  0  0
    4.3645   -7.5252    3.6714 H   0  0  0  0  0  0  0  0  0  0  0  0
    2.8183   -4.9527    3.6080 H   0  0  0  0  0  0  0  0  0  0  0  0
    3.9948   -5.4216    4.7933 H   0  0  0  0  0  0  0  0  0  0  0  0
    4.6308   -3.8081    2.8925 H   0  0  0  0  0  0  0  0  0  0  0  0
    5.7778   -4.9874    3.4259 H   0  0  0  0  0  0  0  0  0  0  0  0
    6.1415   -7.0201    0.5098 H   0  0  0  0  0  0  0  0  0  0  0  0
    6.1491   -7.1109    2.2682 H   0  0  0  0  0  0  0  0  0  0  0  0
    7.1264   -5.9389    1.4662 H   0  0  0  0  0  0  0  0  0  0  0  0
    5.5206   -4.7234   -0.5233 H   0  0  0  0  0  0  0  0  0  0  0  0
    6.6194   -3.1507    1.8332 H   0  0  0  0  0  0  0  0  0  0  0  0
    7.5386   -3.8725    0.5240 H   0  0  0  0  0  0  0  0  0  0  0  0
    6.8894   -1.2605    0.4159 H   0  0  0  0  0  0  0  0  0  0  0  0
    6.4045   -3.0357   -1.7098 H   0  0  0  0  0  0  0  0  0  0  0  0
    4.9145    0.0220    1.0935 H   0  0  0  0  0  0  0  0  0  0  0  0
    4.8489   -1.3726    2.1632 H   0  0  0  0  0  0  0  0  0  0  0  0
    3.3941   -0.8237    1.3340 H   0  0  0  0  0  0  0  0  0  0  0  0
    4.6989   -0.2940   -1.4756 H   0  0  0  0  0  0  0  0  0  0  0  0
    3.1527   -1.0559   -1.1407 H   0  0  0  0  0  0  0  0  0  0  0  0
    4.3329   -1.8942   -2.1230 H   0  0  0  0  0  0  0  0  0  0  0  0
    2.2107   -2.8637    0.2554 H   0  0  0  0  0  0  0  0  0  0  0  0
    1.9027   -4.8820    1.6179 H   0  0  0  0  0  0  0  0  0  0  0  0
    2.1064   -5.5139   -1.1340 H   0  0  0  0  0  0  0  0  0  0  0  0
    3.8309   -6.4849   -0.0050 H   0  0  0  0  0  0  0  0  0  0  0  0
    3.0873   -8.0056    5.2676 H   0  0  0  0  0  0  0  0  0  0  0  0
    2.0964   -5.9562    5.7813 H   0  0  0  0  0  0  0  0  0  0  0  0
   -0.2492   -5.4112    5.2403 H   0  0  0  0  0  0  0  0  0  0  0  0
   -0.3489   -6.7595    4.1198 H   0  0  0  0  0  0  0  0  0  0  0  0
    0.6988   -5.3886    3.7719 H   0  0  0  0  0  0  0  0  0  0  0  0
  1  2  1  0
  1 31  1  0
  1 32  1  0
  1 33  1  0
  2 29  1  0
  2  3  2  0
  3  4  1  0
  3 34  1  0
  4  5  1  0
  4 35  1  0
  4 36  1  0
  5 28  1  0
  5  6  1  6
  5  7  1  0
  6 37  1  0
  6 38  1  0
  6 39  1  0
  7  8  1  0
  7 40  1  0
  7 41  1  0
  8  9  1  0
  8 42  1  0
  8 43  1  0
  9 27  1  0
  9 10  1  6
  9 11  1  0
 10 44  1  0
 10 45  1  0
 10 46  1  0
 11 12  1  0
 11 28  1  0
 11 47  1  1
 12 13  1  0
 12 48  1  0
 12 49  1  0
 13 14  1  0
 13 50  1  0
 13 51  1  0
 14 27  1  0
 14 15  1  1
 14 16  1  0
 15 52  1  0
 15 53  1  0
 15 54  1  0
 16 23  1  0
 16 17  1  0
 16 55  1  6
 17 18  1  0
 17 56  1  0
 17 57  1  0
 18 19  1  0
 18 20  1  0
 18 58  1  1
 19 59  1  0
 20 21  1  0
 20 22  1  0
 20 23  1  0
 21 60  1  0
 21 61  1  0
 21 62  1  0
 22 63  1  0
 22 64  1  0
 22 65  1  0
 23 24  2  0
 24 25  1  0
 24 66  1  0
 25 26  1  0
 25 27  1  0
 25 67  1  1
 26 68  1  0
 27 69  1  6
 28 29  1  0
 28 70  1  1
 29 30  1  0
 29 71  1  1
 30 72  1  0
 30 73  1  0
 30 74  1  0
M  END
>  <i_m_ct_stereo_status>  (16) 
1

>  <s_m_source_file>  (16) 
/var/tmp/pbs.5076255.sched01/tmpoa2zap1w/0_chicbso.sdf

>  <i_m_source_file_index>  (16) 
7

>  <i_lp_mmshare_version>  (16) 
48012

>  <i_f3d_flags>  (16) 
0

>  <s_epik_input>  (16) 
W0NIMl0xW0NIXT1DKFtDSDNdKVtDQEhdKFtDSDNdKVtDQEBIXShbQ0BAXTEyW0NIM10pW0NASF0zW0NAQF0oW0NIM10pKFtDSDJdW0NIMl0yKVtDQEBIXTRbQ0BdKFtDSDNdKShbQ0gyXVtDSDJdMylbQ0BIXTVDKEMoW0NIM10pKFtDSDNdKVtDQEBIXShbQ0gyXTUpW09IXSk9W0NIXVtDQEhdNFtPSF0=

>  <s_epik_cmdline>  (16) 
J2VwaWtfcHl0aG9uJywgJy1waHQnLCAnMi4wJywgJy1waCcsICc3LjAnLCAnLXRuJywgJzgnLCAnLW1hJywgJzIwMCcsICctaW1hZScsICc8aW5maWxlLm1hZT4nLCAnLW9tYWUnLCAnPG91dGZpbGUubWFlPic=

>  <r_lp_tautomer_probability>  (16) 
1

>  <r_epik_Ionization_Penalty>  (16) 
1.10333e-06

>  <r_epik_Ionization_Penalty_Charging>  (16) 
0

>  <r_epik_Ionization_Penalty_Neutral>  (16) 
1.10333e-06

>  <r_epik_State_Penalty>  (16) 
-0

>  <r_epik_Charging_Adjusted_Penalty>  (16) 
0

>  <i_epik_Tot_Q>  (16) 
0

>  <i_epik_Tot_abs_Q>  (16) 
0

>  <s_lp_Force_Field>  (16) 
OPLS3e

>  <r_lp_Energy>  (16) 
88.1377

>  <b_lp_Chiralities_Consistent>  (16) 
1

>  <s_lp_Variant>  (16) 
5:0-1

>  <s_i_glide_gridfile>  (16) 
pfpi4k_grid

>  <i_i_glide_lignum>  (16) 
7

>  <i_i_glide_rotatable_bonds>  (16) 
2

>  <r_i_docking_score>  (16) 
-4.66387

>  <r_i_glide_ligand_efficiency>  (16) 
-0.155462

>  <r_i_glide_ligand_efficiency_sa>  (16) 
-0.483058

>  <r_i_glide_ligand_efficiency_ln>  (16) 
-1.05968

>  <r_i_glide_gscore>  (16) 
-4.66387

>  <r_i_glide_lipo>  (16) 
-0.45279

>  <r_i_glide_hbond>  (16) 
-0.632111

>  <r_i_glide_metal>  (16) 
-0

>  <r_i_glide_rewards>  (16) 
-0.595583

>  <r_i_glide_evdw>  (16) 
-31.5679

>  <r_i_glide_ecoul>  (16) 
-9.36661

>  <r_i_glide_erotb>  (16) 
0

>  <r_i_glide_esite>  (16) 
0

>  <r_i_glide_emodel>  (16) 
-53.425

>  <r_i_glide_energy>  (16) 
-40.9345

>  <r_i_glide_einternal>  (16) 
0.0385512

>  <r_i_glide_intrahb_reward>  (16) 
-0

>  <i_i_glide_confnum>  (16) 
2

>  <i_i_glide_posenum>  (16) 
39

>  <r_i_glide_eff_state_penalty>  (16) 
0

>  <ligand_id>  (16) 
5

>  <original_smiles>  (16) 
CC1=CCC2(C)CCC3(C)C(CCC4(C)C5CC(O)C(C)(C)C5=CC(O)C43)C2C1C

>  <smiles>  (16) 
[H]OC1([H])C([H])=C2C([H])(C([H])([H])C([H])(O[H])C2(C([H])([H])[H])C([H])([H])[H])C2(C([H])([H])[H])C([H])([H])C([H])([H])C3([H])C4([H])C([H])(C([H])([H])[H])C(C([H])([H])[H])=C([H])C([H])([H])C4(C([H])([H])[H])C([H])([H])C([H])([H])C3(C([H])([H])[H])C12[H]

$$$$
5:0:1
     RDKit          3D

 74 78  0  0  1  0  0  0  0  0999 V2000
   -1.7197   -8.7482    2.8747 C   0  0  0  0  0  0  0  0  0  0  0  0
   -0.2507   -8.9799    3.1616 C   0  0  0  0  0  0  0  0  0  0  0  0
    0.2283  -10.1684    3.5644 C   0  0  0  0  0  0  0  0  0  0  0  0
    1.6977  -10.4099    3.7968 C   0  0  0  0  0  0  0  0  0  0  0  0
    2.4808   -9.1720    4.3546 C   0  0  1  0  0  0  0  0  0  0  0  0
    2.6194   -9.4418    5.8794 C   0  0  0  0  0  0  0  0  0  0  0  0
    3.8800   -9.1373    3.6603 C   0  0  0  0  0  0  0  0  0  0  0  0
    4.4036   -7.7446    3.2432 C   0  0  0  0  0  0  0  0  0  0  0  0
    4.1295   -6.5854    4.2382 C   0  0  2  0  0  0  0  0  0  0  0  0
    4.8852   -6.9798    5.5562 C   0  0  0  0  0  0  0  0  0  0  0  0
    2.5626   -6.4941    4.4617 C   0  0  1  0  0  0  0  0  0  0  0  0
    1.9229   -5.2275    3.8345 C   0  0  0  0  0  0  0  0  0  0  0  0
    2.5713   -3.8840    4.2100 C   0  0  0  0  0  0  0  0  0  0  0  0
    4.0998   -3.9309    4.4626 C   0  0  2  0  0  0  0  0  0  0  0  0
    4.3513   -3.9653    5.9940 C   0  0  0  0  0  0  0  0  0  0  0  0
    4.7838   -2.6269    3.9463 C   0  0  2  0  0  0  0  0  0  0  0  0
    4.2655   -1.2543    4.4163 C   0  0  0  0  0  0  0  0  0  0  0  0
    4.7660   -0.2670    3.3444 C   0  0  1  0  0  0  0  0  0  0  0  0
    6.0865    0.1133    3.6901 O   0  0  0  0  0  0  0  0  0  0  0  0
    4.6919   -1.0561    2.0077 C   0  0  0  0  0  0  0  0  0  0  0  0
    3.3235   -0.7886    1.3454 C   0  0  0  0  0  0  0  0  0  0  0  0
    5.8034   -0.6910    1.0009 C   0  0  0  0  0  0  0  0  0  0  0  0
    4.7786   -2.5125    2.4469 C   0  0  0  0  0  0  0  0  0  0  0  0
    4.7713   -3.5877    1.6512 C   0  0  0  0  0  0  0  0  0  0  0  0
    4.7622   -5.0172    2.1628 C   0  0  1  0  0  0  0  0  0  0  0  0
    5.8900   -5.6779    1.6211 O   0  0  0  0  0  0  0  0  0  0  0  0
    4.7271   -5.1857    3.7307 C   0  0  2  0  0  0  0  0  0  0  0  0
    1.7178   -7.8066    4.1832 C   0  0  1  0  0  0  0  0  0  0  0  0
    0.6986   -7.8053    2.9968 C   0  0  1  0  0  0  0  0  0  0  0  0
    1.3099   -7.8352    1.5861 C   0  0  0  0  0  0  0  0  0  0  0  0
   -2.1257   -7.9890    3.5419 H   0  0  0  0  0  0  0  0  0  0  0  0
   -2.2897   -9.6640    3.0268 H   0  0  0  0  0  0  0  0  0  0  0  0
   -1.8667   -8.4310    1.8436 H   0  0  0  0  0  0  0  0  0  0  0  0
   -0.4191  -11.0218    3.6785 H   0  0  0  0  0  0  0  0  0  0  0  0
    1.8138  -11.2805    4.4434 H   0  0  0  0  0  0  0  0  0  0  0  0
    2.0622  -10.7311    2.8218 H   0  0  0  0  0  0  0  0  0  0  0  0
    2.9668   -8.5796    6.4408 H   0  0  0  0  0  0  0  0  0  0  0  0
    3.2914  -10.2710    6.0944 H   0  0  0  0  0  0  0  0  0  0  0  0
    1.6567   -9.7078    6.3187 H   0  0  0  0  0  0  0  0  0  0  0  0
    4.6101   -9.6543    4.2823 H   0  0  0  0  0  0  0  0  0  0  0  0
    3.8734   -9.7241    2.7396 H   0  0  0  0  0  0  0  0  0  0  0  0
    5.4739   -7.8294    3.0455 H   0  0  0  0  0  0  0  0  0  0  0  0
    3.9384   -7.5233    2.2887 H   0  0  0  0  0  0  0  0  0  0  0  0
    4.3945   -6.6361    6.4642 H   0  0  0  0  0  0  0  0  0  0  0  0
    5.9072   -6.6010    5.5798 H   0  0  0  0  0  0  0  0  0  0  0  0
    4.9976   -8.0517    5.6916 H   0  0  0  0  0  0  0  0  0  0  0  0
    2.4384   -6.3304    5.5323 H   0  0  0  0  0  0  0  0  0  0  0  0
    1.9400   -5.3069    2.7516 H   0  0  0  0  0  0  0  0  0  0  0  0
    0.8711   -5.1653    4.1125 H   0  0  0  0  0  0  0  0  0  0  0  0
    2.3420   -3.1857    3.4011 H   0  0  0  0  0  0  0  0  0  0  0  0
    2.0695   -3.4714    5.0863 H   0  0  0  0  0  0  0  0  0  0  0  0
    5.3765   -4.2447    6.2350 H   0  0  0  0  0  0  0  0  0  0  0  0
    3.6826   -4.6487    6.5112 H   0  0  0  0  0  0  0  0  0  0  0  0
    4.1756   -3.0004    6.4660 H   0  0  0  0  0  0  0  0  0  0  0  0
    5.8295   -2.6772    4.2301 H   0  0  0  0  0  0  0  0  0  0  0  0
    3.1752   -1.2400    4.4373 H   0  0  0  0  0  0  0  0  0  0  0  0
    4.6085   -0.9912    5.4192 H   0  0  0  0  0  0  0  0  0  0  0  0
    4.1576    0.6384    3.3220 H   0  0  0  0  0  0  0  0  0  0  0  0
    6.5856    0.2382    2.8960 H   0  0  0  0  0  0  0  0  0  0  0  0
    3.2167    0.2662    1.0856 H   0  0  0  0  0  0  0  0  0  0  0  0
    2.4954   -1.0460    2.0089 H   0  0  0  0  0  0  0  0  0  0  0  0
    3.1979   -1.3628    0.4263 H   0  0  0  0  0  0  0  0  0  0  0  0
    5.7958    0.3764    0.7840 H   0  0  0  0  0  0  0  0  0  0  0  0
    5.6609   -1.2098    0.0541 H   0  0  0  0  0  0  0  0  0  0  0  0
    6.7945   -0.9576    1.3676 H   0  0  0  0  0  0  0  0  0  0  0  0
    4.7382   -3.4575    0.5803 H   0  0  0  0  0  0  0  0  0  0  0  0
    3.8701   -5.4529    1.7203 H   0  0  0  0  0  0  0  0  0  0  0  0
    5.7901   -5.7161    0.6825 H   0  0  0  0  0  0  0  0  0  0  0  0
    5.7840   -5.1654    4.0057 H   0  0  0  0  0  0  0  0  0  0  0  0
    1.0165   -7.7905    5.0210 H   0  0  0  0  0  0  0  0  0  0  0  0
    0.0665   -6.9234    3.0721 H   0  0  0  0  0  0  0  0  0  0  0  0
    0.5172   -7.8515    0.8367 H   0  0  0  0  0  0  0  0  0  0  0  0
    1.9120   -8.7309    1.4210 H   0  0  0  0  0  0  0  0  0  0  0  0
    1.9333   -6.9699    1.3754 H   0  0  0  0  0  0  0  0  0  0  0  0
  1  2  1  0
  1 31  1  0
  1 32  1  0
  1 33  1  0
  2 29  1  0
  2  3  2  0
  3  4  1  0
  3 34  1  0
  4  5  1  0
  4 35  1  0
  4 36  1  0
  5 28  1  0
  5  6  1  1
  5  7  1  0
  6 37  1  0
  6 38  1  0
  6 39  1  0
  7  8  1  0
  7 40  1  0
  7 41  1  0
  8  9  1  0
  8 42  1  0
  8 43  1  0
  9 27  1  0
  9 10  1  1
  9 11  1  0
 10 44  1  0
 10 45  1  0
 10 46  1  0
 11 12  1  0
 11 28  1  0
 11 47  1  1
 12 13  1  0
 12 48  1  0
 12 49  1  0
 13 14  1  0
 13 50  1  0
 13 51  1  0
 14 27  1  0
 14 15  1  1
 14 16  1  0
 15 52  1  0
 15 53  1  0
 15 54  1  0
 16 23  1  0
 16 17  1  0
 16 55  1  1
 17 18  1  0
 17 56  1  0
 17 57  1  0
 18 19  1  0
 18 20  1  0
 18 58  1  6
 19 59  1  0
 20 21  1  0
 20 22  1  0
 20 23  1  0
 21 60  1  0
 21 61  1  0
 21 62  1  0
 22 63  1  0
 22 64  1  0
 22 65  1  0
 23 24  2  0
 24 25  1  0
 24 66  1  0
 25 26  1  0
 25 27  1  0
 25 67  1  6
 26 68  1  0
 27 69  1  1
 28 29  1  0
 28 70  1  1
 29 30  1  0
 29 71  1  6
 30 72  1  0
 30 73  1  0
 30 74  1  0
M  END
>  <i_m_ct_stereo_status>  (17) 
1

>  <s_m_source_file>  (17) 
/var/tmp/pbs.5076255.sched01/tmpoa2zap1w/0_chicbso.sdf

>  <i_m_source_file_index>  (17) 
7

>  <i_lp_mmshare_version>  (17) 
48012

>  <i_f3d_flags>  (17) 
0

>  <s_epik_input>  (17) 
W0NIMl0xW0NIXT1DKFtDSDNdKVtDQEhdKFtDSDNdKVtDQEBIXShbQ0BAXTEyW0NIM10pW0NASF0zW0NAQF0oW0NIM10pKFtDSDJdW0NIMl0yKVtDQEBIXTRbQ0BdKFtDSDNdKShbQ0gyXVtDSDJdMylbQ0BIXTVDKEMoW0NIM10pKFtDSDNdKVtDQEBIXShbQ0gyXTUpW09IXSk9W0NIXVtDQEhdNFtPSF0=

>  <s_epik_cmdline>  (17) 
J2VwaWtfcHl0aG9uJywgJy1waHQnLCAnMi4wJywgJy1waCcsICc3LjAnLCAnLXRuJywgJzgnLCAnLW1hJywgJzIwMCcsICctaW1hZScsICc8aW5maWxlLm1hZT4nLCAnLW9tYWUnLCAnPG91dGZpbGUubWFlPic=

>  <r_lp_tautomer_probability>  (17) 
1

>  <r_epik_Ionization_Penalty>  (17) 
1.10333e-06

>  <r_epik_Ionization_Penalty_Charging>  (17) 
0

>  <r_epik_Ionization_Penalty_Neutral>  (17) 
1.10333e-06

>  <r_epik_State_Penalty>  (17) 
-0

>  <r_epik_Charging_Adjusted_Penalty>  (17) 
0

>  <i_epik_Tot_Q>  (17) 
0

>  <i_epik_Tot_abs_Q>  (17) 
0

>  <s_lp_Force_Field>  (17) 
OPLS3e

>  <r_lp_Energy>  (17) 
88.1377

>  <b_lp_Chiralities_Consistent>  (17) 
1

>  <s_lp_Variant>  (17) 
5:0-1

>  <s_i_glide_gridfile>  (17) 
pfpi4k_grid

>  <i_i_glide_lignum>  (17) 
7

>  <i_i_glide_rotatable_bonds>  (17) 
2

>  <r_i_docking_score>  (17) 
-2.9511

>  <r_i_glide_ligand_efficiency>  (17) 
-0.0983699

>  <r_i_glide_ligand_efficiency_sa>  (17) 
-0.305658

>  <r_i_glide_ligand_efficiency_ln>  (17) 
-0.670521

>  <r_i_glide_gscore>  (17) 
-2.9511

>  <r_i_glide_lipo>  (17) 
-0.419532

>  <r_i_glide_hbond>  (17) 
-0.320629

>  <r_i_glide_metal>  (17) 
-0

>  <r_i_glide_rewards>  (17) 
-0.595583

>  <r_i_glide_evdw>  (17) 
-27.051

>  <r_i_glide_ecoul>  (17) 
-1.75202

>  <r_i_glide_erotb>  (17) 
0

>  <r_i_glide_esite>  (17) 
0

>  <r_i_glide_emodel>  (17) 
-35.7133

>  <r_i_glide_energy>  (17) 
-28.803

>  <r_i_glide_einternal>  (17) 
1.49363

>  <r_i_glide_intrahb_reward>  (17) 
-0

>  <i_i_glide_confnum>  (17) 
2

>  <i_i_glide_posenum>  (17) 
19

>  <r_i_glide_eff_state_penalty>  (17) 
0

>  <ligand_id>  (17) 
5

>  <original_smiles>  (17) 
CC1=CCC2(C)CCC3(C)C(CCC4(C)C5CC(O)C(C)(C)C5=CC(O)C43)C2C1C

>  <smiles>  (17) 
[H]OC1([H])C([H])=C2C([H])(C([H])([H])C([H])(O[H])C2(C([H])([H])[H])C([H])([H])[H])C2(C([H])([H])[H])C([H])([H])C([H])([H])C3([H])C4([H])C([H])(C([H])([H])[H])C(C([H])([H])[H])=C([H])C([H])([H])C4(C([H])([H])[H])C([H])([H])C([H])([H])C3(C([H])([H])[H])C12[H]

$$$$
5:0:2
     RDKit          3D

 74 78  0  0  1  0  0  0  0  0999 V2000
    0.2594   -9.4164    3.8014 C   0  0  0  0  0  0  0  0  0  0  0  0
    1.4197   -8.8200    3.0297 C   0  0  0  0  0  0  0  0  0  0  0  0
    2.3384   -9.5779    2.4098 C   0  0  0  0  0  0  0  0  0  0  0  0
    3.4597   -8.9731    1.5993 C   0  0  0  0  0  0  0  0  0  0  0  0
    4.0023   -7.6027    2.1417 C   0  0  1  0  0  0  0  0  0  0  0  0
    5.3080   -7.9705    2.8979 C   0  0  0  0  0  0  0  0  0  0  0  0
    4.3105   -6.6734    0.9237 C   0  0  0  0  0  0  0  0  0  0  0  0
    3.9209   -5.1836    1.0740 C   0  0  0  0  0  0  0  0  0  0  0  0
    4.1871   -4.5527    2.4664 C   0  0  2  0  0  0  0  0  0  0  0  0
    5.7376   -4.6531    2.6727 C   0  0  0  0  0  0  0  0  0  0  0  0
    3.3936   -5.3992    3.5450 C   0  0  1  0  0  0  0  0  0  0  0  0
    2.1935   -4.6356    4.1650 C   0  0  0  0  0  0  0  0  0  0  0  0
    2.4967   -3.2346    4.7307 C   0  0  0  0  0  0  0  0  0  0  0  0
    3.6187   -2.4466    4.0013 C   0  0  2  0  0  0  0  0  0  0  0  0
    4.9273   -2.5737    4.8223 C   0  0  0  0  0  0  0  0  0  0  0  0
    3.2931   -0.9171    3.9527 C   0  0  2  0  0  0  0  0  0  0  0  0
    2.9554   -0.1783    5.2607 C   0  0  0  0  0  0  0  0  0  0  0  0
    2.1675    1.0663    4.8068 C   0  0  1  0  0  0  0  0  0  0  0  0
    3.0991    2.0809    4.4759 O   0  0  0  0  0  0  0  0  0  0  0  0
    1.3289    0.5920    3.5895 C   0  0  0  0  0  0  0  0  0  0  0  0
   -0.0605    0.1315    4.0823 C   0  0  0  0  0  0  0  0  0  0  0  0
    1.1326    1.6692    2.4996 C   0  0  0  0  0  0  0  0  0  0  0  0
    2.1202   -0.6030    3.0723 C   0  0  0  0  0  0  0  0  0  0  0  0
    1.8112   -1.3602    2.0170 C   0  0  0  0  0  0  0  0  0  0  0  0
    2.5910   -2.5925    1.5919 C   0  0  1  0  0  0  0  0  0  0  0  0
    3.0202   -2.3881    0.2590 O   0  0  0  0  0  0  0  0  0  0  0  0
    3.7893   -2.9999    2.5284 C   0  0  2  0  0  0  0  0  0  0  0  0
    3.0388   -6.9003    3.1671 C   0  0  1  0  0  0  0  0  0  0  0  0
    1.5351   -7.3029    2.9860 C   0  0  1  0  0  0  0  0  0  0  0  0
    0.8393   -6.7689    1.7199 C   0  0  0  0  0  0  0  0  0  0  0  0
    0.3139   -9.1267    4.8508 H   0  0  0  0  0  0  0  0  0  0  0  0
    0.2801  -10.5067    3.7579 H   0  0  0  0  0  0  0  0  0  0  0  0
   -0.6943   -9.0803    3.3960 H   0  0  0  0  0  0  0  0  0  0  0  0
    2.2677  -10.6568    2.4093 H   0  0  0  0  0  0  0  0  0  0  0  0
    4.2582   -9.7091    1.4928 H   0  0  0  0  0  0  0  0  0  0  0  0
    3.0335   -8.8872    0.6036 H   0  0  0  0  0  0  0  0  0  0  0  0
    5.7011   -7.1598    3.5045 H   0  0  0  0  0  0  0  0  0  0  0  0
    6.0987   -8.2920    2.2221 H   0  0  0  0  0  0  0  0  0  0  0  0
    5.1358   -8.7954    3.5897 H   0  0  0  0  0  0  0  0  0  0  0  0
    5.3586   -6.7696    0.6392 H   0  0  0  0  0  0  0  0  0  0  0  0
    3.7874   -7.0172    0.0357 H   0  0  0  0  0  0  0  0  0  0  0  0
    4.4328   -4.6147    0.2947 H   0  0  0  0  0  0  0  0  0  0  0  0
    2.8619   -5.1199    0.8425 H   0  0  0  0  0  0  0  0  0  0  0  0
    6.0351   -4.7867    3.7108 H   0  0  0  0  0  0  0  0  0  0  0  0
    6.2555   -3.7700    2.2992 H   0  0  0  0  0  0  0  0  0  0  0  0
    6.2055   -5.4766    2.1408 H   0  0  0  0  0  0  0  0  0  0  0  0
    4.0806   -5.5016    4.3859 H   0  0  0  0  0  0  0  0  0  0  0  0
    1.4083   -4.5251    3.4220 H   0  0  0  0  0  0  0  0  0  0  0  0
    1.7588   -5.2242    4.9736 H   0  0  0  0  0  0  0  0  0  0  0  0
    1.5593   -2.6757    4.7085 H   0  0  0  0  0  0  0  0  0  0  0  0
    2.7435   -3.3240    5.7892 H   0  0  0  0  0  0  0  0  0  0  0  0
    5.7967   -2.2584    4.2456 H   0  0  0  0  0  0  0  0  0  0  0  0
    5.1024   -3.5861    5.1776 H   0  0  0  0  0  0  0  0  0  0  0  0
    4.9120   -1.9637    5.7231 H   0  0  0  0  0  0  0  0  0  0  0  0
    4.1409   -0.4040    3.4958 H   0  0  0  0  0  0  0  0  0  0  0  0
    2.3121   -0.7917    5.8939 H   0  0  0  0  0  0  0  0  0  0  0  0
    3.8374    0.0754    5.8515 H   0  0  0  0  0  0  0  0  0  0  0  0
    1.5406    1.4465    5.6134 H   0  0  0  0  0  0  0  0  0  0  0  0
    3.5291    1.8452    3.6665 H   0  0  0  0  0  0  0  0  0  0  0  0
   -0.6091    0.9660    4.5203 H   0  0  0  0  0  0  0  0  0  0  0  0
    0.0165   -0.6483    4.8418 H   0  0  0  0  0  0  0  0  0  0  0  0
   -0.6682   -0.2583    3.2654 H   0  0  0  0  0  0  0  0  0  0  0  0
    0.6728    2.5664    2.9141 H   0  0  0  0  0  0  0  0  0  0  0  0
    0.4793    1.3180    1.7004 H   0  0  0  0  0  0  0  0  0  0  0  0
    2.0727    1.9652    2.0342 H   0  0  0  0  0  0  0  0  0  0  0  0
    0.9493   -1.1076    1.4224 H   0  0  0  0  0  0  0  0  0  0  0  0
    1.8385   -3.3780    1.5950 H   0  0  0  0  0  0  0  0  0  0  0  0
    2.3347   -1.9190   -0.2105 H   0  0  0  0  0  0  0  0  0  0  0  0
    4.6233   -2.4306    2.1147 H   0  0  0  0  0  0  0  0  0  0  0  0
    3.2457   -7.4084    4.1124 H   0  0  0  0  0  0  0  0  0  0  0  0
    0.9737   -6.9519    3.8504 H   0  0  0  0  0  0  0  0  0  0  0  0
   -0.1970   -7.1077    1.6781 H   0  0  0  0  0  0  0  0  0  0  0  0
    1.3283   -7.1194    0.8101 H   0  0  0  0  0  0  0  0  0  0  0  0
    0.8308   -5.6846    1.6945 H   0  0  0  0  0  0  0  0  0  0  0  0
  1  2  1  0
  1 31  1  0
  1 32  1  0
  1 33  1  0
  2 29  1  0
  2  3  2  0
  3  4  1  0
  3 34  1  0
  4  5  1  0
  4 35  1  0
  4 36  1  0
  5 28  1  0
  5  6  1  1
  5  7  1  0
  6 37  1  0
  6 38  1  0
  6 39  1  0
  7  8  1  0
  7 40  1  0
  7 41  1  0
  8  9  1  0
  8 42  1  0
  8 43  1  0
  9 27  1  0
  9 10  1  1
  9 11  1  0
 10 44  1  0
 10 45  1  0
 10 46  1  0
 11 12  1  0
 11 28  1  0
 11 47  1  1
 12 13  1  0
 12 48  1  0
 12 49  1  0
 13 14  1  0
 13 50  1  0
 13 51  1  0
 14 27  1  0
 14 15  1  1
 14 16  1  0
 15 52  1  0
 15 53  1  0
 15 54  1  0
 16 23  1  0
 16 17  1  0
 16 55  1  6
 17 18  1  0
 17 56  1  0
 17 57  1  0
 18 19  1  0
 18 20  1  0
 18 58  1  1
 19 59  1  0
 20 21  1  0
 20 22  1  0
 20 23  1  0
 21 60  1  0
 21 61  1  0
 21 62  1  0
 22 63  1  0
 22 64  1  0
 22 65  1  0
 23 24  2  0
 24 25  1  0
 24 66  1  0
 25 26  1  0
 25 27  1  0
 25 67  1  6
 26 68  1  0
 27 69  1  6
 28 29  1  0
 28 70  1  1
 29 30  1  0
 29 71  1  1
 30 72  1  0
 30 73  1  0
 30 74  1  0
M  END
>  <i_m_ct_stereo_status>  (18) 
1

>  <s_m_source_file>  (18) 
/var/tmp/pbs.5076255.sched01/tmpoa2zap1w/0_chicbso.sdf

>  <i_m_source_file_index>  (18) 
7

>  <i_lp_mmshare_version>  (18) 
48012

>  <i_f3d_flags>  (18) 
0

>  <s_epik_input>  (18) 
W0NIMl0xW0NIXT1DKFtDSDNdKVtDQEhdKFtDSDNdKVtDQEBIXShbQ0BAXTEyW0NIM10pW0NASF0zW0NAQF0oW0NIM10pKFtDSDJdW0NIMl0yKVtDQEBIXTRbQ0BdKFtDSDNdKShbQ0gyXVtDSDJdMylbQ0BIXTVDKEMoW0NIM10pKFtDSDNdKVtDQEBIXShbQ0gyXTUpW09IXSk9W0NIXVtDQEhdNFtPSF0=

>  <s_epik_cmdline>  (18) 
J2VwaWtfcHl0aG9uJywgJy1waHQnLCAnMi4wJywgJy1waCcsICc3LjAnLCAnLXRuJywgJzgnLCAnLW1hJywgJzIwMCcsICctaW1hZScsICc8aW5maWxlLm1hZT4nLCAnLW9tYWUnLCAnPG91dGZpbGUubWFlPic=

>  <r_lp_tautomer_probability>  (18) 
1

>  <r_epik_Ionization_Penalty>  (18) 
1.10333e-06

>  <r_epik_Ionization_Penalty_Charging>  (18) 
0

>  <r_epik_Ionization_Penalty_Neutral>  (18) 
1.10333e-06

>  <r_epik_State_Penalty>  (18) 
-0

>  <r_epik_Charging_Adjusted_Penalty>  (18) 
0

>  <i_epik_Tot_Q>  (18) 
0

>  <i_epik_Tot_abs_Q>  (18) 
0

>  <s_lp_Force_Field>  (18) 
OPLS3e

>  <r_lp_Energy>  (18) 
88.1377

>  <b_lp_Chiralities_Consistent>  (18) 
1

>  <s_lp_Variant>  (18) 
5:0-1

>  <s_i_glide_gridfile>  (18) 
pfpi4k_grid

>  <i_i_glide_lignum>  (18) 
7

>  <i_i_glide_rotatable_bonds>  (18) 
2

>  <r_i_docking_score>  (18) 
-2.87181

>  <r_i_glide_ligand_efficiency>  (18) 
-0.0957269

>  <r_i_glide_ligand_efficiency_sa>  (18) 
-0.297446

>  <r_i_glide_ligand_efficiency_ln>  (18) 
-0.652506

>  <r_i_glide_gscore>  (18) 
-2.87181

>  <r_i_glide_lipo>  (18) 
-0.221869

>  <r_i_glide_hbond>  (18) 
-0.16

>  <r_i_glide_metal>  (18) 
-0

>  <r_i_glide_rewards>  (18) 
-0.595583

>  <r_i_glide_evdw>  (18) 
-26.5853

>  <r_i_glide_ecoul>  (18) 
-3.76727

>  <r_i_glide_erotb>  (18) 
0

>  <r_i_glide_esite>  (18) 
0

>  <r_i_glide_emodel>  (18) 
-37.5609

>  <r_i_glide_energy>  (18) 
-30.3526

>  <r_i_glide_einternal>  (18) 
0.743945

>  <r_i_glide_intrahb_reward>  (18) 
-0

>  <i_i_glide_confnum>  (18) 
2

>  <i_i_glide_posenum>  (18) 
12

>  <r_i_glide_eff_state_penalty>  (18) 
0

>  <ligand_id>  (18) 
5

>  <original_smiles>  (18) 
CC1=CCC2(C)CCC3(C)C(CCC4(C)C5CC(O)C(C)(C)C5=CC(O)C43)C2C1C

>  <smiles>  (18) 
[H]OC1([H])C([H])=C2C([H])(C([H])([H])C([H])(O[H])C2(C([H])([H])[H])C([H])([H])[H])C2(C([H])([H])[H])C([H])([H])C([H])([H])C3([H])C4([H])C([H])(C([H])([H])[H])C(C([H])([H])[H])=C([H])C([H])([H])C4(C([H])([H])[H])C([H])([H])C([H])([H])C3(C([H])([H])[H])C12[H]

$$$$
6:0:0
     RDKit          3D

 37 42  0  0  1  0  0  0  0  0999 V2000
    3.1464   -2.1094    2.4930 C   0  0  0  0  0  0  0  0  0  0  0  0
    3.5220   -3.0061    1.3754 N   0  0  2  0  0  0  0  0  0  0  0  0
    4.8382   -3.7558    1.7264 C   0  0  0  0  0  0  0  0  0  0  0  0
    6.2430   -3.2300    1.1105 C   0  0  1  0  0  0  0  0  0  0  0  0
    6.8945   -3.7972   -0.2865 C   0  0  0  0  0  0  0  0  0  0  0  0
    6.3305   -2.9468   -1.6201 C   0  0  1  0  0  0  0  0  0  0  0  0
    4.9675   -2.6481   -2.4653 C   0  0  0  0  0  0  0  0  0  0  0  0
    3.6906   -3.2998   -2.5858 C   0  0  0  0  0  0  0  0  0  0  0  0
    2.9900   -2.7913   -3.7221 C   0  0  0  0  0  0  0  0  0  0  0  0
    3.2506   -1.4781   -4.2204 C   0  0  0  0  0  0  0  0  0  0  0  0
    4.1168   -0.6166   -3.5370 C   0  0  0  0  0  0  0  0  0  0  0  0
    4.0669    0.7353   -3.7384 O   0  0  0  0  0  0  0  0  0  0  0  0
    4.8562   -1.2488   -2.5492 C   0  0  0  0  0  0  0  0  0  0  0  0
    4.8620   -0.6533   -1.3039 O   0  0  0  0  0  0  0  0  0  0  0  0
    4.6396   -1.5768   -0.2090 C   0  0  1  0  0  0  0  0  0  0  0  0
    5.9136   -1.9423    0.5606 C   0  0  1  0  0  0  0  0  0  0  0  0
    5.4556   -2.7265   -0.5724 C   0  0  2  0  0  0  0  0  0  0  0  0
    3.3403   -2.2728    0.0356 C   0  0  1  0  0  0  0  0  0  0  0  0
    2.8750   -3.2230   -1.2075 C   0  0  0  0  0  0  0  0  0  0  0  0
    3.8568   -1.2920    2.5911 H   0  0  0  0  0  0  0  0  0  0  0  0
    3.1223   -2.6284    3.4503 H   0  0  0  0  0  0  0  0  0  0  0  0
    2.1592   -1.6712    2.3504 H   0  0  0  0  0  0  0  0  0  0  0  0
    4.9563   -3.7686    2.8043 H   0  0  0  0  0  0  0  0  0  0  0  0
    4.7330   -4.8128    1.4757 H   0  0  0  0  0  0  0  0  0  0  0  0
    7.0117   -3.1100    1.8842 H   0  0  0  0  0  0  0  0  0  0  0  0
    7.9722   -3.6713   -0.2299 H   0  0  0  0  0  0  0  0  0  0  0  0
    6.7238   -4.8813   -0.3247 H   0  0  0  0  0  0  0  0  0  0  0  0
    6.3994   -3.8566   -2.1935 H   0  0  0  0  0  0  0  0  0  0  0  0
    2.0416   -3.2329   -4.0154 H   0  0  0  0  0  0  0  0  0  0  0  0
    2.6085   -1.0585   -4.9757 H   0  0  0  0  0  0  0  0  0  0  0  0
    3.2259    1.1308   -3.5207 H   0  0  0  0  0  0  0  0  0  0  0  0
    6.7364   -1.2627    0.4471 H   0  0  0  0  0  0  0  0  0  0  0  0
    4.9058   -3.6889   -0.5233 H   0  0  0  0  0  0  0  0  0  0  0  0
    2.6167   -1.4798    0.1372 H   0  0  0  0  0  0  0  0  0  0  0  0
    1.8733   -2.9001   -1.4835 H   0  0  0  0  0  0  0  0  0  0  0  0
    2.7408   -4.2566   -0.8885 H   0  0  0  0  0  0  0  0  0  0  0  0
    2.8197   -3.7062    1.3949 H   0  0  0  0  0  0  0  0  0  0  0  0
  1  2  1  0
  1 20  1  0
  1 21  1  0
  1 22  1  0
  2 18  1  0
  2  3  1  0
  2 37  1  6
  3  4  1  0
  3 23  1  0
  3 24  1  0
  4 16  1  0
  4  5  1  0
  4 25  1  1
  5  6  1  0
  5 26  1  0
  5 27  1  0
  6 17  1  0
  6  7  1  0
  6 28  1  6
  7 13  1  0
  7  8  2  0
  8 19  1  0
  8  9  1  0
  9 10  2  0
  9 29  1  0
 10 11  1  0
 10 30  1  0
 11 12  1  0
 11 13  2  0
 12 31  1  0
 13 14  1  0
 15 14  1  6
 15 17  1  0
 15 16  1  0
 15 18  1  0
 16 17  1  0
 16 32  1  6
 17 33  1  1
 18 19  1  0
 18 34  1  1
 19 35  1  0
 19 36  1  0
M  CHG  1   2   1
M  END
>  <i_m_ct_stereo_status>  (19) 
1

>  <s_m_source_file>  (19) 
/var/tmp/pbs.5076255.sched01/tmpoa2zap1w/0_chicbso.sdf

>  <i_m_source_file_index>  (19) 
8

>  <i_lp_mmshare_version>  (19) 
48012

>  <i_f3d_flags>  (19) 
0

>  <s_epik_input>  (19) 
QzEyM1tDQEhdNFtDQEhdNVtDSDJdTihbQ0gzXSlbQ0hdM1tDSDJdYzZjKFtDQEBIXShbQ0gyXTUpW0NASF0yNCljKE8xKWMoW09IXSlbY0hdW2NIXTY=

>  <s_epik_cmdline>  (19) 
J2VwaWtfcHl0aG9uJywgJy1waHQnLCAnMi4wJywgJy1waCcsICc3LjAnLCAnLXRuJywgJzgnLCAnLW1hJywgJzIwMCcsICctaW1hZScsICc8aW5maWxlLm1hZT4nLCAnLW9tYWUnLCAnPG91dGZpbGUubWFlPic=

>  <r_lp_tautomer_probability>  (19) 
1

>  <r_epik_Ionization_Penalty>  (19) 
0.0248869

>  <r_epik_Ionization_Penalty_Charging>  (19) 
0.023499

>  <r_epik_Ionization_Penalty_Neutral>  (19) 
0.00138793

>  <r_epik_State_Penalty>  (19) 
0.0190221

>  <r_epik_Charging_Adjusted_Penalty>  (19) 
0.0425211

>  <i_epik_Tot_Q>  (19) 
1

>  <i_epik_Tot_abs_Q>  (19) 
1

>  <s_lp_Force_Field>  (19) 
OPLS3e

>  <r_lp_Energy>  (19) 
399.099

>  <b_lp_Chiralities_Consistent>  (19) 
1

>  <s_lp_Variant>  (19) 
6:0-1

>  <s_i_glide_gridfile>  (19) 
pfpi4k_grid

>  <i_i_glide_lignum>  (19) 
8

>  <i_i_glide_rotatable_bonds>  (19) 
1

>  <r_i_docking_score>  (19) 
-4.69537

>  <r_i_glide_ligand_efficiency>  (19) 
-0.247125

>  <r_i_glide_ligand_efficiency_sa>  (19) 
-0.659428

>  <r_i_glide_ligand_efficiency_ln>  (19) 
-1.19038

>  <r_i_glide_gscore>  (19) 
-4.69537

>  <r_i_glide_lipo>  (19) 
-0.948676

>  <r_i_glide_hbond>  (19) 
0

>  <r_i_glide_metal>  (19) 
-0

>  <r_i_glide_rewards>  (19) 
-1.66146

>  <r_i_glide_evdw>  (19) 
-15.4303

>  <r_i_glide_ecoul>  (19) 
-8.74279

>  <r_i_glide_erotb>  (19) 
0

>  <r_i_glide_esite>  (19) 
-0.00230088

>  <r_i_glide_emodel>  (19) 
-29.0162

>  <r_i_glide_energy>  (19) 
-24.1731

>  <r_i_glide_einternal>  (19) 
2.55504

>  <r_i_glide_intrahb_reward>  (19) 
-0

>  <i_i_glide_confnum>  (19) 
1

>  <i_i_glide_posenum>  (19) 
3

>  <r_i_glide_eff_state_penalty>  (19) 
0

>  <ligand_id>  (19) 
6

>  <original_smiles>  (19) 
CN1CC2CC3c4c5ccc(O)c4OC4(C2C34)C1C5

>  <smiles>  (19) 
[H]Oc1c([H])c([H])c2c3c1OC14C5([H])C3([H])C([H])([H])C([H])(C51[H])C([H])([H])[N+]([H])(C([H])([H])[H])C4([H])C2([H])[H]

$$$$
6:0:1
     RDKit          3D

 37 42  0  0  1  0  0  0  0  0999 V2000
    3.2780   -0.0929    2.5604 C   0  0  0  0  0  0  0  0  0  0  0  0
    3.7304   -1.3524    1.9107 N   0  0  2  0  0  0  0  0  0  0  0  0
    5.1510   -1.7442    2.4150 C   0  0  0  0  0  0  0  0  0  0  0  0
    6.4306   -1.3891    1.4776 C   0  0  1  0  0  0  0  0  0  0  0  0
    7.0980   -2.4539    0.4092 C   0  0  0  0  0  0  0  0  0  0  0  0
    6.3615   -2.3756   -1.0923 C   0  0  1  0  0  0  0  0  0  0  0  0
    4.9388   -2.6026   -1.8533 C   0  0  0  0  0  0  0  0  0  0  0  0
    3.7389   -3.3367   -1.5384 C   0  0  0  0  0  0  0  0  0  0  0  0
    2.9113   -3.4479   -2.6962 C   0  0  0  0  0  0  0  0  0  0  0  0
    2.9862   -2.5076   -3.7589 C   0  0  0  0  0  0  0  0  0  0  0  0
    3.7630   -1.3424   -3.6216 C   0  0  0  0  0  0  0  0  0  0  0  0
    3.5113   -0.2029   -4.3241 O   0  0  0  0  0  0  0  0  0  0  0  0
    4.6379   -1.3915   -2.5266 C   0  0  0  0  0  0  0  0  0  0  0  0
    4.6102   -0.3119   -1.6852 O   0  0  0  0  0  0  0  0  0  0  0  0
    4.5843   -0.6766   -0.2708 C   0  0  1  0  0  0  0  0  0  0  0  0
    5.8964   -0.5129    0.4696 C   0  0  1  0  0  0  0  0  0  0  0  0
    5.5059   -1.7879   -0.1683 C   0  0  2  0  0  0  0  0  0  0  0  0
    3.3991   -1.3273    0.4021 C   0  0  1  0  0  0  0  0  0  0  0  0
    2.9956   -2.7714   -0.2413 C   0  0  0  0  0  0  0  0  0  0  0  0
    3.8716    0.7484    2.2092 H   0  0  0  0  0  0  0  0  0  0  0  0
    3.3754   -0.1455    3.6423 H   0  0  0  0  0  0  0  0  0  0  0  0
    2.2326    0.1169    2.3375 H   0  0  0  0  0  0  0  0  0  0  0  0
    5.3194   -1.2521    3.3713 H   0  0  0  0  0  0  0  0  0  0  0  0
    5.1750   -2.8091    2.6521 H   0  0  0  0  0  0  0  0  0  0  0  0
    7.1839   -0.8524    2.0497 H   0  0  0  0  0  0  0  0  0  0  0  0
    8.1499   -2.2015    0.2938 H   0  0  0  0  0  0  0  0  0  0  0  0
    7.0887   -3.4680    0.8343 H   0  0  0  0  0  0  0  0  0  0  0  0
    6.5156   -3.4483   -1.1799 H   0  0  0  0  0  0  0  0  0  0  0  0
    2.0118   -4.0602   -2.6673 H   0  0  0  0  0  0  0  0  0  0  0  0
    2.2350   -2.5564   -4.5249 H   0  0  0  0  0  0  0  0  0  0  0  0
    3.5986    0.5756   -3.8053 H   0  0  0  0  0  0  0  0  0  0  0  0
    6.6425    0.1258    0.0047 H   0  0  0  0  0  0  0  0  0  0  0  0
    5.0984   -2.6912    0.3626 H   0  0  0  0  0  0  0  0  0  0  0  0
    2.6141   -0.6081    0.2275 H   0  0  0  0  0  0  0  0  0  0  0  0
    1.9448   -2.7003   -0.5077 H   0  0  0  0  0  0  0  0  0  0  0  0
    3.0280   -3.5547    0.5168 H   0  0  0  0  0  0  0  0  0  0  0  0
    3.1178   -2.0535    2.2969 H   0  0  0  0  0  0  0  0  0  0  0  0
  1  2  1  0
  1 20  1  0
  1 21  1  0
  1 22  1  0
  2 18  1  0
  2  3  1  0
  2 37  1  1
  3  4  1  0
  3 23  1  0
  3 24  1  0
  4 16  1  0
  4  5  1  0
  4 25  1  1
  5  6  1  0
  5 26  1  0
  5 27  1  0
  6 17  1  0
  6  7  1  0
  6 28  1  6
  7 13  1  0
  7  8  2  0
  8 19  1  0
  8  9  1  0
  9 10  2  0
  9 29  1  0
 10 11  1  0
 10 30  1  0
 11 12  1  0
 11 13  2  0
 12 31  1  0
 13 14  1  0
 15 14  1  6
 15 17  1  0
 15 16  1  0
 15 18  1  0
 16 17  1  0
 16 32  1  6
 17 33  1  1
 18 19  1  0
 18 34  1  1
 19 35  1  0
 19 36  1  0
M  CHG  1   2   1
M  END
>  <i_m_ct_stereo_status>  (20) 
1

>  <s_m_source_file>  (20) 
/var/tmp/pbs.5076255.sched01/tmpoa2zap1w/0_chicbso.sdf

>  <i_m_source_file_index>  (20) 
8

>  <i_lp_mmshare_version>  (20) 
48012

>  <i_f3d_flags>  (20) 
0

>  <s_epik_input>  (20) 
QzEyM1tDQEhdNFtDQEhdNVtDSDJdTihbQ0gzXSlbQ0hdM1tDSDJdYzZjKFtDQEBIXShbQ0gyXTUpW0NASF0yNCljKE8xKWMoW09IXSlbY0hdW2NIXTY=

>  <s_epik_cmdline>  (20) 
J2VwaWtfcHl0aG9uJywgJy1waHQnLCAnMi4wJywgJy1waCcsICc3LjAnLCAnLXRuJywgJzgnLCAnLW1hJywgJzIwMCcsICctaW1hZScsICc8aW5maWxlLm1hZT4nLCAnLW9tYWUnLCAnPG91dGZpbGUubWFlPic=

>  <r_lp_tautomer_probability>  (20) 
1

>  <r_epik_Ionization_Penalty>  (20) 
0.0248869

>  <r_epik_Ionization_Penalty_Charging>  (20) 
0.023499

>  <r_epik_Ionization_Penalty_Neutral>  (20) 
0.00138793

>  <r_epik_State_Penalty>  (20) 
0.0190221

>  <r_epik_Charging_Adjusted_Penalty>  (20) 
0.0425211

>  <i_epik_Tot_Q>  (20) 
1

>  <i_epik_Tot_abs_Q>  (20) 
1

>  <s_lp_Force_Field>  (20) 
OPLS3e

>  <r_lp_Energy>  (20) 
399.099

>  <b_lp_Chiralities_Consistent>  (20) 
1

>  <s_lp_Variant>  (20) 
6:0-1

>  <s_i_glide_gridfile>  (20) 
pfpi4k_grid

>  <i_i_glide_lignum>  (20) 
8

>  <i_i_glide_rotatable_bonds>  (20) 
1

>  <r_i_docking_score>  (20) 
-4.328

>  <r_i_glide_ligand_efficiency>  (20) 
-0.227789

>  <r_i_glide_ligand_efficiency_sa>  (20) 
-0.607833

>  <r_i_glide_ligand_efficiency_ln>  (20) 
-1.09724

>  <r_i_glide_gscore>  (20) 
-4.328

>  <r_i_glide_lipo>  (20) 
-0.934219

>  <r_i_glide_hbond>  (20) 
0

>  <r_i_glide_metal>  (20) 
-0

>  <r_i_glide_rewards>  (20) 
-1.66146

>  <r_i_glide_evdw>  (20) 
-18.3694

>  <r_i_glide_ecoul>  (20) 
-5.36649

>  <r_i_glide_erotb>  (20) 
0

>  <r_i_glide_esite>  (20) 
-0.00887492

>  <r_i_glide_emodel>  (20) 
-29.3172

>  <r_i_glide_energy>  (20) 
-23.7359

>  <r_i_glide_einternal>  (20) 
1.1814

>  <r_i_glide_intrahb_reward>  (20) 
-0

>  <i_i_glide_confnum>  (20) 
1

>  <i_i_glide_posenum>  (20) 
28

>  <r_i_glide_eff_state_penalty>  (20) 
0

>  <ligand_id>  (20) 
6

>  <original_smiles>  (20) 
CN1CC2CC3c4c5ccc(O)c4OC4(C2C34)C1C5

>  <smiles>  (20) 
[H]Oc1c([H])c([H])c2c3c1OC14C5([H])C3([H])C([H])([H])C([H])(C51[H])C([H])([H])[N+]([H])(C([H])([H])[H])C4([H])C2([H])[H]

$$$$
6:1:0
     RDKit          3D

 36 41  0  0  1  0  0  0  0  0999 V2000
    2.7895   -3.4469    2.2158 C   0  0  0  0  0  0  0  0  0  0  0  0
    3.9076   -2.7918    1.5554 N   0  0  0  0  0  0  0  0  0  0  0  0
    5.2267   -3.5195    1.8413 C   0  0  0  0  0  0  0  0  0  0  0  0
    6.5554   -3.0956    0.9991 C   0  0  1  0  0  0  0  0  0  0  0  0
    7.0083   -3.8067   -0.4062 C   0  0  0  0  0  0  0  0  0  0  0  0
    6.2882   -3.0664   -1.7232 C   0  0  1  0  0  0  0  0  0  0  0  0
    4.8533   -2.7733   -2.4402 C   0  0  0  0  0  0  0  0  0  0  0  0
    3.5522   -3.3640   -2.3066 C   0  0  0  0  0  0  0  0  0  0  0  0
    2.6941   -2.9435   -3.3685 C   0  0  0  0  0  0  0  0  0  0  0  0
    2.9017   -1.6810   -3.9772 C   0  0  0  0  0  0  0  0  0  0  0  0
    3.8678   -0.7686   -3.5140 C   0  0  0  0  0  0  0  0  0  0  0  0
    3.8155    0.5539   -3.7992 O   0  0  0  0  0  0  0  0  0  0  0  0
    4.7575   -1.3752   -2.5961 C   0  0  0  0  0  0  0  0  0  0  0  0
    4.9244   -0.6724   -1.4227 O   0  0  0  0  0  0  0  0  0  0  0  0
    4.8243   -1.5075   -0.2347 C   0  0  1  0  0  0  0  0  0  0  0  0
    6.1837   -1.8396    0.3977 C   0  0  1  0  0  0  0  0  0  0  0  0
    5.5567   -2.7210   -0.5990 C   0  0  2  0  0  0  0  0  0  0  0  0
    3.5253   -2.1632    0.2220 C   0  0  1  0  0  0  0  0  0  0  0  0
    2.8943   -3.1896   -0.8683 C   0  0  0  0  0  0  0  0  0  0  0  0
    3.0063   -3.5978    3.2784 H   0  0  0  0  0  0  0  0  0  0  0  0
    2.5766   -4.4308    1.7821 H   0  0  0  0  0  0  0  0  0  0  0  0
    1.8852   -2.8358    2.1451 H   0  0  0  0  0  0  0  0  0  0  0  0
    5.4578   -3.2736    2.8758 H   0  0  0  0  0  0  0  0  0  0  0  0
    5.1026   -4.6071    1.8370 H   0  0  0  0  0  0  0  0  0  0  0  0
    7.4118   -2.9809    1.6646 H   0  0  0  0  0  0  0  0  0  0  0  0
    8.0876   -3.6954   -0.5181 H   0  0  0  0  0  0  0  0  0  0  0  0
    6.8288   -4.8855   -0.3130 H   0  0  0  0  0  0  0  0  0  0  0  0
    6.2004   -4.0329   -2.2163 H   0  0  0  0  0  0  0  0  0  0  0  0
    1.6971   -3.3580   -3.4832 H   0  0  0  0  0  0  0  0  0  0  0  0
    2.1700   -1.2817   -4.6648 H   0  0  0  0  0  0  0  0  0  0  0  0
    3.0026    0.9913   -3.5331 H   0  0  0  0  0  0  0  0  0  0  0  0
    7.0183   -1.2372    0.0768 H   0  0  0  0  0  0  0  0  0  0  0  0
    4.9939   -3.6670   -0.4031 H   0  0  0  0  0  0  0  0  0  0  0  0
    2.8188   -1.3535    0.4097 H   0  0  0  0  0  0  0  0  0  0  0  0
    1.8662   -2.8814   -1.0233 H   0  0  0  0  0  0  0  0  0  0  0  0
    2.8229   -4.1919   -0.4481 H   0  0  0  0  0  0  0  0  0  0  0  0
  1  2  1  0
  1 20  1  0
  1 21  1  0
  1 22  1  0
  2 18  1  0
  2  3  1  0
  3  4  1  0
  3 23  1  0
  3 24  1  0
  4 16  1  0
  4  5  1  0
  4 25  1  1
  5  6  1  0
  5 26  1  0
  5 27  1  0
  6 17  1  0
  6  7  1  0
  6 28  1  6
  7 13  1  0
  7  8  2  0
  8 19  1  0
  8  9  1  0
  9 10  2  0
  9 29  1  0
 10 11  1  0
 10 30  1  0
 11 12  1  0
 11 13  2  0
 12 31  1  0
 13 14  1  0
 15 14  1  6
 15 17  1  0
 15 16  1  0
 15 18  1  0
 16 17  1  0
 16 32  1  6
 17 33  1  1
 18 19  1  0
 18 34  1  1
 19 35  1  0
 19 36  1  0
M  END
>  <i_m_ct_stereo_status>  (21) 
1

>  <s_m_source_file>  (21) 
/var/tmp/pbs.5076255.sched01/tmpoa2zap1w/0_chicbso.sdf

>  <i_m_source_file_index>  (21) 
9

>  <i_lp_mmshare_version>  (21) 
48012

>  <i_f3d_flags>  (21) 
0

>  <s_epik_input>  (21) 
QzEyM1tDQEhdNFtDQEhdNVtDSDJdTihbQ0gzXSlbQ0hdM1tDSDJdYzZjKFtDQEBIXShbQ0gyXTUpW0NASF0yNCljKE8xKWMoW09IXSlbY0hdW2NIXTY=

>  <s_epik_cmdline>  (21) 
J2VwaWtfcHl0aG9uJywgJy1waHQnLCAnMi4wJywgJy1waCcsICc3LjAnLCAnLXRuJywgJzgnLCAnLW1hJywgJzIwMCcsICctaW1hZScsICc8aW5maWxlLm1hZT4nLCAnLW9tYWUnLCAnPG91dGZpbGUubWFlPic=

>  <r_lp_tautomer_probability>  (21) 
1

>  <r_epik_Ionization_Penalty>  (21) 
1.92404

>  <r_epik_Ionization_Penalty_Charging>  (21) 
0

>  <r_epik_Ionization_Penalty_Neutral>  (21) 
1.92404

>  <r_epik_State_Penalty>  (21) 
2.04688

>  <r_epik_Charging_Adjusted_Penalty>  (21) 
2.04688

>  <i_epik_Tot_Q>  (21) 
0

>  <i_epik_Tot_abs_Q>  (21) 
0

>  <s_lp_Force_Field>  (21) 
OPLS3e

>  <r_lp_Energy>  (21) 
399.095

>  <b_lp_Chiralities_Consistent>  (21) 
1

>  <s_lp_Variant>  (21) 
6:0-2

>  <s_i_glide_gridfile>  (21) 
pfpi4k_grid

>  <i_i_glide_lignum>  (21) 
9

>  <i_i_glide_rotatable_bonds>  (21) 
1

>  <r_i_docking_score>  (21) 
-4.43356

>  <r_i_glide_ligand_efficiency>  (21) 
-0.233345

>  <r_i_glide_ligand_efficiency_sa>  (21) 
-0.622658

>  <r_i_glide_ligand_efficiency_ln>  (21) 
-1.124

>  <r_i_glide_gscore>  (21) 
-4.43356

>  <r_i_glide_lipo>  (21) 
-0.966304

>  <r_i_glide_hbond>  (21) 
0

>  <r_i_glide_metal>  (21) 
-0

>  <r_i_glide_rewards>  (21) 
-1.66833

>  <r_i_glide_evdw>  (21) 
-18.6538

>  <r_i_glide_ecoul>  (21) 
-5.77487

>  <r_i_glide_erotb>  (21) 
0

>  <r_i_glide_esite>  (21) 
0

>  <r_i_glide_emodel>  (21) 
-28.7997

>  <r_i_glide_energy>  (21) 
-24.4287

>  <r_i_glide_einternal>  (21) 
2.25301

>  <r_i_glide_intrahb_reward>  (21) 
-0

>  <i_i_glide_confnum>  (21) 
1

>  <i_i_glide_posenum>  (21) 
11

>  <r_i_glide_eff_state_penalty>  (21) 
0

>  <ligand_id>  (21) 
6

>  <original_smiles>  (21) 
CN1CC2CC3c4c5ccc(O)c4OC4(C2C34)C1C5

>  <smiles>  (21) 
[H]Oc1c([H])c([H])c2c3c1OC14C([H])(N(C([H])([H])[H])C([H])([H])C5([H])C([H])([H])C3([H])C1([H])C54[H])C2([H])[H]

$$$$
7:0:0
     RDKit          3D

 77 83  0  0  1  0  0  0  0  0999 V2000
    5.6478   -2.3821    1.8452 C   0  0  0  0  0  0  0  0  0  0  0  0
    4.0906   -2.3956    1.7691 C   0  0  0  0  0  0  0  0  0  0  0  0
    3.7106   -2.0714    0.3010 C   0  0  0  0  0  0  0  0  0  0  0  0
    3.5330   -3.8095    2.0811 C   0  0  1  0  0  0  0  0  0  0  0  0
    4.1825   -4.8094    1.3231 O   0  0  0  0  0  0  0  0  0  0  0  0
    3.6321   -4.1835    3.5602 C   0  0  0  0  0  0  0  0  0  0  0  0
    2.9268   -3.1467    4.4486 C   0  0  0  0  0  0  0  0  0  0  0  0
    3.3789   -1.6620    4.2623 C   0  0  1  0  0  0  0  0  0  0  0  0
    4.8318   -1.5823    4.8348 C   0  0  0  0  0  0  0  0  0  0  0  0
    3.3774   -1.3536    2.7217 C   0  0  1  0  0  0  0  0  0  0  0  0
    3.6456    0.1210    2.3416 C   0  0  0  0  0  0  0  0  0  0  0  0
    3.1789    1.2426    3.2930 C   0  0  0  0  0  0  0  0  0  0  0  0
    1.7127    1.3133    3.8850 C   0  0  2  0  0  0  0  0  0  0  0  0
    0.9762    1.6710    2.5529 C   0  0  0  0  0  0  0  0  0  0  0  0
    1.8325    2.3213    5.1447 C   0  0  1  0  0  0  0  0  0  0  0  0
    0.7174    3.4482    5.3951 C   0  0  2  0  0  0  0  0  0  0  0  0
   -0.4141    2.9747    6.2950 C   0  0  0  0  0  0  0  0  0  0  0  0
   -0.9632    1.6657    5.6727 C   0  0  1  0  0  0  0  0  0  0  0  0
   -1.7829    2.0646    4.3871 C   0  0  0  0  0  0  0  0  0  0  0  0
   -1.2515    3.2904    3.6295 C   0  0  1  0  0  0  0  0  0  0  0  0
   -1.3021    4.5582    4.3352 O   0  0  0  0  0  0  0  0  0  0  0  0
    0.0142    3.9818    4.1698 C   0  0  1  0  0  0  0  0  0  0  0  0
    0.7967    4.7675    3.2764 O   0  0  0  0  0  0  0  0  0  0  0  0
    0.0647    0.4236    5.7360 C   0  0  2  0  0  0  0  0  0  0  0  0
    0.8898    0.6842    7.0153 C   0  0  1  0  0  0  0  0  0  0  0  0
    1.0471   -0.4707    8.0275 C   0  0  0  0  0  0  0  0  0  0  0  0
    0.2067   -1.3811    8.0977 O   0  0  0  0  0  0  0  0  0  0  0  0
    2.1591    1.4400    6.4781 C   0  0  2  0  0  0  0  0  0  0  0  0
    2.8203    2.3029    7.5761 C   0  0  0  0  0  0  0  0  0  0  0  0
    3.1026    0.2591    6.1256 C   0  0  0  0  0  0  0  0  0  0  0  0
    2.3867   -0.7488    5.1467 C   0  0  1  0  0  0  0  0  0  0  0  0
    1.1068    0.0153    4.5427 C   0  0  2  0  0  0  0  0  0  0  0  0
    0.2338   -0.8923    3.6311 C   0  0  0  0  0  0  0  0  0  0  0  0
    6.1065   -2.6336    0.8864 H   0  0  0  0  0  0  0  0  0  0  0  0
    6.0305   -3.1264    2.5390 H   0  0  0  0  0  0  0  0  0  0  0  0
    6.0609   -1.4210    2.1505 H   0  0  0  0  0  0  0  0  0  0  0  0
    2.6260   -1.9726    0.1854 H   0  0  0  0  0  0  0  0  0  0  0  0
    4.0338   -2.8477   -0.3938 H   0  0  0  0  0  0  0  0  0  0  0  0
    4.1640   -1.1417   -0.0512 H   0  0  0  0  0  0  0  0  0  0  0  0
    2.4813   -3.8370    1.8046 H   0  0  0  0  0  0  0  0  0  0  0  0
    3.9904   -4.6805    0.4097 H   0  0  0  0  0  0  0  0  0  0  0  0
    3.1512   -5.1481    3.7148 H   0  0  0  0  0  0  0  0  0  0  0  0
    4.6650   -4.3301    3.8696 H   0  0  0  0  0  0  0  0  0  0  0  0
    1.8634   -3.2319    4.2390 H   0  0  0  0  0  0  0  0  0  0  0  0
    3.0460   -3.4432    5.4922 H   0  0  0  0  0  0  0  0  0  0  0  0
    5.3360   -0.6532    4.5614 H   0  0  0  0  0  0  0  0  0  0  0  0
    5.4744   -2.3779    4.4770 H   0  0  0  0  0  0  0  0  0  0  0  0
    4.8665   -1.6837    5.9205 H   0  0  0  0  0  0  0  0  0  0  0  0
    2.3564   -1.5105    2.4289 H   0  0  0  0  0  0  0  0  0  0  0  0
    4.7145    0.2602    2.2076 H   0  0  0  0  0  0  0  0  0  0  0  0
    3.2360    0.3155    1.3532 H   0  0  0  0  0  0  0  0  0  0  0  0
    3.9642    1.3718    4.0182 H   0  0  0  0  0  0  0  0  0  0  0  0
    3.3301    2.1669    2.7367 H   0  0  0  0  0  0  0  0  0  0  0  0
   -0.0852    1.5102    2.5654 H   0  0  0  0  0  0  0  0  0  0  0  0
    1.2581    1.0094    1.7400 H   0  0  0  0  0  0  0  0  0  0  0  0
    1.2066    2.6579    2.1667 H   0  0  0  0  0  0  0  0  0  0  0  0
    2.7139    2.9340    4.9553 H   0  0  0  0  0  0  0  0  0  0  0  0
    1.1863    4.3065    5.8777 H   0  0  0  0  0  0  0  0  0  0  0  0
   -0.0956    3.0047    7.3224 H   0  0  0  0  0  0  0  0  0  0  0  0
   -1.2240    3.6925    6.3925 H   0  0  0  0  0  0  0  0  0  0  0  0
   -1.7405    1.3562    6.3673 H   0  0  0  0  0  0  0  0  0  0  0  0
   -1.8872    1.2360    3.6891 H   0  0  0  0  0  0  0  0  0  0  0  0
   -2.8078    2.3094    4.6703 H   0  0  0  0  0  0  0  0  0  0  0  0
   -1.5274    3.3974    2.5851 H   0  0  0  0  0  0  0  0  0  0  0  0
    0.5762    4.5644    2.3718 H   0  0  0  0  0  0  0  0  0  0  0  0
   -0.5542   -0.4560    5.9121 H   0  0  0  0  0  0  0  0  0  0  0  0
    0.3356    1.2648    7.7326 H   0  0  0  0  0  0  0  0  0  0  0  0
    1.9052   -0.4183    8.6907 H   0  0  0  0  0  0  0  0  0  0  0  0
    3.0673    1.7168    8.4674 H   0  0  0  0  0  0  0  0  0  0  0  0
    2.1723    3.1225    7.8963 H   0  0  0  0  0  0  0  0  0  0  0  0
    3.7493    2.7464    7.2119 H   0  0  0  0  0  0  0  0  0  0  0  0
    4.0679    0.6357    5.8164 H   0  0  0  0  0  0  0  0  0  0  0  0
    3.3998   -0.2915    7.0152 H   0  0  0  0  0  0  0  0  0  0  0  0
    1.9210   -1.4836    5.7969 H   0  0  0  0  0  0  0  0  0  0  0  0
    0.2232   -1.9266    3.9642 H   0  0  0  0  0  0  0  0  0  0  0  0
    0.4872   -0.8801    2.5729 H   0  0  0  0  0  0  0  0  0  0  0  0
   -0.8111   -0.5889    3.6469 H   0  0  0  0  0  0  0  0  0  0  0  0
  1  2  1  0
  1 34  1  0
  1 35  1  0
  1 36  1  0
  2 10  1  0
  2  3  1  0
  2  4  1  0
  3 37  1  0
  3 38  1  0
  3 39  1  0
  4  5  1  0
  4  6  1  0
  4 40  1  6
  5 41  1  0
  6  7  1  0
  6 42  1  0
  6 43  1  0
  7  8  1  0
  7 44  1  0
  7 45  1  0
  8 31  1  0
  8  9  1  1
  8 10  1  0
  9 46  1  0
  9 47  1  0
  9 48  1  0
 10 11  1  0
 10 49  1  6
 11 12  1  0
 11 50  1  0
 11 51  1  0
 12 13  1  0
 12 52  1  0
 12 53  1  0
 13 32  1  0
 13 14  1  6
 13 15  1  0
 14 54  1  0
 14 55  1  0
 14 56  1  0
 15 28  1  0
 15 16  1  0
 15 57  1  6
 16 22  1  0
 16 17  1  0
 16 58  1  1
 17 18  1  0
 17 59  1  0
 17 60  1  0
 18 19  1  0
 18 24  1  0
 18 61  1  1
 19 20  1  0
 19 62  1  0
 19 63  1  0
 20 22  1  0
 20 21  1  0
 20 64  1  6
 21 22  1  0
 22 23  1  6
 23 65  1  0
 24 32  1  0
 24 25  1  0
 24 66  1  1
 25 26  1  0
 25 28  1  0
 25 67  1  1
 26 27  2  0
 26 68  1  0
 28 29  1  1
 28 30  1  0
 29 69  1  0
 29 70  1  0
 29 71  1  0
 30 31  1  0
 30 72  1  0
 30 73  1  0
 31 32  1  0
 31 74  1  1
 32 33  1  6
 33 75  1  0
 33 76  1  0
 33 77  1  0
M  END
>  <i_m_ct_stereo_status>  (22) 
1

>  <s_m_source_file>  (22) 
/var/tmp/pbs.5076255.sched01/tmpoa2zap1w/0_chicbso.sdf

>  <i_m_source_file_index>  (22) 
10

>  <i_lp_mmshare_version>  (22) 
48012

>  <i_f3d_flags>  (22) 
0

>  <s_epik_input>  (22) 
W0NIMl0xW0NIMl1bQ0BIXShbT0hdKUMoW0NIM10pKFtDSDNdKVtDQEBIXShbQ0BdMTJbQ0gzXSlbQ0gyXVtDSDJdW0NAXTMoW0NIM10pW0NASF00W0NASF01W0NAQF02KFtPSF0pW0NASF0oTzYpW0NIMl1bQ0BIXShbQ0gyXTUpW0NASF03W0NAXTMoW0NIM10pW0NAQEhdMltDSDJdW0NAXTQoW0NIM10pW0NAQEhdN1tDSF09Tw==

>  <s_epik_cmdline>  (22) 
J2VwaWtfcHl0aG9uJywgJy1waHQnLCAnMi4wJywgJy1waCcsICc3LjAnLCAnLXRuJywgJzgnLCAnLW1hJywgJzIwMCcsICctaW1hZScsICc8aW5maWxlLm1hZT4nLCAnLW9tYWUnLCAnPG91dGZpbGUubWFlPic=

>  <r_lp_tautomer_probability>  (22) 
1

>  <r_epik_Ionization_Penalty>  (22) 
3.1033e-06

>  <r_epik_Ionization_Penalty_Charging>  (22) 
0

>  <r_epik_Ionization_Penalty_Neutral>  (22) 
3.1033e-06

>  <r_epik_State_Penalty>  (22) 
-0

>  <r_epik_Charging_Adjusted_Penalty>  (22) 
0

>  <i_epik_Tot_Q>  (22) 
0

>  <i_epik_Tot_abs_Q>  (22) 
0

>  <s_lp_Force_Field>  (22) 
OPLS3e

>  <r_lp_Energy>  (22) 
189.721

>  <b_lp_Chiralities_Consistent>  (22) 
1

>  <s_lp_Variant>  (22) 
7:0-1

>  <s_i_glide_gridfile>  (22) 
pfpi4k_grid

>  <i_i_glide_lignum>  (22) 
10

>  <i_i_glide_rotatable_bonds>  (22) 
3

>  <r_i_docking_score>  (22) 
-3.23495

>  <r_i_glide_ligand_efficiency>  (22) 
-0.0980289

>  <r_i_glide_ligand_efficiency_sa>  (22) 
-0.314431

>  <r_i_glide_ligand_efficiency_ln>  (22) 
-0.719437

>  <r_i_glide_gscore>  (22) 
-3.23495

>  <r_i_glide_lipo>  (22) 
-0.11354

>  <r_i_glide_hbond>  (22) 
-0.116736

>  <r_i_glide_metal>  (22) 
-0

>  <r_i_glide_rewards>  (22) 
-0.295519

>  <r_i_glide_evdw>  (22) 
-23.4723

>  <r_i_glide_ecoul>  (22) 
-9.77108

>  <r_i_glide_erotb>  (22) 
0

>  <r_i_glide_esite>  (22) 
-0.0698811

>  <r_i_glide_emodel>  (22) 
-40.3499

>  <r_i_glide_energy>  (22) 
-33.2434

>  <r_i_glide_einternal>  (22) 
1.02307

>  <r_i_glide_intrahb_reward>  (22) 
-0

>  <i_i_glide_confnum>  (22) 
2

>  <i_i_glide_posenum>  (22) 
34

>  <r_i_glide_eff_state_penalty>  (22) 
0

>  <ligand_id>  (22) 
7

>  <original_smiles>  (22) 
CC1(C)C(O)CCC2(C)C1CCC1(C)C3C4CC(CC5OC54O)C4C(C=O)C3(C)CC2C41C

>  <smiles>  (22) 
[H]OC1([H])C([H])([H])C([H])([H])C2(C([H])([H])[H])C([H])(C([H])([H])C([H])([H])C3(C([H])([H])[H])C4([H])C5([H])C([H])([H])C([H])(C([H])([H])C6([H])OC65O[H])C5([H])C([H])(C([H])=O)C4(C([H])([H])[H])C([H])([H])C2([H])C53C([H])([H])[H])C1(C([H])([H])[H])C([H])([H])[H]

$$$$
7:0:1
     RDKit          3D

 77 83  0  0  1  0  0  0  0  0999 V2000
    5.5200   -2.4738    1.9946 C   0  0  0  0  0  0  0  0  0  0  0  0
    3.9666   -2.4495    1.9135 C   0  0  0  0  0  0  0  0  0  0  0  0
    3.6052   -2.1413    0.4385 C   0  0  0  0  0  0  0  0  0  0  0  0
    3.3710   -3.8435    2.2462 C   0  0  1  0  0  0  0  0  0  0  0  0
    3.9835   -4.8754    1.5034 O   0  0  0  0  0  0  0  0  0  0  0  0
    3.4526   -4.1907    3.7346 C   0  0  0  0  0  0  0  0  0  0  0  0
    2.7700   -3.1181    4.5976 C   0  0  0  0  0  0  0  0  0  0  0  0
    3.2637   -1.6508    4.3861 C   0  0  1  0  0  0  0  0  0  0  0  0
    4.7146   -1.5960    4.9635 C   0  0  0  0  0  0  0  0  0  0  0  0
    3.2767   -1.3693    2.8394 C   0  0  1  0  0  0  0  0  0  0  0  0
    3.5841    0.0910    2.4348 C   0  0  0  0  0  0  0  0  0  0  0  0
    3.1408    1.2445    3.3634 C   0  0  0  0  0  0  0  0  0  0  0  0
    1.6761    1.3614    3.9479 C   0  0  2  0  0  0  0  0  0  0  0  0
    0.9530    1.7128    2.6073 C   0  0  0  0  0  0  0  0  0  0  0  0
    1.8117    2.3909    5.1897 C   0  0  1  0  0  0  0  0  0  0  0  0
    0.7326    3.5470    5.4235 C   0  0  2  0  0  0  0  0  0  0  0  0
   -0.4162    3.1201    6.3189 C   0  0  0  0  0  0  0  0  0  0  0  0
   -0.9947    1.8158    5.7172 C   0  0  1  0  0  0  0  0  0  0  0  0
   -1.8134    2.2136    4.4218 C   0  0  0  0  0  0  0  0  0  0  0  0
   -1.2277    3.4110    3.6574 C   0  0  1  0  0  0  0  0  0  0  0  0
   -1.2376    4.7004    4.3210 O   0  0  0  0  0  0  0  0  0  0  0  0
    0.0374    4.0668    4.1744 C   0  0  1  0  0  0  0  0  0  0  0  0
    0.8527    4.8182    3.2878 O   0  0  0  0  0  0  0  0  0  0  0  0
    0.0011    0.5474    5.8066 C   0  0  2  0  0  0  0  0  0  0  0  0
    0.8249    0.8107    7.0844 C   0  0  1  0  0  0  0  0  0  0  0  0
    0.9523   -0.3342    8.1214 C   0  0  0  0  0  0  0  0  0  0  0  0
    0.1999   -1.3005    8.1116 O   0  0  0  0  0  0  0  0  0  0  0  0
    2.1121    1.5226    6.5416 C   0  0  2  0  0  0  0  0  0  0  0  0
    2.7962    2.3889    7.6248 C   0  0  0  0  0  0  0  0  0  0  0  0
    3.0296    0.3138    6.2121 C   0  0  0  0  0  0  0  0  0  0  0  0
    2.2912   -0.6927    5.2484 C   0  0  1  0  0  0  0  0  0  0  0  0
    1.0334    0.0930    4.6251 C   0  0  2  0  0  0  0  0  0  0  0  0
    0.1461   -0.8071    3.7123 C   0  0  0  0  0  0  0  0  0  0  0  0
    5.9747   -2.7526    1.0411 H   0  0  0  0  0  0  0  0  0  0  0  0
    5.8793   -3.2100    2.7087 H   0  0  0  0  0  0  0  0  0  0  0  0
    5.9546   -1.5162    2.2818 H   0  0  0  0  0  0  0  0  0  0  0  0
    2.5288   -2.0198    0.3211 H   0  0  0  0  0  0  0  0  0  0  0  0
    3.9004   -2.9441   -0.2400 H   0  0  0  0  0  0  0  0  0  0  0  0
    4.0766   -1.2289    0.0650 H   0  0  0  0  0  0  0  0  0  0  0  0
    2.3200   -3.8425    1.9643 H   0  0  0  0  0  0  0  0  0  0  0  0
    4.9010   -4.9220    1.7269 H   0  0  0  0  0  0  0  0  0  0  0  0
    2.9417   -5.1371    3.9031 H   0  0  0  0  0  0  0  0  0  0  0  0
    4.4775   -4.3576    4.0559 H   0  0  0  0  0  0  0  0  0  0  0  0
    1.7058   -3.1777    4.3851 H   0  0  0  0  0  0  0  0  0  0  0  0
    2.8763   -3.3964    5.6472 H   0  0  0  0  0  0  0  0  0  0  0  0
    5.2444   -0.6861    4.6741 H   0  0  0  0  0  0  0  0  0  0  0  0
    5.3428   -2.4112    4.6238 H   0  0  0  0  0  0  0  0  0  0  0  0
    4.7443   -1.6790    6.0483 H   0  0  0  0  0  0  0  0  0  0  0  0
    2.2532   -1.5050    2.5470 H   0  0  0  0  0  0  0  0  0  0  0  0
    4.6549    0.2035    2.2985 H   0  0  0  0  0  0  0  0  0  0  0  0
    3.1797    0.2788    1.4404 H   0  0  0  0  0  0  0  0  0  0  0  0
    3.9273    1.3652    4.0865 H   0  0  0  0  0  0  0  0  0  0  0  0
    3.3213    2.1543    2.7891 H   0  0  0  0  0  0  0  0  0  0  0  0
   -0.1142    1.5832    2.6197 H   0  0  0  0  0  0  0  0  0  0  0  0
    1.2172    1.0328    1.8074 H   0  0  0  0  0  0  0  0  0  0  0  0
    1.2082    2.6876    2.2009 H   0  0  0  0  0  0  0  0  0  0  0  0
    2.7113    2.9733    4.9935 H   0  0  0  0  0  0  0  0  0  0  0  0
    1.2193    4.4011    5.8868 H   0  0  0  0  0  0  0  0  0  0  0  0
   -0.0995    3.1607    7.3490 H   0  0  0  0  0  0  0  0  0  0  0  0
   -1.2094    3.8626    6.3992 H   0  0  0  0  0  0  0  0  0  0  0  0
   -1.7852    1.5404    6.4164 H   0  0  0  0  0  0  0  0  0  0  0  0
   -1.9243    1.3742    3.7416 H   0  0  0  0  0  0  0  0  0  0  0  0
   -2.8213    2.4886    4.7026 H   0  0  0  0  0  0  0  0  0  0  0  0
   -1.5067    3.5073    2.5978 H   0  0  0  0  0  0  0  0  0  0  0  0
    0.6194    4.6052    2.3614 H   0  0  0  0  0  0  0  0  0  0  0  0
   -0.6465   -0.3105    5.9941 H   0  0  0  0  0  0  0  0  0  0  0  0
    0.2839    1.4171    7.7902 H   0  0  0  0  0  0  0  0  0  0  0  0
    1.7293   -0.2007    8.8812 H   0  0  0  0  0  0  0  0  0  0  0  0
    3.0246    1.8142    8.5271 H   0  0  0  0  0  0  0  0  0  0  0  0
    2.1690    3.2298    7.9278 H   0  0  0  0  0  0  0  0  0  0  0  0
    3.7353    2.8011    7.2574 H   0  0  0  0  0  0  0  0  0  0  0  0
    4.0040    0.6568    5.9025 H   0  0  0  0  0  0  0  0  0  0  0  0
    3.3040   -0.2289    7.1128 H   0  0  0  0  0  0  0  0  0  0  0  0
    1.8023   -1.4055    5.9078 H   0  0  0  0  0  0  0  0  0  0  0  0
    0.1033   -1.8326    4.0688 H   0  0  0  0  0  0  0  0  0  0  0  0
    0.4002   -0.8244    2.6575 H   0  0  0  0  0  0  0  0  0  0  0  0
   -0.8907   -0.4818    3.7141 H   0  0  0  0  0  0  0  0  0  0  0  0
  1  2  1  0
  1 34  1  0
  1 35  1  0
  1 36  1  0
  2 10  1  0
  2  3  1  0
  2  4  1  0
  3 37  1  0
  3 38  1  0
  3 39  1  0
  4  5  1  0
  4  6  1  0
  4 40  1  6
  5 41  1  0
  6  7  1  0
  6 42  1  0
  6 43  1  0
  7  8  1  0
  7 44  1  0
  7 45  1  0
  8 31  1  0
  8  9  1  1
  8 10  1  0
  9 46  1  0
  9 47  1  0
  9 48  1  0
 10 11  1  0
 10 49  1  6
 11 12  1  0
 11 50  1  0
 11 51  1  0
 12 13  1  0
 12 52  1  0
 12 53  1  0
 13 32  1  0
 13 14  1  6
 13 15  1  0
 14 54  1  0
 14 55  1  0
 14 56  1  0
 15 28  1  0
 15 16  1  0
 15 57  1  6
 16 22  1  0
 16 17  1  0
 16 58  1  1
 17 18  1  0
 17 59  1  0
 17 60  1  0
 18 19  1  0
 18 24  1  0
 18 61  1  1
 19 20  1  0
 19 62  1  0
 19 63  1  0
 20 22  1  0
 20 21  1  0
 20 64  1  6
 21 22  1  0
 22 23  1  6
 23 65  1  0
 24 32  1  0
 24 25  1  0
 24 66  1  1
 25 26  1  0
 25 28  1  0
 25 67  1  1
 26 27  2  0
 26 68  1  0
 28 29  1  1
 28 30  1  0
 29 69  1  0
 29 70  1  0
 29 71  1  0
 30 31  1  0
 30 72  1  0
 30 73  1  0
 31 32  1  0
 31 74  1  1
 32 33  1  6
 33 75  1  0
 33 76  1  0
 33 77  1  0
M  END
>  <i_m_ct_stereo_status>  (23) 
1

>  <s_m_source_file>  (23) 
/var/tmp/pbs.5076255.sched01/tmpoa2zap1w/0_chicbso.sdf

>  <i_m_source_file_index>  (23) 
10

>  <i_lp_mmshare_version>  (23) 
48012

>  <i_f3d_flags>  (23) 
0

>  <s_epik_input>  (23) 
W0NIMl0xW0NIMl1bQ0BIXShbT0hdKUMoW0NIM10pKFtDSDNdKVtDQEBIXShbQ0BdMTJbQ0gzXSlbQ0gyXVtDSDJdW0NAXTMoW0NIM10pW0NASF00W0NASF01W0NAQF02KFtPSF0pW0NASF0oTzYpW0NIMl1bQ0BIXShbQ0gyXTUpW0NASF03W0NAXTMoW0NIM10pW0NAQEhdMltDSDJdW0NAXTQoW0NIM10pW0NAQEhdN1tDSF09Tw==

>  <s_epik_cmdline>  (23) 
J2VwaWtfcHl0aG9uJywgJy1waHQnLCAnMi4wJywgJy1waCcsICc3LjAnLCAnLXRuJywgJzgnLCAnLW1hJywgJzIwMCcsICctaW1hZScsICc8aW5maWxlLm1hZT4nLCAnLW9tYWUnLCAnPG91dGZpbGUubWFlPic=

>  <r_lp_tautomer_probability>  (23) 
1

>  <r_epik_Ionization_Penalty>  (23) 
3.1033e-06

>  <r_epik_Ionization_Penalty_Charging>  (23) 
0

>  <r_epik_Ionization_Penalty_Neutral>  (23) 
3.1033e-06

>  <r_epik_State_Penalty>  (23) 
-0

>  <r_epik_Charging_Adjusted_Penalty>  (23) 
0

>  <i_epik_Tot_Q>  (23) 
0

>  <i_epik_Tot_abs_Q>  (23) 
0

>  <s_lp_Force_Field>  (23) 
OPLS3e

>  <r_lp_Energy>  (23) 
189.721

>  <b_lp_Chiralities_Consistent>  (23) 
1

>  <s_lp_Variant>  (23) 
7:0-1

>  <s_i_glide_gridfile>  (23) 
pfpi4k_grid

>  <i_i_glide_lignum>  (23) 
10

>  <i_i_glide_rotatable_bonds>  (23) 
3

>  <r_i_docking_score>  (23) 
-3.13248

>  <r_i_glide_ligand_efficiency>  (23) 
-0.0949238

>  <r_i_glide_ligand_efficiency_sa>  (23) 
-0.304471

>  <r_i_glide_ligand_efficiency_ln>  (23) 
-0.696648

>  <r_i_glide_gscore>  (23) 
-3.13248

>  <r_i_glide_lipo>  (23) 
-0.0968862

>  <r_i_glide_hbond>  (23) 
-0.133634

>  <r_i_glide_metal>  (23) 
-0

>  <r_i_glide_rewards>  (23) 
-0.295519

>  <r_i_glide_evdw>  (23) 
-23.3793

>  <r_i_glide_ecoul>  (23) 
-9.08739

>  <r_i_glide_erotb>  (23) 
0

>  <r_i_glide_esite>  (23) 
-0.0743725

>  <r_i_glide_emodel>  (23) 
-39.5271

>  <r_i_glide_energy>  (23) 
-32.4667

>  <r_i_glide_einternal>  (23) 
0.602747

>  <r_i_glide_intrahb_reward>  (23) 
-0

>  <i_i_glide_confnum>  (23) 
2

>  <i_i_glide_posenum>  (23) 
1

>  <r_i_glide_eff_state_penalty>  (23) 
0

>  <ligand_id>  (23) 
7

>  <original_smiles>  (23) 
CC1(C)C(O)CCC2(C)C1CCC1(C)C3C4CC(CC5OC54O)C4C(C=O)C3(C)CC2C41C

>  <smiles>  (23) 
[H]OC1([H])C([H])([H])C([H])([H])C2(C([H])([H])[H])C([H])(C([H])([H])C([H])([H])C3(C([H])([H])[H])C4([H])C5([H])C([H])([H])C([H])(C([H])([H])C6([H])OC65O[H])C5([H])C([H])(C([H])=O)C4(C([H])([H])[H])C([H])([H])C2([H])C53C([H])([H])[H])C1(C([H])([H])[H])C([H])([H])[H]

$$$$
7:0:2
     RDKit          3D

 77 83  0  0  1  0  0  0  0  0999 V2000
   -1.4010    3.5547    5.5506 C   0  0  0  0  0  0  0  0  0  0  0  0
   -0.5449    3.2827    4.2792 C   0  0  0  0  0  0  0  0  0  0  0  0
   -1.5387    2.9856    3.1228 C   0  0  0  0  0  0  0  0  0  0  0  0
    0.2681    4.5476    3.8754 C   0  0  1  0  0  0  0  0  0  0  0  0
   -0.5427    5.7109    3.7699 O   0  0  0  0  0  0  0  0  0  0  0  0
    1.4460    4.8327    4.8114 C   0  0  0  0  0  0  0  0  0  0  0  0
    2.3884    3.6212    4.9029 C   0  0  0  0  0  0  0  0  0  0  0  0
    1.7268    2.2669    5.3064 C   0  0  1  0  0  0  0  0  0  0  0  0
    1.3114    2.4161    6.8054 C   0  0  0  0  0  0  0  0  0  0  0  0
    0.4560    2.0614    4.4063 C   0  0  1  0  0  0  0  0  0  0  0  0
   -0.2530    0.6896    4.5458 C   0  0  0  0  0  0  0  0  0  0  0  0
    0.5820   -0.5650    4.8750 C   0  0  0  0  0  0  0  0  0  0  0  0
    1.9112   -0.9383    4.0910 C   0  0  2  0  0  0  0  0  0  0  0  0
    1.2482   -1.3321    2.7363 C   0  0  0  0  0  0  0  0  0  0  0  0
    2.6740   -1.9910    5.0502 C   0  0  1  0  0  0  0  0  0  0  0  0
    3.3390   -3.3212    4.4388 C   0  0  2  0  0  0  0  0  0  0  0  0
    4.7982   -3.1161    4.0510 C   0  0  0  0  0  0  0  0  0  0  0  0
    4.8542   -1.8894    3.1072 C   0  0  1  0  0  0  0  0  0  0  0  0
    4.2547   -2.3529    1.7236 C   0  0  0  0  0  0  0  0  0  0  0  0
    3.1406   -3.4138    1.8125 C   0  0  1  0  0  0  0  0  0  0  0  0
    3.5122   -4.7280    2.3237 O   0  0  0  0  0  0  0  0  0  0  0  0
    2.7110   -3.9022    3.1922 C   0  0  1  0  0  0  0  0  0  0  0  0
    1.3766   -4.4127    3.3179 O   0  0  0  0  0  0  0  0  0  0  0  0
    4.5001   -0.4867    3.8193 C   0  0  2  0  0  0  0  0  0  0  0  0
    4.9817   -0.6793    5.2741 C   0  0  1  0  0  0  0  0  0  0  0  0
    5.8941    0.4130    5.8814 C   0  0  0  0  0  0  0  0  0  0  0  0
    6.8083    0.9218    5.2304 O   0  0  0  0  0  0  0  0  0  0  0  0
    3.6898   -1.1487    6.0281 C   0  0  2  0  0  0  0  0  0  0  0  0
    4.0261   -1.9509    7.3061 C   0  0  0  0  0  0  0  0  0  0  0  0
    3.0426    0.2049    6.4238 C   0  0  0  0  0  0  0  0  0  0  0  0
    2.8590    1.1231    5.1553 C   0  0  1  0  0  0  0  0  0  0  0  0
    3.0043    0.1780    3.8585 C   0  0  2  0  0  0  0  0  0  0  0  0
    2.9337    0.9635    2.5076 C   0  0  0  0  0  0  0  0  0  0  0  0
   -2.3833    3.9462    5.2952 H   0  0  0  0  0  0  0  0  0  0  0  0
   -0.9522    4.3074    6.1987 H   0  0  0  0  0  0  0  0  0  0  0  0
   -1.5628    2.6662    6.1570 H   0  0  0  0  0  0  0  0  0  0  0  0
   -1.0023    2.6958    2.2144 H   0  0  0  0  0  0  0  0  0  0  0  0
   -2.1351    3.8598    2.8608 H   0  0  0  0  0  0  0  0  0  0  0  0
   -2.2404    2.1882    3.3604 H   0  0  0  0  0  0  0  0  0  0  0  0
    0.6855    4.3792    2.8901 H   0  0  0  0  0  0  0  0  0  0  0  0
   -0.1176    6.3192    3.1819 H   0  0  0  0  0  0  0  0  0  0  0  0
    2.0122    5.6797    4.4213 H   0  0  0  0  0  0  0  0  0  0  0  0
    1.1086    5.1464    5.7973 H   0  0  0  0  0  0  0  0  0  0  0  0
    2.8600    3.5242    3.9287 H   0  0  0  0  0  0  0  0  0  0  0  0
    3.1962    3.8646    5.5951 H   0  0  0  0  0  0  0  0  0  0  0  0
    0.6484    1.6162    7.1352 H   0  0  0  0  0  0  0  0  0  0  0  0
    0.7804    3.3413    7.0117 H   0  0  0  0  0  0  0  0  0  0  0  0
    2.1673    2.4495    7.4777 H   0  0  0  0  0  0  0  0  0  0  0  0
    0.8534    2.0487    3.4072 H   0  0  0  0  0  0  0  0  0  0  0  0
   -1.0148    0.7570    5.3181 H   0  0  0  0  0  0  0  0  0  0  0  0
   -0.8188    0.4925    3.6379 H   0  0  0  0  0  0  0  0  0  0  0  0
    0.6784   -0.5918    5.9484 H   0  0  0  0  0  0  0  0  0  0  0  0
   -0.1025   -1.4058    4.7561 H   0  0  0  0  0  0  0  0  0  0  0  0
    1.9127   -1.3743    1.8871 H   0  0  0  0  0  0  0  0  0  0  0  0
    0.5557   -0.5687    2.3919 H   0  0  0  0  0  0  0  0  0  0  0  0
    0.6280   -2.2169    2.7807 H   0  0  0  0  0  0  0  0  0  0  0  0
    1.9073   -2.4144    5.7035 H   0  0  0  0  0  0  0  0  0  0  0  0
    3.3129   -4.0974    5.2015 H   0  0  0  0  0  0  0  0  0  0  0  0
    5.4245   -3.1601    4.9304 H   0  0  0  0  0  0  0  0  0  0  0  0
    5.2377   -3.9810    3.5508 H   0  0  0  0  0  0  0  0  0  0  0  0
    5.9194   -1.7793    2.8818 H   0  0  0  0  0  0  0  0  0  0  0  0
    3.9052   -1.5126    1.1262 H   0  0  0  0  0  0  0  0  0  0  0  0
    5.0430   -2.7880    1.1206 H   0  0  0  0  0  0  0  0  0  0  0  0
    2.4646   -3.4946    0.9633 H   0  0  0  0  0  0  0  0  0  0  0  0
    0.7808   -3.7332    3.0843 H   0  0  0  0  0  0  0  0  0  0  0  0
    5.1578    0.2513    3.3521 H   0  0  0  0  0  0  0  0  0  0  0  0
    5.7788   -1.4024    5.3329 H   0  0  0  0  0  0  0  0  0  0  0  0
    5.7213    0.6738    6.9260 H   0  0  0  0  0  0  0  0  0  0  0  0
    4.6793   -1.3915    7.9756 H   0  0  0  0  0  0  0  0  0  0  0  0
    4.5254   -2.8927    7.0752 H   0  0  0  0  0  0  0  0  0  0  0  0
    3.1183   -2.1921    7.8615 H   0  0  0  0  0  0  0  0  0  0  0  0
    2.1688    0.0274    7.0302 H   0  0  0  0  0  0  0  0  0  0  0  0
    3.6491    0.7446    7.1535 H   0  0  0  0  0  0  0  0  0  0  0  0
    3.7695    1.7106    5.1065 H   0  0  0  0  0  0  0  0  0  0  0  0
    3.3781    1.9509    2.6063 H   0  0  0  0  0  0  0  0  0  0  0  0
    1.9509    1.0818    2.0633 H   0  0  0  0  0  0  0  0  0  0  0  0
    3.5168    0.4836    1.7274 H   0  0  0  0  0  0  0  0  0  0  0  0
  1  2  1  0
  1 34  1  0
  1 35  1  0
  1 36  1  0
  2 10  1  0
  2  3  1  0
  2  4  1  0
  3 37  1  0
  3 38  1  0
  3 39  1  0
  4  5  1  0
  4  6  1  0
  4 40  1  6
  5 41  1  0
  6  7  1  0
  6 42  1  0
  6 43  1  0
  7  8  1  0
  7 44  1  0
  7 45  1  0
  8 31  1  0
  8  9  1  1
  8 10  1  0
  9 46  1  0
  9 47  1  0
  9 48  1  0
 10 11  1  0
 10 49  1  6
 11 12  1  0
 11 50  1  0
 11 51  1  0
 12 13  1  0
 12 52  1  0
 12 53  1  0
 13 32  1  0
 13 14  1  6
 13 15  1  0
 14 54  1  0
 14 55  1  0
 14 56  1  0
 15 28  1  0
 15 16  1  0
 15 57  1  1
 16 22  1  0
 16 17  1  0
 16 58  1  1
 17 18  1  0
 17 59  1  0
 17 60  1  0
 18 19  1  0
 18 24  1  0
 18 61  1  6
 19 20  1  0
 19 62  1  0
 19 63  1  0
 20 22  1  0
 20 21  1  0
 20 64  1  6
 21 22  1  0
 22 23  1  1
 23 65  1  0
 24 32  1  0
 24 25  1  0
 24 66  1  6
 25 26  1  0
 25 28  1  0
 25 67  1  6
 26 27  2  0
 26 68  1  0
 28 29  1  1
 28 30  1  0
 29 69  1  0
 29 70  1  0
 29 71  1  0
 30 31  1  0
 30 72  1  0
 30 73  1  0
 31 32  1  0
 31 74  1  6
 32 33  1  6
 33 75  1  0
 33 76  1  0
 33 77  1  0
M  END
>  <i_m_ct_stereo_status>  (24) 
1

>  <s_m_source_file>  (24) 
/var/tmp/pbs.5076255.sched01/tmpoa2zap1w/0_chicbso.sdf

>  <i_m_source_file_index>  (24) 
10

>  <i_lp_mmshare_version>  (24) 
48012

>  <i_f3d_flags>  (24) 
0

>  <s_epik_input>  (24) 
W0NIMl0xW0NIMl1bQ0BIXShbT0hdKUMoW0NIM10pKFtDSDNdKVtDQEBIXShbQ0BdMTJbQ0gzXSlbQ0gyXVtDSDJdW0NAXTMoW0NIM10pW0NASF00W0NASF01W0NAQF02KFtPSF0pW0NASF0oTzYpW0NIMl1bQ0BIXShbQ0gyXTUpW0NASF03W0NAXTMoW0NIM10pW0NAQEhdMltDSDJdW0NAXTQoW0NIM10pW0NAQEhdN1tDSF09Tw==

>  <s_epik_cmdline>  (24) 
J2VwaWtfcHl0aG9uJywgJy1waHQnLCAnMi4wJywgJy1waCcsICc3LjAnLCAnLXRuJywgJzgnLCAnLW1hJywgJzIwMCcsICctaW1hZScsICc8aW5maWxlLm1hZT4nLCAnLW9tYWUnLCAnPG91dGZpbGUubWFlPic=

>  <r_lp_tautomer_probability>  (24) 
1

>  <r_epik_Ionization_Penalty>  (24) 
3.1033e-06

>  <r_epik_Ionization_Penalty_Charging>  (24) 
0

>  <r_epik_Ionization_Penalty_Neutral>  (24) 
3.1033e-06

>  <r_epik_State_Penalty>  (24) 
-0

>  <r_epik_Charging_Adjusted_Penalty>  (24) 
0

>  <i_epik_Tot_Q>  (24) 
0

>  <i_epik_Tot_abs_Q>  (24) 
0

>  <s_lp_Force_Field>  (24) 
OPLS3e

>  <r_lp_Energy>  (24) 
189.721

>  <b_lp_Chiralities_Consistent>  (24) 
1

>  <s_lp_Variant>  (24) 
7:0-1

>  <s_i_glide_gridfile>  (24) 
pfpi4k_grid

>  <i_i_glide_lignum>  (24) 
10

>  <i_i_glide_rotatable_bonds>  (24) 
3

>  <r_i_docking_score>  (24) 
-3.10621

>  <r_i_glide_ligand_efficiency>  (24) 
-0.0941276

>  <r_i_glide_ligand_efficiency_sa>  (24) 
-0.301918

>  <r_i_glide_ligand_efficiency_ln>  (24) 
-0.690805

>  <r_i_glide_gscore>  (24) 
-3.10621

>  <r_i_glide_lipo>  (24) 
-0.209932

>  <r_i_glide_hbond>  (24) 
-0.0993779

>  <r_i_glide_metal>  (24) 
-0

>  <r_i_glide_rewards>  (24) 
-0.403935

>  <r_i_glide_evdw>  (24) 
-24.1948

>  <r_i_glide_ecoul>  (24) 
-7.8852

>  <r_i_glide_erotb>  (24) 
0

>  <r_i_glide_esite>  (24) 
-0.000446931

>  <r_i_glide_emodel>  (24) 
-38.2376

>  <r_i_glide_energy>  (24) 
-32.08

>  <r_i_glide_einternal>  (24) 
1.90001

>  <r_i_glide_intrahb_reward>  (24) 
-0

>  <i_i_glide_confnum>  (24) 
1

>  <i_i_glide_posenum>  (24) 
7

>  <r_i_glide_eff_state_penalty>  (24) 
0

>  <ligand_id>  (24) 
7

>  <original_smiles>  (24) 
CC1(C)C(O)CCC2(C)C1CCC1(C)C3C4CC(CC5OC54O)C4C(C=O)C3(C)CC2C41C

>  <smiles>  (24) 
[H]OC1([H])C([H])([H])C([H])([H])C2(C([H])([H])[H])C([H])(C([H])([H])C([H])([H])C3(C([H])([H])[H])C4([H])C5([H])C([H])([H])C([H])(C([H])([H])C6([H])OC65O[H])C5([H])C([H])(C([H])=O)C4(C([H])([H])[H])C([H])([H])C2([H])C53C([H])([H])[H])C1(C([H])([H])[H])C([H])([H])[H]

$$$$
9:0:0
     RDKit          3D

 67 73  0  0  1  0  0  0  0  0999 V2000
    2.2457   -1.8149    3.8636 C   0  0  0  0  0  0  0  0  0  0  0  0
    3.1091   -2.0233    2.8577 C   0  0  0  0  0  0  0  0  0  0  0  0
    4.5533   -2.3891    3.1666 C   0  0  0  0  0  0  0  0  0  0  0  0
    5.1523   -2.2724    4.2364 O   0  0  0  0  0  0  0  0  0  0  0  0
    5.1546   -2.9810    1.8996 C   0  0  2  0  0  0  0  0  0  0  0  0
    6.5330   -3.4803    1.4268 C   0  0  0  0  0  0  0  0  0  0  0  0
    6.4252   -3.6549   -0.1288 C   0  0  0  0  0  0  0  0  0  0  0  0
    7.7425   -3.4916   -0.8673 C   0  0  0  0  0  0  0  0  0  0  0  0
    5.2370   -3.7728   -0.8291 C   0  0  0  0  0  0  0  0  0  0  0  0
    3.8186   -4.1283   -0.2735 C   0  0  2  0  0  0  0  0  0  0  0  0
    2.6893   -3.0555    0.1922 C   0  0  0  0  0  0  0  0  0  0  0  0
    2.7427   -1.8710    1.3176 C   0  0  2  0  0  0  0  0  0  0  0  0
    3.7258   -0.8722    0.8357 C   0  0  0  0  0  0  0  0  0  0  0  0
    5.0806   -1.5416    1.0393 C   0  0  1  0  0  0  0  0  0  0  0  0
    6.0442   -0.4323    1.5290 C   0  0  0  0  0  0  0  0  0  0  0  0
    4.1048   -5.2056    0.7401 C   0  0  2  0  0  0  0  0  0  0  0  0
    3.1557   -6.4445    0.9020 C   0  0  1  0  0  0  0  0  0  0  0  0
    4.0251   -7.7395    1.1169 C   0  0  0  0  0  0  0  0  0  0  0  0
    4.7303   -7.8282    2.5278 C   0  0  1  0  0  0  0  0  0  0  0  0
    5.5408   -6.5724    2.8671 C   0  0  0  0  0  0  0  0  0  0  0  0
    4.4814   -5.4725    3.1646 C   0  0  1  0  0  0  0  0  0  0  0  0
    4.3036   -4.4070    2.0047 C   0  0  1  0  0  0  0  0  0  0  0  0
    3.1400   -6.3270    3.3971 C   0  0  2  0  0  0  0  0  0  0  0  0
    2.4982   -6.0134    4.6124 O   0  0  0  0  0  0  0  0  0  0  0  0
    3.0821   -6.8903    5.5428 C   0  0  0  0  0  0  0  0  0  0  0  0
    4.0372   -7.6995    4.9077 O   0  0  0  0  0  0  0  0  0  0  0  0
    3.6242   -7.7593    3.5905 C   0  0  2  0  0  0  0  0  0  0  0  0
    2.6043   -8.7108    3.3959 O   0  0  0  0  0  0  0  0  0  0  0  0
    3.0194  -10.0391    3.5495 C   0  0  0  0  0  0  0  0  0  0  0  0
    1.9742  -10.9214    3.3118 O   0  0  0  0  0  0  0  0  0  0  0  0
    1.0374  -10.9867    4.3727 C   0  0  0  0  0  0  0  0  0  0  0  0
    2.2553   -6.3185    2.1325 C   0  0  0  0  0  0  0  0  0  0  0  0
    1.0253   -6.2009    2.1025 O   0  0  0  0  0  0  0  0  0  0  0  0
    1.2201   -1.5399    3.6735 H   0  0  0  0  0  0  0  0  0  0  0  0
    2.5588   -1.9174    4.8920 H   0  0  0  0  0  0  0  0  0  0  0  0
    7.3147   -2.7621    1.6478 H   0  0  0  0  0  0  0  0  0  0  0  0
    6.8692   -4.3886    1.9140 H   0  0  0  0  0  0  0  0  0  0  0  0
    8.2596   -2.5747   -0.5795 H   0  0  0  0  0  0  0  0  0  0  0  0
    7.5846   -3.4574   -1.9477 H   0  0  0  0  0  0  0  0  0  0  0  0
    8.4064   -4.3313   -0.6580 H   0  0  0  0  0  0  0  0  0  0  0  0
    5.2864   -3.7781   -1.9059 H   0  0  0  0  0  0  0  0  0  0  0  0
    3.3711   -4.6396   -1.1149 H   0  0  0  0  0  0  0  0  0  0  0  0
    2.3960   -2.5729   -0.7388 H   0  0  0  0  0  0  0  0  0  0  0  0
    1.8197   -3.6559    0.4500 H   0  0  0  0  0  0  0  0  0  0  0  0
    1.7616   -1.3942    1.2911 H   0  0  0  0  0  0  0  0  0  0  0  0
    3.5545   -0.6180   -0.2112 H   0  0  0  0  0  0  0  0  0  0  0  0
    3.6340    0.0567    1.4065 H   0  0  0  0  0  0  0  0  0  0  0  0
    5.4116   -1.5571    0.0114 H   0  0  0  0  0  0  0  0  0  0  0  0
    5.8632   -0.1099    2.5550 H   0  0  0  0  0  0  0  0  0  0  0  0
    5.9269    0.4448    0.8890 H   0  0  0  0  0  0  0  0  0  0  0  0
    7.0918   -0.7111    1.4498 H   0  0  0  0  0  0  0  0  0  0  0  0
    5.0469   -5.6688    0.4508 H   0  0  0  0  0  0  0  0  0  0  0  0
    2.5043   -6.5395    0.0475 H   0  0  0  0  0  0  0  0  0  0  0  0
    3.3935   -8.6160    0.9697 H   0  0  0  0  0  0  0  0  0  0  0  0
    4.7713   -7.8157    0.3251 H   0  0  0  0  0  0  0  0  0  0  0  0
    5.3417   -8.7250    2.6295 H   0  0  0  0  0  0  0  0  0  0  0  0
    6.1189   -6.7563    3.7736 H   0  0  0  0  0  0  0  0  0  0  0  0
    6.2686   -6.3500    2.0901 H   0  0  0  0  0  0  0  0  0  0  0  0
    4.7477   -4.9712    4.0981 H   0  0  0  0  0  0  0  0  0  0  0  0
    3.2845   -4.1728    2.2372 H   0  0  0  0  0  0  0  0  0  0  0  0
    3.5436   -6.3278    6.3608 H   0  0  0  0  0  0  0  0  0  0  0  0
    2.2997   -7.5395    5.9471 H   0  0  0  0  0  0  0  0  0  0  0  0
    3.7716  -10.2962    2.8003 H   0  0  0  0  0  0  0  0  0  0  0  0
    3.4557  -10.2101    4.5390 H   0  0  0  0  0  0  0  0  0  0  0  0
    0.2264  -11.6622    4.0963 H   0  0  0  0  0  0  0  0  0  0  0  0
    0.6079  -10.0062    4.5857 H   0  0  0  0  0  0  0  0  0  0  0  0
    1.5071  -11.3776    5.2776 H   0  0  0  0  0  0  0  0  0  0  0  0
  1  2  2  0
  1 34  1  0
  1 35  1  0
  2 12  1  0
  2  3  1  0
  3  4  2  0
  3  5  1  0
  5 14  1  0
  5 22  1  0
  5  6  1  1
  6  7  1  0
  6 36  1  0
  6 37  1  0
  7  8  1  0
  7  9  2  0
  8 38  1  0
  8 39  1  0
  8 40  1  0
  9 10  1  0
  9 41  1  0
 10 11  1  0
 10 16  1  0
 10 42  1  6
 11 12  1  0
 11 43  1  0
 11 44  1  0
 12 13  1  0
 12 45  1  1
 13 14  1  0
 13 46  1  0
 13 47  1  0
 14 15  1  0
 14 48  1  6
 15 49  1  0
 15 50  1  0
 15 51  1  0
 16 22  1  0
 16 17  1  0
 16 52  1  6
 17 32  1  0
 17 18  1  0
 17 53  1  6
 18 19  1  0
 18 54  1  0
 18 55  1  0
 19 27  1  0
 19 20  1  0
 19 56  1  6
 20 21  1  0
 20 57  1  0
 20 58  1  0
 21 22  1  0
 21 23  1  0
 21 59  1  1
 22 60  1  1
 23 27  1  0
 23 24  1  1
 23 32  1  0
 24 25  1  0
 25 26  1  0
 25 61  1  0
 25 62  1  0
 26 27  1  0
 27 28  1  1
 28 29  1  0
 29 30  1  0
 29 63  1  0
 29 64  1  0
 30 31  1  0
 31 65  1  0
 31 66  1  0
 31 67  1  0
 32 33  2  0
M  END
>  <i_m_ct_stereo_status>  (25) 
1

>  <s_m_source_file>  (25) 
/var/tmp/pbs.5076255.sched01/tmpoa2zap1w/0_chicbso.sdf

>  <i_m_source_file_index>  (25) 
12

>  <i_lp_mmshare_version>  (25) 
48012

>  <i_f3d_flags>  (25) 
0

>  <s_epik_input>  (25) 
Tz1DMUMoPVtDSDJdKVtDQEBIXShbQ0gyXVtDQEhdMltDSDNdKVtDSDJdW0NAQEhdKFtDSF09QyhbQ0gyXTMpW0NIM10pW0NAQEhdKFtDQEBIXTRDMTIzKVtDQEhdNVtDSDJdW0NAQEhdNltDQEBdNyhbQ0BdKEM1PU8pKFtDQEhdNFtDSDJdNilPW0NIMl1PNylPW0NIMl1PW0NIM10=

>  <s_epik_cmdline>  (25) 
J2VwaWtfcHl0aG9uJywgJy1waHQnLCAnMi4wJywgJy1waCcsICc3LjAnLCAnLXRuJywgJzgnLCAnLW1hJywgJzIwMCcsICctaW1hZScsICc8aW5maWxlLm1hZT4nLCAnLW9tYWUnLCAnPG91dGZpbGUubWFlPic=

>  <r_lp_tautomer_probability>  (25) 
1

>  <r_epik_Ionization_Penalty>  (25) 
2.60145e-11

>  <r_epik_Ionization_Penalty_Charging>  (25) 
0

>  <r_epik_Ionization_Penalty_Neutral>  (25) 
2.60145e-11

>  <r_epik_State_Penalty>  (25) 
-0

>  <r_epik_Charging_Adjusted_Penalty>  (25) 
0

>  <i_epik_Tot_Q>  (25) 
0

>  <i_epik_Tot_abs_Q>  (25) 
0

>  <s_epik_Chemistry_Notes>  (25) 
This compound contains an acetal/aminal-like group ( X-CH(R)-Y where X, Y are N, S, or O) that may be acid/base labile, releasing an aldehyde.

>  <s_lp_Force_Field>  (25) 
OPLS3e

>  <r_lp_Energy>  (25) 
222.838

>  <b_lp_Chiralities_Consistent>  (25) 
1

>  <s_lp_Variant>  (25) 
9:0-1

>  <s_i_glide_gridfile>  (25) 
pfpi4k_grid

>  <i_i_glide_lignum>  (25) 
12

>  <i_i_glide_rotatable_bonds>  (25) 
3

>  <r_i_docking_score>  (25) 
-2.24655

>  <r_i_glide_ligand_efficiency>  (25) 
-0.0680773

>  <r_i_glide_ligand_efficiency_sa>  (25) 
-0.21836

>  <r_i_glide_ligand_efficiency_ln>  (25) 
-0.499622

>  <r_i_glide_gscore>  (25) 
-2.24655

>  <r_i_glide_lipo>  (25) 
-0.578496

>  <r_i_glide_hbond>  (25) 
-0.0289718

>  <r_i_glide_metal>  (25) 
-0

>  <r_i_glide_rewards>  (25) 
-0.348036

>  <r_i_glide_evdw>  (25) 
-22.3406

>  <r_i_glide_ecoul>  (25) 
-2.29287

>  <r_i_glide_erotb>  (25) 
0.194386

>  <r_i_glide_esite>  (25) 
-0.0244732

>  <r_i_glide_emodel>  (25) 
-26.8858

>  <r_i_glide_energy>  (25) 
-24.6335

>  <r_i_glide_einternal>  (25) 
2.01088

>  <r_i_glide_intrahb_reward>  (25) 
-0

>  <i_i_glide_confnum>  (25) 
4

>  <i_i_glide_posenum>  (25) 
38

>  <r_i_glide_eff_state_penalty>  (25) 
0

>  <ligand_id>  (25) 
9

>  <original_smiles>  (25) 
C=C1C(=O)C23CC(C)=CC(CC1CC2C)C1C2CC4CC(C13)C1(OCOC41OCOC)C2=O

>  <smiles>  (25) 
[H]C([H])=C1C(=O)C23C([H])([H])C(C([H])([H])[H])=C([H])C([H])(C([H])([H])C1([H])C([H])([H])C2([H])C([H])([H])[H])C1([H])C2([H])C(=O)C45OC([H])([H])OC4(OC([H])([H])OC([H])([H])[H])C([H])(C2([H])[H])C([H])([H])C5([H])C13[H]

$$$$
9:0:1
     RDKit          3D

 67 73  0  0  1  0  0  0  0  0999 V2000
    4.7740   -6.3772    0.5588 C   0  0  0  0  0  0  0  0  0  0  0  0
    4.4375   -5.3137    1.3063 C   0  0  0  0  0  0  0  0  0  0  0  0
    3.0424   -4.7248    1.1863 C   0  0  0  0  0  0  0  0  0  0  0  0
    2.2092   -4.9270    0.3065 O   0  0  0  0  0  0  0  0  0  0  0  0
    2.8074   -3.8513    2.4115 C   0  0  2  0  0  0  0  0  0  0  0  0
    1.7091   -2.9066    2.9299 C   0  0  0  0  0  0  0  0  0  0  0  0
    2.3426   -2.1462    4.1498 C   0  0  0  0  0  0  0  0  0  0  0  0
    1.7423   -0.7771    4.4111 C   0  0  0  0  0  0  0  0  0  0  0  0
    3.4614   -2.5607    4.8513 C   0  0  0  0  0  0  0  0  0  0  0  0
    4.1102   -3.9849    4.8893 C   0  0  2  0  0  0  0  0  0  0  0  0
    5.3174   -4.5045    3.9330 C   0  0  0  0  0  0  0  0  0  0  0  0
    5.4251   -4.5717    2.3031 C   0  0  2  0  0  0  0  0  0  0  0  0
    5.4114   -3.1722    1.8117 C   0  0  0  0  0  0  0  0  0  0  0  0
    3.9638   -2.7111    1.9790 C   0  0  1  0  0  0  0  0  0  0  0  0
    3.6119   -1.8455    0.7282 C   0  0  0  0  0  0  0  0  0  0  0  0
    2.9154   -4.8987    4.9221 C   0  0  2  0  0  0  0  0  0  0  0  0
    2.9107   -6.1926    5.8095 C   0  0  1  0  0  0  0  0  0  0  0  0
    1.4940   -6.3423    6.4673 C   0  0  0  0  0  0  0  0  0  0  0  0
    0.3467   -6.7794    5.4816 C   0  0  1  0  0  0  0  0  0  0  0  0
    0.2448   -5.8624    4.2580 C   0  0  0  0  0  0  0  0  0  0  0  0
    1.4898   -6.2128    3.3931 C   0  0  1  0  0  0  0  0  0  0  0  0
    2.6555   -5.1423    3.4550 C   0  0  1  0  0  0  0  0  0  0  0  0
    1.9489   -7.6296    3.9922 C   0  0  2  0  0  0  0  0  0  0  0  0
    2.0875   -8.6191    2.9963 O   0  0  0  0  0  0  0  0  0  0  0  0
    0.8114   -9.2010    2.9095 C   0  0  0  0  0  0  0  0  0  0  0  0
   -0.0612   -8.5636    3.8048 O   0  0  0  0  0  0  0  0  0  0  0  0
    0.7592   -8.0978    4.8160 C   0  0  2  0  0  0  0  0  0  0  0  0
    1.0843   -9.1100    5.7357 O   0  0  0  0  0  0  0  0  0  0  0  0
    0.0035   -9.5680    6.5022 C   0  0  0  0  0  0  0  0  0  0  0  0
   -0.0881   -8.9106    7.7283 O   0  0  0  0  0  0  0  0  0  0  0  0
    0.9851   -9.2228    8.6082 C   0  0  0  0  0  0  0  0  0  0  0  0
    3.1306   -7.4599    4.9692 C   0  0  0  0  0  0  0  0  0  0  0  0
    4.1035   -8.2112    5.0618 O   0  0  0  0  0  0  0  0  0  0  0  0
    5.7597   -6.8118    0.6198 H   0  0  0  0  0  0  0  0  0  0  0  0
    4.0692   -6.8302   -0.1214 H   0  0  0  0  0  0  0  0  0  0  0  0
    1.4044   -2.1932    2.1662 H   0  0  0  0  0  0  0  0  0  0  0  0
    0.7860   -3.4015    3.2070 H   0  0  0  0  0  0  0  0  0  0  0  0
    1.7302   -0.1771    3.5000 H   0  0  0  0  0  0  0  0  0  0  0  0
    2.3251   -0.2301    5.1530 H   0  0  0  0  0  0  0  0  0  0  0  0
    0.7213   -0.8626    4.7816 H   0  0  0  0  0  0  0  0  0  0  0  0
    3.8601   -1.8915    5.5986 H   0  0  0  0  0  0  0  0  0  0  0  0
    4.5228   -4.0173    5.8975 H   0  0  0  0  0  0  0  0  0  0  0  0
    6.1788   -3.9337    4.2722 H   0  0  0  0  0  0  0  0  0  0  0  0
    5.5454   -5.5155    4.2789 H   0  0  0  0  0  0  0  0  0  0  0  0
    6.4139   -4.9838    2.0954 H   0  0  0  0  0  0  0  0  0  0  0  0
    6.1064   -2.5421    2.3689 H   0  0  0  0  0  0  0  0  0  0  0  0
    5.7286   -3.1397    0.7669 H   0  0  0  0  0  0  0  0  0  0  0  0
    4.1329   -1.8974    2.6701 H   0  0  0  0  0  0  0  0  0  0  0  0
    3.4891   -2.4277   -0.1847 H   0  0  0  0  0  0  0  0  0  0  0  0
    4.4129   -1.1313    0.5340 H   0  0  0  0  0  0  0  0  0  0  0  0
    2.7165   -1.2402    0.8559 H   0  0  0  0  0  0  0  0  0  0  0  0
    2.0901   -4.3295    5.3417 H   0  0  0  0  0  0  0  0  0  0  0  0
    3.6730   -6.1429    6.5787 H   0  0  0  0  0  0  0  0  0  0  0  0
    1.5800   -7.0554    7.2773 H   0  0  0  0  0  0  0  0  0  0  0  0
    1.2116   -5.4162    6.9718 H   0  0  0  0  0  0  0  0  0  0  0  0
   -0.5985   -6.8814    6.0023 H   0  0  0  0  0  0  0  0  0  0  0  0
   -0.6547   -6.1248    3.7038 H   0  0  0  0  0  0  0  0  0  0  0  0
    0.1339   -4.8229    4.5531 H   0  0  0  0  0  0  0  0  0  0  0  0
    1.1680   -6.3611    2.3600 H   0  0  0  0  0  0  0  0  0  0  0  0
    3.4398   -5.8419    3.2451 H   0  0  0  0  0  0  0  0  0  0  0  0
    0.4244   -9.1295    1.8890 H   0  0  0  0  0  0  0  0  0  0  0  0
    0.8830  -10.2569    3.1913 H   0  0  0  0  0  0  0  0  0  0  0  0
   -0.9522   -9.4503    5.9836 H   0  0  0  0  0  0  0  0  0  0  0  0
    0.1256  -10.6419    6.6688 H   0  0  0  0  0  0  0  0  0  0  0  0
    0.8947   -8.6210    9.5142 H   0  0  0  0  0  0  0  0  0  0  0  0
    1.9578   -9.0115    8.1602 H   0  0  0  0  0  0  0  0  0  0  0  0
    0.9740  -10.2717    8.8936 H   0  0  0  0  0  0  0  0  0  0  0  0
  1  2  2  0
  1 34  1  0
  1 35  1  0
  2 12  1  0
  2  3  1  0
  3  4  2  0
  3  5  1  0
  5 14  1  0
  5 22  1  0
  5  6  1  6
  6  7  1  0
  6 36  1  0
  6 37  1  0
  7  8  1  0
  7  9  2  0
  8 38  1  0
  8 39  1  0
  8 40  1  0
  9 10  1  0
  9 41  1  0
 10 11  1  0
 10 16  1  0
 10 42  1  1
 11 12  1  0
 11 43  1  0
 11 44  1  0
 12 13  1  0
 12 45  1  1
 13 14  1  0
 13 46  1  0
 13 47  1  0
 14 15  1  0
 14 48  1  1
 15 49  1  0
 15 50  1  0
 15 51  1  0
 16 22  1  0
 16 17  1  0
 16 52  1  1
 17 32  1  0
 17 18  1  0
 17 53  1  1
 18 19  1  0
 18 54  1  0
 18 55  1  0
 19 27  1  0
 19 20  1  0
 19 56  1  1
 20 21  1  0
 20 57  1  0
 20 58  1  0
 21 22  1  0
 21 23  1  0
 21 59  1  6
 22 60  1  6
 23 27  1  0
 23 24  1  6
 23 32  1  0
 24 25  1  0
 25 26  1  0
 25 61  1  0
 25 62  1  0
 26 27  1  0
 27 28  1  1
 28 29  1  0
 29 30  1  0
 29 63  1  0
 29 64  1  0
 30 31  1  0
 31 65  1  0
 31 66  1  0
 31 67  1  0
 32 33  2  0
M  END
>  <i_m_ct_stereo_status>  (26) 
1

>  <s_m_source_file>  (26) 
/var/tmp/pbs.5076255.sched01/tmpoa2zap1w/0_chicbso.sdf

>  <i_m_source_file_index>  (26) 
12

>  <i_lp_mmshare_version>  (26) 
48012

>  <i_f3d_flags>  (26) 
0

>  <s_epik_input>  (26) 
Tz1DMUMoPVtDSDJdKVtDQEBIXShbQ0gyXVtDQEhdMltDSDNdKVtDSDJdW0NAQEhdKFtDSF09QyhbQ0gyXTMpW0NIM10pW0NAQEhdKFtDQEBIXTRDMTIzKVtDQEhdNVtDSDJdW0NAQEhdNltDQEBdNyhbQ0BdKEM1PU8pKFtDQEhdNFtDSDJdNilPW0NIMl1PNylPW0NIMl1PW0NIM10=

>  <s_epik_cmdline>  (26) 
J2VwaWtfcHl0aG9uJywgJy1waHQnLCAnMi4wJywgJy1waCcsICc3LjAnLCAnLXRuJywgJzgnLCAnLW1hJywgJzIwMCcsICctaW1hZScsICc8aW5maWxlLm1hZT4nLCAnLW9tYWUnLCAnPG91dGZpbGUubWFlPic=

>  <r_lp_tautomer_probability>  (26) 
1

>  <r_epik_Ionization_Penalty>  (26) 
2.60145e-11

>  <r_epik_Ionization_Penalty_Charging>  (26) 
0

>  <r_epik_Ionization_Penalty_Neutral>  (26) 
2.60145e-11

>  <r_epik_State_Penalty>  (26) 
-0

>  <r_epik_Charging_Adjusted_Penalty>  (26) 
0

>  <i_epik_Tot_Q>  (26) 
0

>  <i_epik_Tot_abs_Q>  (26) 
0

>  <s_epik_Chemistry_Notes>  (26) 
This compound contains an acetal/aminal-like group ( X-CH(R)-Y where X, Y are N, S, or O) that may be acid/base labile, releasing an aldehyde.

>  <s_lp_Force_Field>  (26) 
OPLS3e

>  <r_lp_Energy>  (26) 
222.838

>  <b_lp_Chiralities_Consistent>  (26) 
1

>  <s_lp_Variant>  (26) 
9:0-1

>  <s_i_glide_gridfile>  (26) 
pfpi4k_grid

>  <i_i_glide_lignum>  (26) 
12

>  <i_i_glide_rotatable_bonds>  (26) 
3

>  <r_i_docking_score>  (26) 
-1.8795

>  <r_i_glide_ligand_efficiency>  (26) 
-0.0569547

>  <r_i_glide_ligand_efficiency_sa>  (26) 
-0.182684

>  <r_i_glide_ligand_efficiency_ln>  (26) 
-0.417992

>  <r_i_glide_gscore>  (26) 
-1.8795

>  <r_i_glide_lipo>  (26) 
-0.259334

>  <r_i_glide_hbond>  (26) 
-0.0165761

>  <r_i_glide_metal>  (26) 
-0

>  <r_i_glide_rewards>  (26) 
-0.30985

>  <r_i_glide_evdw>  (26) 
-20.6416

>  <r_i_glide_ecoul>  (26) 
-2.31074

>  <r_i_glide_erotb>  (26) 
0.194386

>  <r_i_glide_esite>  (26) 
-0.109437

>  <r_i_glide_emodel>  (26) 
-24.9792

>  <r_i_glide_energy>  (26) 
-22.9524

>  <r_i_glide_einternal>  (26) 
1.27339

>  <r_i_glide_intrahb_reward>  (26) 
-0

>  <i_i_glide_confnum>  (26) 
2

>  <i_i_glide_posenum>  (26) 
36

>  <r_i_glide_eff_state_penalty>  (26) 
0

>  <ligand_id>  (26) 
9

>  <original_smiles>  (26) 
C=C1C(=O)C23CC(C)=CC(CC1CC2C)C1C2CC4CC(C13)C1(OCOC41OCOC)C2=O

>  <smiles>  (26) 
[H]C([H])=C1C(=O)C23C([H])([H])C(C([H])([H])[H])=C([H])C([H])(C([H])([H])C1([H])C([H])([H])C2([H])C([H])([H])[H])C1([H])C2([H])C(=O)C45OC([H])([H])OC4(OC([H])([H])OC([H])([H])[H])C([H])(C2([H])[H])C([H])([H])C5([H])C13[H]

$$$$
9:1:0
     RDKit          3D

 67 73  0  0  1  0  0  0  0  0999 V2000
    2.5609   -2.4454    1.9713 C   0  0  0  0  0  0  0  0  0  0  0  0
    3.5638   -1.8917    1.2362 C   0  0  0  0  0  0  0  0  0  0  0  0
    5.1782   -1.9188    1.0503 C   0  0  0  0  0  0  0  0  0  0  0  0
    5.7918   -1.1262    0.2457 O   0  0  0  0  0  0  0  0  0  0  0  0
    5.8738   -2.5723    1.9953 C   0  0  1  0  0  0  0  0  0  0  0  0
    7.1345   -2.9779    1.0602 C   0  0  0  0  0  0  0  0  0  0  0  0
    6.9270   -3.3856   -0.4890 C   0  0  0  0  0  0  0  0  0  0  0  0
    8.2619   -3.5371   -1.2058 C   0  0  0  0  0  0  0  0  0  0  0  0
    5.7528   -3.5138   -1.2338 C   0  0  0  0  0  0  0  0  0  0  0  0
    4.2496   -3.5483   -0.7414 C   0  0  2  0  0  0  0  0  0  0  0  0
    3.4679   -1.9842   -0.7998 C   0  0  0  0  0  0  0  0  0  0  0  0
    3.2963   -0.8094    0.4905 C   0  0  2  0  0  0  0  0  0  0  0  0
    4.0861    0.0172    1.8282 C   0  0  0  0  0  0  0  0  0  0  0  0
    5.3494   -1.0211    2.6618 C   0  0  1  0  0  0  0  0  0  0  0  0
    4.9731   -1.2083    4.1438 C   0  0  0  0  0  0  0  0  0  0  0  0
    4.3917   -4.4734    0.6353 C   0  0  2  0  0  0  0  0  0  0  0  0
    3.5107   -5.7454    0.8527 C   0  0  1  0  0  0  0  0  0  0  0  0
    4.3266   -7.0776    0.6099 C   0  0  0  0  0  0  0  0  0  0  0  0
    5.3943   -7.4156    1.7232 C   0  0  1  0  0  0  0  0  0  0  0  0
    6.3589   -6.2665    2.0499 C   0  0  0  0  0  0  0  0  0  0  0  0
    5.4879   -5.2438    2.8331 C   0  0  1  0  0  0  0  0  0  0  0  0
    5.0685   -3.9533    2.0408 C   0  0  1  0  0  0  0  0  0  0  0  0
    4.1999   -6.0898    3.2634 C   0  0  2  0  0  0  0  0  0  0  0  0
    3.9417   -5.9823    4.6501 O   0  0  0  0  0  0  0  0  0  0  0  0
    4.7007   -7.0370    5.1925 C   0  0  0  0  0  0  0  0  0  0  0  0
    5.3883   -7.7278    4.1805 O   0  0  0  0  0  0  0  0  0  0  0  0
    4.6224   -7.5348    3.0512 C   0  0  2  0  0  0  0  0  0  0  0  0
    3.5246   -8.4173    2.9667 O   0  0  0  0  0  0  0  0  0  0  0  0
    3.8791   -9.7760    2.8759 C   0  0  0  0  0  0  0  0  0  0  0  0
    4.3521  -10.3149    4.0731 O   0  0  0  0  0  0  0  0  0  0  0  0
    3.3407  -10.4926    5.0538 C   0  0  0  0  0  0  0  0  0  0  0  0
    3.0257   -5.8133    2.3047 C   0  0  0  0  0  0  0  0  0  0  0  0
    1.8467   -5.6899    2.6408 O   0  0  0  0  0  0  0  0  0  0  0  0
    1.5662   -2.0533    1.8230 H   0  0  0  0  0  0  0  0  0  0  0  0
    2.5851   -3.2138    2.7085 H   0  0  0  0  0  0  0  0  0  0  0  0
    7.8442   -2.1504    1.0500 H   0  0  0  0  0  0  0  0  0  0  0  0
    7.6695   -3.7952    1.5384 H   0  0  0  0  0  0  0  0  0  0  0  0
    8.8859   -2.6473   -1.1029 H   0  0  0  0  0  0  0  0  0  0  0  0
    8.1287   -3.7096   -2.2736 H   0  0  0  0  0  0  0  0  0  0  0  0
    8.8275   -4.3868   -0.8161 H   0  0  0  0  0  0  0  0  0  0  0  0
    5.8538   -3.7361   -2.2826 H   0  0  0  0  0  0  0  0  0  0  0  0
    3.7522   -4.1698   -1.4835 H   0  0  0  0  0  0  0  0  0  0  0  0
    3.8070   -1.4598   -1.6920 H   0  0  0  0  0  0  0  0  0  0  0  0
    2.4538   -2.2584   -1.0542 H   0  0  0  0  0  0  0  0  0  0  0  0
    2.2693   -0.4554    0.5022 H   0  0  0  0  0  0  0  0  0  0  0  0
    4.5257    0.9093    1.3986 H   0  0  0  0  0  0  0  0  0  0  0  0
    3.3535    0.3393    2.5466 H   0  0  0  0  0  0  0  0  0  0  0  0
    6.2326   -0.3915    2.7120 H   0  0  0  0  0  0  0  0  0  0  0  0
    4.0643   -1.8018    4.2552 H   0  0  0  0  0  0  0  0  0  0  0  0
    4.8030   -0.2501    4.6421 H   0  0  0  0  0  0  0  0  0  0  0  0
    5.7677   -1.7255    4.6861 H   0  0  0  0  0  0  0  0  0  0  0  0
    5.2207   -5.0360    0.2635 H   0  0  0  0  0  0  0  0  0  0  0  0
    2.6419   -5.7099    0.2107 H   0  0  0  0  0  0  0  0  0  0  0  0
    3.6270   -7.9106    0.5187 H   0  0  0  0  0  0  0  0  0  0  0  0
    4.7906   -7.0212   -0.3711 H   0  0  0  0  0  0  0  0  0  0  0  0
    5.9484   -8.3199    1.4802 H   0  0  0  0  0  0  0  0  0  0  0  0
    7.1318   -6.6492    2.7168 H   0  0  0  0  0  0  0  0  0  0  0  0
    6.9014   -5.8804    1.1870 H   0  0  0  0  0  0  0  0  0  0  0  0
    6.0388   -4.9334    3.7207 H   0  0  0  0  0  0  0  0  0  0  0  0
    4.4149   -3.6821    2.8444 H   0  0  0  0  0  0  0  0  0  0  0  0
    5.3899   -6.6578    5.9430 H   0  0  0  0  0  0  0  0  0  0  0  0
    4.0146   -7.7237    5.6844 H   0  0  0  0  0  0  0  0  0  0  0  0
    3.0023  -10.3336    2.5524 H   0  0  0  0  0  0  0  0  0  0  0  0
    4.6252   -9.9654    2.1049 H   0  0  0  0  0  0  0  0  0  0  0  0
    3.7858  -10.8810    5.9698 H   0  0  0  0  0  0  0  0  0  0  0  0
    2.5754  -11.1953    4.7219 H   0  0  0  0  0  0  0  0  0  0  0  0
    2.8485   -9.5522    5.2959 H   0  0  0  0  0  0  0  0  0  0  0  0
  1  2  2  0
  1 34  1  0
  1 35  1  0
  2 12  1  0
  2  3  1  0
  3  4  2  0
  3  5  1  0
  5 14  1  0
  5 22  1  0
  5  6  1  6
  6  7  1  0
  6 36  1  0
  6 37  1  0
  7  8  1  0
  7  9  2  0
  8 38  1  0
  8 39  1  0
  8 40  1  0
  9 10  1  0
  9 41  1  0
 10 11  1  0
 10 16  1  0
 10 42  1  6
 11 12  1  0
 11 43  1  0
 11 44  1  0
 12 13  1  0
 12 45  1  1
 13 14  1  0
 13 46  1  0
 13 47  1  0
 14 15  1  0
 14 48  1  1
 15 49  1  0
 15 50  1  0
 15 51  1  0
 16 22  1  0
 16 17  1  0
 16 52  1  6
 17 32  1  0
 17 18  1  0
 17 53  1  6
 18 19  1  0
 18 54  1  0
 18 55  1  0
 19 27  1  0
 19 20  1  0
 19 56  1  6
 20 21  1  0
 20 57  1  0
 20 58  1  0
 21 22  1  0
 21 23  1  0
 21 59  1  1
 22 60  1  1
 23 27  1  0
 23 24  1  1
 23 32  1  0
 24 25  1  0
 25 26  1  0
 25 61  1  0
 25 62  1  0
 26 27  1  0
 27 28  1  6
 28 29  1  0
 29 30  1  0
 29 63  1  0
 29 64  1  0
 30 31  1  0
 31 65  1  0
 31 66  1  0
 31 67  1  0
 32 33  2  0
M  END
>  <i_m_ct_stereo_status>  (27) 
1

>  <s_m_source_file>  (27) 
/var/tmp/pbs.5076255.sched01/tmpoa2zap1w/0_chicbso.sdf

>  <i_m_source_file_index>  (27) 
13

>  <i_lp_mmshare_version>  (27) 
48012

>  <i_f3d_flags>  (27) 
0

>  <s_epik_input>  (27) 
Tz1DMUMoPVtDSDJdKVtDQEBIXShbQ0gyXVtDQEhdMltDSDNdKVtDSDJdW0NAQEhdKFtDSF09QyhbQ0gyXTMpW0NIM10pW0NAQEhdKFtDQEBIXTRDMTIzKVtDQEhdNVtDSDJdW0NAQEhdNltDQEBdNyhbQ0BdKEM1PU8pKFtDQEhdNFtDSDJdNilPW0NIMl1PNylPW0NIMl1PW0NIM10=

>  <s_epik_cmdline>  (27) 
J2VwaWtfcHl0aG9uJywgJy1waHQnLCAnMi4wJywgJy1waCcsICc3LjAnLCAnLXRuJywgJzgnLCAnLW1hJywgJzIwMCcsICctaW1hZScsICc8aW5maWxlLm1hZT4nLCAnLW9tYWUnLCAnPG91dGZpbGUubWFlPic=

>  <r_lp_tautomer_probability>  (27) 
1

>  <r_epik_Ionization_Penalty>  (27) 
2.60145e-11

>  <r_epik_Ionization_Penalty_Charging>  (27) 
0

>  <r_epik_Ionization_Penalty_Neutral>  (27) 
2.60145e-11

>  <r_epik_State_Penalty>  (27) 
-0

>  <r_epik_Charging_Adjusted_Penalty>  (27) 
0

>  <i_epik_Tot_Q>  (27) 
0

>  <i_epik_Tot_abs_Q>  (27) 
0

>  <s_epik_Chemistry_Notes>  (27) 
This compound contains an acetal/aminal-like group ( X-CH(R)-Y where X, Y are N, S, or O) that may be acid/base labile, releasing an aldehyde.

>  <s_lp_Force_Field>  (27) 
OPLS3e

>  <r_lp_Energy>  (27) 
536.094

>  <b_lp_Chiralities_Consistent>  (27) 
1

>  <s_lp_Variant>  (27) 
9:0-2

>  <s_i_glide_gridfile>  (27) 
pfpi4k_grid

>  <i_i_glide_lignum>  (27) 
13

>  <i_i_glide_rotatable_bonds>  (27) 
3

>  <r_i_docking_score>  (27) 
-2.60934

>  <r_i_glide_ligand_efficiency>  (27) 
-0.079071

>  <r_i_glide_ligand_efficiency_sa>  (27) 
-0.253623

>  <r_i_glide_ligand_efficiency_ln>  (27) 
-0.580304

>  <r_i_glide_gscore>  (27) 
-2.60934

>  <r_i_glide_lipo>  (27) 
-0.898038

>  <r_i_glide_hbond>  (27) 
0

>  <r_i_glide_metal>  (27) 
-0

>  <r_i_glide_rewards>  (27) 
-0.391844

>  <r_i_glide_evdw>  (27) 
-22.761

>  <r_i_glide_ecoul>  (27) 
-2.27347

>  <r_i_glide_erotb>  (27) 
0.194386

>  <r_i_glide_esite>  (27) 
-0.0347781

>  <r_i_glide_emodel>  (27) 
-28.9398

>  <r_i_glide_energy>  (27) 
-25.0344

>  <r_i_glide_einternal>  (27) 
0.251064

>  <r_i_glide_intrahb_reward>  (27) 
-0

>  <i_i_glide_confnum>  (27) 
2

>  <i_i_glide_posenum>  (27) 
22

>  <r_i_glide_eff_state_penalty>  (27) 
0

>  <ligand_id>  (27) 
9

>  <original_smiles>  (27) 
C=C1C(=O)C23CC(C)=CC(CC1CC2C)C1C2CC4CC(C13)C1(OCOC41OCOC)C2=O

>  <smiles>  (27) 
[H]C([H])=C1C(=O)C23C([H])([H])C(C([H])([H])[H])=C([H])C([H])(C([H])([H])C1([H])C([H])([H])C2([H])C([H])([H])[H])C1([H])C2([H])C(=O)C45OC([H])([H])OC4(OC([H])([H])OC([H])([H])[H])C([H])(C2([H])[H])C([H])([H])C5([H])C13[H]

$$$$
9:1:1
     RDKit          3D

 67 73  0  0  1  0  0  0  0  0999 V2000
    2.3803   -3.1423   -1.3937 C   0  0  0  0  0  0  0  0  0  0  0  0
    3.5126   -2.4368   -1.7127 C   0  0  0  0  0  0  0  0  0  0  0  0
    4.8122   -1.7402   -1.0274 C   0  0  0  0  0  0  0  0  0  0  0  0
    5.6881   -1.0940   -1.7083 O   0  0  0  0  0  0  0  0  0  0  0  0
    4.8178   -1.6325    0.3510 C   0  0  1  0  0  0  0  0  0  0  0  0
    6.4256   -1.6511    0.5378 C   0  0  0  0  0  0  0  0  0  0  0  0
    7.3521   -2.6122   -0.3996 C   0  0  0  0  0  0  0  0  0  0  0  0
    8.8204   -2.3371   -0.1977 C   0  0  0  0  0  0  0  0  0  0  0  0
    6.9933   -3.4564   -1.4500 C   0  0  0  0  0  0  0  0  0  0  0  0
    5.5493   -4.0580   -1.8178 C   0  0  2  0  0  0  0  0  0  0  0  0
    4.7735   -3.2036   -3.1215 C   0  0  0  0  0  0  0  0  0  0  0  0
    3.6107   -1.9470   -2.9859 C   0  0  2  0  0  0  0  0  0  0  0  0
    3.2554   -0.4698   -2.2122 C   0  0  0  0  0  0  0  0  0  0  0  0
    3.7442   -0.4421   -0.3493 C   0  0  1  0  0  0  0  0  0  0  0  0
    2.6306   -0.3022    0.7334 C   0  0  0  0  0  0  0  0  0  0  0  0
    4.9381   -4.3393   -0.3015 C   0  0  2  0  0  0  0  0  0  0  0  0
    4.3494   -5.7143    0.1136 C   0  0  1  0  0  0  0  0  0  0  0  0
    5.3644   -6.4862    1.0195 C   0  0  0  0  0  0  0  0  0  0  0  0
    5.4881   -5.9228    2.4932 C   0  0  1  0  0  0  0  0  0  0  0  0
    5.7759   -4.4236    2.5679 C   0  0  0  0  0  0  0  0  0  0  0  0
    4.4617   -3.7372    2.1496 C   0  0  1  0  0  0  0  0  0  0  0  0
    4.4352   -3.1410    0.7124 C   0  0  1  0  0  0  0  0  0  0  0  0
    3.3872   -4.9071    2.2838 C   0  0  2  0  0  0  0  0  0  0  0  0
    2.2737   -4.5387    3.0619 O   0  0  0  0  0  0  0  0  0  0  0  0
    2.6375   -4.8676    4.3679 C   0  0  0  0  0  0  0  0  0  0  0  0
    3.9156   -5.4325    4.3625 O   0  0  0  0  0  0  0  0  0  0  0  0
    4.0754   -5.9774    3.1057 C   0  0  2  0  0  0  0  0  0  0  0  0
    3.4691   -7.2470    3.0199 O   0  0  0  0  0  0  0  0  0  0  0  0
    4.1127   -8.2563    3.7476 C   0  0  0  0  0  0  0  0  0  0  0  0
    5.2717   -8.6701    3.0987 O   0  0  0  0  0  0  0  0  0  0  0  0
    5.9254   -9.7767    3.6875 C   0  0  0  0  0  0  0  0  0  0  0  0
    3.0541   -5.5281    0.9105 C   0  0  0  0  0  0  0  0  0  0  0  0
    1.9395   -5.8451    0.5048 O   0  0  0  0  0  0  0  0  0  0  0  0
    1.6592   -3.3384   -2.1884 H   0  0  0  0  0  0  0  0  0  0  0  0
    2.0484   -3.4956   -0.4328 H   0  0  0  0  0  0  0  0  0  0  0  0
    6.7986   -0.6132    0.4547 H   0  0  0  0  0  0  0  0  0  0  0  0
    6.6581   -1.9302    1.5599 H   0  0  0  0  0  0  0  0  0  0  0  0
    9.0057   -1.2643   -0.2941 H   0  0  0  0  0  0  0  0  0  0  0  0
    9.4182   -2.8860   -0.9243 H   0  0  0  0  0  0  0  0  0  0  0  0
    9.1306   -2.6518    0.7991 H   0  0  0  0  0  0  0  0  0  0  0  0
    7.7821   -3.8621   -2.0892 H   0  0  0  0  0  0  0  0  0  0  0  0
    5.5803   -5.0607   -2.2386 H   0  0  0  0  0  0  0  0  0  0  0  0
    5.5076   -2.8711   -3.8616 H   0  0  0  0  0  0  0  0  0  0  0  0
    4.2019   -3.9862   -3.6354 H   0  0  0  0  0  0  0  0  0  0  0  0
    2.7631   -2.1803   -3.6528 H   0  0  0  0  0  0  0  0  0  0  0  0
    3.7210    0.3245   -2.8327 H   0  0  0  0  0  0  0  0  0  0  0  0
    2.1817   -0.3565   -2.3695 H   0  0  0  0  0  0  0  0  0  0  0  0
    4.2626    0.5107   -0.1898 H   0  0  0  0  0  0  0  0  0  0  0  0
    2.1438   -1.2577    0.8894 H   0  0  0  0  0  0  0  0  0  0  0  0
    1.9160    0.4715    0.4964 H   0  0  0  0  0  0  0  0  0  0  0  0
    3.0350   -0.0739    1.7242 H   0  0  0  0  0  0  0  0  0  0  0  0
    5.9079   -4.5055    0.1258 H   0  0  0  0  0  0  0  0  0  0  0  0
    4.1699   -6.3235   -0.7576 H   0  0  0  0  0  0  0  0  0  0  0  0
    5.0335   -7.5181    1.0187 H   0  0  0  0  0  0  0  0  0  0  0  0
    6.3514   -6.5315    0.5541 H   0  0  0  0  0  0  0  0  0  0  0  0
    6.2184   -6.4627    3.0929 H   0  0  0  0  0  0  0  0  0  0  0  0
    5.9678   -4.1758    3.6068 H   0  0  0  0  0  0  0  0  0  0  0  0
    6.6633   -4.1226    2.0243 H   0  0  0  0  0  0  0  0  0  0  0  0
    4.2243   -2.9478    2.8557 H   0  0  0  0  0  0  0  0  0  0  0  0
    3.3852   -2.9694    0.7841 H   0  0  0  0  0  0  0  0  0  0  0  0
    2.6083   -3.9844    5.0141 H   0  0  0  0  0  0  0  0  0  0  0  0
    1.9473   -5.6240    4.7439 H   0  0  0  0  0  0  0  0  0  0  0  0
    4.3133   -7.9434    4.7783 H   0  0  0  0  0  0  0  0  0  0  0  0
    3.4134   -9.0975    3.7861 H   0  0  0  0  0  0  0  0  0  0  0  0
    6.8444   -9.9579    3.1264 H   0  0  0  0  0  0  0  0  0  0  0  0
    5.3077  -10.6794    3.6280 H   0  0  0  0  0  0  0  0  0  0  0  0
    6.2050   -9.5821    4.7285 H   0  0  0  0  0  0  0  0  0  0  0  0
  1  2  2  0
  1 34  1  0
  1 35  1  0
  2 12  1  0
  2  3  1  0
  3  4  2  0
  3  5  1  0
  5 14  1  0
  5 22  1  0
  5  6  1  1
  6  7  1  0
  6 36  1  0
  6 37  1  0
  7  8  1  0
  7  9  2  0
  8 38  1  0
  8 39  1  0
  8 40  1  0
  9 10  1  0
  9 41  1  0
 10 11  1  0
 10 16  1  0
 10 42  1  6
 11 12  1  0
 11 43  1  0
 11 44  1  0
 12 13  1  0
 12 45  1  6
 13 14  1  0
 13 46  1  0
 13 47  1  0
 14 15  1  0
 14 48  1  6
 15 49  1  0
 15 50  1  0
 15 51  1  0
 16 22  1  0
 16 17  1  0
 16 52  1  1
 17 32  1  0
 17 18  1  0
 17 53  1  6
 18 19  1  0
 18 54  1  0
 18 55  1  0
 19 27  1  0
 19 20  1  0
 19 56  1  1
 20 21  1  0
 20 57  1  0
 20 58  1  0
 21 22  1  0
 21 23  1  0
 21 59  1  1
 22 60  1  6
 23 27  1  0
 23 24  1  1
 23 32  1  0
 24 25  1  0
 25 26  1  0
 25 61  1  0
 25 62  1  0
 26 27  1  0
 27 28  1  1
 28 29  1  0
 29 30  1  0
 29 63  1  0
 29 64  1  0
 30 31  1  0
 31 65  1  0
 31 66  1  0
 31 67  1  0
 32 33  2  0
M  END
>  <i_m_ct_stereo_status>  (28) 
1

>  <s_m_source_file>  (28) 
/var/tmp/pbs.5076255.sched01/tmpoa2zap1w/0_chicbso.sdf

>  <i_m_source_file_index>  (28) 
13

>  <i_lp_mmshare_version>  (28) 
48012

>  <i_f3d_flags>  (28) 
0

>  <s_epik_input>  (28) 
Tz1DMUMoPVtDSDJdKVtDQEBIXShbQ0gyXVtDQEhdMltDSDNdKVtDSDJdW0NAQEhdKFtDSF09QyhbQ0gyXTMpW0NIM10pW0NAQEhdKFtDQEBIXTRDMTIzKVtDQEhdNVtDSDJdW0NAQEhdNltDQEBdNyhbQ0BdKEM1PU8pKFtDQEhdNFtDSDJdNilPW0NIMl1PNylPW0NIMl1PW0NIM10=

>  <s_epik_cmdline>  (28) 
J2VwaWtfcHl0aG9uJywgJy1waHQnLCAnMi4wJywgJy1waCcsICc3LjAnLCAnLXRuJywgJzgnLCAnLW1hJywgJzIwMCcsICctaW1hZScsICc8aW5maWxlLm1hZT4nLCAnLW9tYWUnLCAnPG91dGZpbGUubWFlPic=

>  <r_lp_tautomer_probability>  (28) 
1

>  <r_epik_Ionization_Penalty>  (28) 
2.60145e-11

>  <r_epik_Ionization_Penalty_Charging>  (28) 
0

>  <r_epik_Ionization_Penalty_Neutral>  (28) 
2.60145e-11

>  <r_epik_State_Penalty>  (28) 
-0

>  <r_epik_Charging_Adjusted_Penalty>  (28) 
0

>  <i_epik_Tot_Q>  (28) 
0

>  <i_epik_Tot_abs_Q>  (28) 
0

>  <s_epik_Chemistry_Notes>  (28) 
This compound contains an acetal/aminal-like group ( X-CH(R)-Y where X, Y are N, S, or O) that may be acid/base labile, releasing an aldehyde.

>  <s_lp_Force_Field>  (28) 
OPLS3e

>  <r_lp_Energy>  (28) 
536.094

>  <b_lp_Chiralities_Consistent>  (28) 
1

>  <s_lp_Variant>  (28) 
9:0-2

>  <s_i_glide_gridfile>  (28) 
pfpi4k_grid

>  <i_i_glide_lignum>  (28) 
13

>  <i_i_glide_rotatable_bonds>  (28) 
3

>  <r_i_docking_score>  (28) 
-1.79231

>  <r_i_glide_ligand_efficiency>  (28) 
-0.0543123

>  <r_i_glide_ligand_efficiency_sa>  (28) 
-0.174208

>  <r_i_glide_ligand_efficiency_ln>  (28) 
-0.398599

>  <r_i_glide_gscore>  (28) 
-1.79231

>  <r_i_glide_lipo>  (28) 
-0.639245

>  <r_i_glide_hbond>  (28) 
-0.0785414

>  <r_i_glide_metal>  (28) 
-0

>  <r_i_glide_rewards>  (28) 
-0.30985

>  <r_i_glide_evdw>  (28) 
-6.43642

>  <r_i_glide_ecoul>  (28) 
-3.9484

>  <r_i_glide_erotb>  (28) 
0.194386

>  <r_i_glide_esite>  (28) 
-0.0449734

>  <r_i_glide_emodel>  (28) 
-9.70669

>  <r_i_glide_energy>  (28) 
-10.3848

>  <r_i_glide_einternal>  (28) 
1.86659

>  <r_i_glide_intrahb_reward>  (28) 
-0

>  <i_i_glide_confnum>  (28) 
2

>  <i_i_glide_posenum>  (28) 
17

>  <r_i_glide_eff_state_penalty>  (28) 
0

>  <ligand_id>  (28) 
9

>  <original_smiles>  (28) 
C=C1C(=O)C23CC(C)=CC(CC1CC2C)C1C2CC4CC(C13)C1(OCOC41OCOC)C2=O

>  <smiles>  (28) 
[H]C([H])=C1C(=O)C23C([H])([H])C(C([H])([H])[H])=C([H])C([H])(C([H])([H])C1([H])C([H])([H])C2([H])C([H])([H])[H])C1([H])C2([H])C(=O)C45OC([H])([H])OC4(OC([H])([H])OC([H])([H])[H])C([H])(C2([H])[H])C([H])([H])C5([H])C13[H]

$$$$
10:0:0
     RDKit          3D

 55 61  0  0  1  0  0  0  0  0999 V2000
    1.1330   -8.8867    6.6225 C   0  0  0  0  0  0  0  0  0  0  0  0
    2.3531   -9.4214    6.3947 C   0  0  0  0  0  0  0  0  0  0  0  0
    2.9496   -9.9816    5.1119 C   0  0  2  0  0  0  0  0  0  0  0  0
    4.3364  -10.6447    5.3763 C   0  0  0  0  0  0  0  0  0  0  0  0
    4.7886  -11.5078    4.1437 C   0  0  0  0  0  0  0  0  0  0  0  0
    3.9869  -11.2046    2.9064 N   0  0  2  0  0  0  0  0  0  0  0  0
    4.4786   -9.9692    2.2494 C   0  0  0  0  0  0  0  0  0  0  0  0
    4.4584   -8.7669    3.2191 C   0  0  1  0  0  0  0  0  0  0  0  0
    4.7634   -7.4199    2.5082 C   0  0  0  0  0  0  0  0  0  0  0  0
    6.1198   -7.4135    2.0713 O   0  0  0  0  0  0  0  0  0  0  0  0
    6.6321   -6.2563    1.5230 C   0  0  0  0  0  0  0  0  0  0  0  0
    5.8849   -5.0816    1.2502 C   0  0  0  0  0  0  0  0  0  0  0  0
    6.5389   -3.9688    0.6855 C   0  0  0  0  0  0  0  0  0  0  0  0
    7.9139   -4.0611    0.4101 C   0  0  0  0  0  0  0  0  0  0  0  0
    8.6377   -5.1698    0.6555 N   0  0  0  0  0  0  0  0  0  0  0  0
    8.0060   -6.2323    1.2009 C   0  0  0  0  0  0  0  0  0  0  0  0
    3.1283   -8.7790    4.0475 C   0  0  1  0  0  0  0  0  0  0  0  0
    1.9880   -8.7347    3.0097 C   0  0  2  0  0  0  0  0  0  0  0  0
    0.7923   -7.9125    3.4675 C   0  0  0  0  0  0  0  0  0  0  0  0
   -0.0924   -8.8896    4.2054 C   0  0  2  0  0  0  0  0  0  0  0  0
   -0.1054   -8.6685    5.7438 C   0  0  0  0  0  0  0  0  0  0  0  0
    0.2576  -10.2797    3.6185 C   0  0  2  0  0  0  0  0  0  0  0  0
    0.6500  -11.3016    4.6626 C   0  0  0  0  0  0  0  0  0  0  0  0
    2.1703  -11.2590    4.6244 C   0  0  1  0  0  0  0  0  0  0  0  0
    2.4904  -11.3052    3.1454 C   0  0  1  0  0  0  0  0  0  0  0  0
    1.5091  -10.1593    2.7020 C   0  0  2  0  0  0  0  0  0  0  0  0
    0.9663   -8.5707    7.6393 H   0  0  0  0  0  0  0  0  0  0  0  0
    3.0198   -9.4623    7.2425 H   0  0  0  0  0  0  0  0  0  0  0  0
    5.0844   -9.9047    5.6637 H   0  0  0  0  0  0  0  0  0  0  0  0
    4.2762  -11.3004    6.2502 H   0  0  0  0  0  0  0  0  0  0  0  0
    5.8583  -11.3888    3.9666 H   0  0  0  0  0  0  0  0  0  0  0  0
    4.6483  -12.5643    4.3870 H   0  0  0  0  0  0  0  0  0  0  0  0
    5.5027  -10.1408    1.9153 H   0  0  0  0  0  0  0  0  0  0  0  0
    3.9011   -9.7927    1.3413 H   0  0  0  0  0  0  0  0  0  0  0  0
    5.3007   -8.8477    3.9017 H   0  0  0  0  0  0  0  0  0  0  0  0
    4.1079   -7.2444    1.6546 H   0  0  0  0  0  0  0  0  0  0  0  0
    4.6130   -6.6028    3.2165 H   0  0  0  0  0  0  0  0  0  0  0  0
    4.8294   -5.0164    1.4602 H   0  0  0  0  0  0  0  0  0  0  0  0
    5.9976   -3.0621    0.4650 H   0  0  0  0  0  0  0  0  0  0  0  0
    8.4484   -3.2274   -0.0252 H   0  0  0  0  0  0  0  0  0  0  0  0
    8.6162   -7.1020    1.3860 H   0  0  0  0  0  0  0  0  0  0  0  0
    3.1355   -7.8444    4.6069 H   0  0  0  0  0  0  0  0  0  0  0  0
    2.3112   -8.2804    2.0757 H   0  0  0  0  0  0  0  0  0  0  0  0
    1.0654   -7.0413    4.0618 H   0  0  0  0  0  0  0  0  0  0  0  0
    0.2572   -7.5476    2.5905 H   0  0  0  0  0  0  0  0  0  0  0  0
   -1.1172   -8.6813    3.8969 H   0  0  0  0  0  0  0  0  0  0  0  0
   -0.9081   -9.2672    6.1749 H   0  0  0  0  0  0  0  0  0  0  0  0
   -0.4021   -7.6356    5.9144 H   0  0  0  0  0  0  0  0  0  0  0  0
   -0.5801  -10.6509    3.0359 H   0  0  0  0  0  0  0  0  0  0  0  0
    0.2176  -11.1773    5.6528 H   0  0  0  0  0  0  0  0  0  0  0  0
    0.3155  -12.2862    4.3314 H   0  0  0  0  0  0  0  0  0  0  0  0
    2.4878  -12.1653    5.1504 H   0  0  0  0  0  0  0  0  0  0  0  0
    2.1564  -12.2565    2.7332 H   0  0  0  0  0  0  0  0  0  0  0  0
    1.2266  -10.2538    1.6576 H   0  0  0  0  0  0  0  0  0  0  0  0
    4.1936  -11.9180    2.2174 H   0  0  0  0  0  0  0  0  0  0  0  0
  1 21  1  0
  1  2  2  3
  1 27  1  0
  2  3  1  0
  2 28  1  0
  3 17  1  0
  3 24  1  0
  3  4  1  1
  4  5  1  0
  4 29  1  0
  4 30  1  0
  5  6  1  0
  5 31  1  0
  5 32  1  0
  6 25  1  0
  6  7  1  0
  6 55  1  6
  7  8  1  0
  7 33  1  0
  7 34  1  0
  8  9  1  0
  8 17  1  0
  8 35  1  1
  9 10  1  0
  9 36  1  0
  9 37  1  0
 10 11  1  0
 11 16  1  0
 11 12  2  0
 12 13  1  0
 12 38  1  0
 13 14  2  0
 13 39  1  0
 14 15  1  0
 14 40  1  0
 15 16  2  0
 16 41  1  0
 17 18  1  0
 17 42  1  1
 18 26  1  0
 18 19  1  0
 18 43  1  6
 19 20  1  0
 19 44  1  0
 19 45  1  0
 20 21  1  0
 20 22  1  0
 20 46  1  6
 21 47  1  0
 21 48  1  0
 22 26  1  0
 22 23  1  0
 22 49  1  6
 23 24  1  0
 23 50  1  0
 23 51  1  0
 24 25  1  0
 24 52  1  1
 25 26  1  0
 25 53  1  6
 26 54  1  6
M  CHG  1   6   1
M  END
>  <i_m_ct_stereo_status>  (29) 
1

>  <s_m_source_file>  (29) 
/var/tmp/pbs.5076255.sched01/tmpoa2zap1w/0_chicbso.sdf

>  <i_m_source_file_index>  (29) 
14

>  <i_lp_mmshare_version>  (29) 
48012

>  <i_f3d_flags>  (29) 
0

>  <s_epik_input>  (29) 
W0NIXS8xPVtDSF1cW0NIMl1bQ0BASF0oW0NIMl0yKVtDQEBIXShbQ0BIXTNbQ0BASF0yW0NASF00W0NAXTE1NilbQ0gyXVtDQEhdNltDQEBIXTNOKFtDSDJdW0NIMl01KVtDSDJdW0NASF00W0NIMl1PYzdbY0hdW2NIXVtjSF1uW2NIXTc=

>  <s_epik_cmdline>  (29) 
J2VwaWtfcHl0aG9uJywgJy1waHQnLCAnMi4wJywgJy1waCcsICc3LjAnLCAnLXRuJywgJzgnLCAnLW1hJywgJzIwMCcsICctaW1hZScsICc8aW5maWxlLm1hZT4nLCAnLW9tYWUnLCAnPG91dGZpbGUubWFlPic=

>  <r_lp_tautomer_probability>  (29) 
1

>  <r_epik_Ionization_Penalty>  (29) 
0.0020143

>  <r_epik_Ionization_Penalty_Charging>  (29) 
0.000222114

>  <r_epik_Ionization_Penalty_Neutral>  (29) 
0.00179218

>  <r_epik_State_Penalty>  (29) 
0.00121519

>  <r_epik_Charging_Adjusted_Penalty>  (29) 
0.0014373

>  <i_epik_Tot_Q>  (29) 
1

>  <i_epik_Tot_abs_Q>  (29) 
1

>  <s_lp_Force_Field>  (29) 
OPLS3e

>  <r_lp_Energy>  (29) 
97.8783

>  <b_lp_Chiralities_Consistent>  (29) 
1

>  <s_lp_Variant>  (29) 
10:0-1

>  <s_i_glide_gridfile>  (29) 
pfpi4k_grid

>  <i_i_glide_lignum>  (29) 
14

>  <i_i_glide_rotatable_bonds>  (29) 
3

>  <r_i_docking_score>  (29) 
-3.35066

>  <r_i_glide_ligand_efficiency>  (29) 
-0.128872

>  <r_i_glide_ligand_efficiency_sa>  (29) 
-0.381782

>  <r_i_glide_ligand_efficiency_ln>  (29) 
-0.786892

>  <r_i_glide_gscore>  (29) 
-3.35066

>  <r_i_glide_lipo>  (29) 
-0.577147

>  <r_i_glide_hbond>  (29) 
-0.152486

>  <r_i_glide_metal>  (29) 
-0

>  <r_i_glide_rewards>  (29) 
-1.02621

>  <r_i_glide_evdw>  (29) 
-22.9481

>  <r_i_glide_ecoul>  (29) 
-5.48328

>  <r_i_glide_erotb>  (29) 
0.46788

>  <r_i_glide_esite>  (29) 
-0.0928055

>  <r_i_glide_emodel>  (29) 
-36.8219

>  <r_i_glide_energy>  (29) 
-28.4313

>  <r_i_glide_einternal>  (29) 
0.710236

>  <r_i_glide_intrahb_reward>  (29) 
-0

>  <i_i_glide_confnum>  (29) 
2

>  <i_i_glide_posenum>  (29) 
6

>  <r_i_glide_eff_state_penalty>  (29) 
0

>  <ligand_id>  (29) 
10

>  <original_smiles>  (29) 
C1=CC23CCN4CC(COc5cccnc5)C2C2CC(C1)C1CC3C4C12

>  <smiles>  (29) 
[H]C1=C([H])C23C([H])([H])C([H])([H])[N+]4([H])C([H])([H])C([H])(C([H])([H])Oc5c([H])nc([H])c([H])c5[H])C2([H])C2([H])C([H])([H])C([H])(C1([H])[H])C1([H])C([H])([H])C3([H])C4([H])C12[H]

$$$$
10:0:1
     RDKit          3D

 55 61  0  0  1  0  0  0  0  0999 V2000
    2.0053   -6.3149    4.8352 C   0  0  0  0  0  0  0  0  0  0  0  0
    2.7892   -7.3132    5.3026 C   0  0  0  0  0  0  0  0  0  0  0  0
    2.8143   -8.7845    4.9222 C   0  0  2  0  0  0  0  0  0  0  0  0
    3.7999   -9.5909    5.8344 C   0  0  0  0  0  0  0  0  0  0  0  0
    3.5674  -11.1358    5.6475 C   0  0  0  0  0  0  0  0  0  0  0  0
    2.7683  -11.4562    4.4328 N   0  0  2  0  0  0  0  0  0  0  0  0
    3.6117  -11.4265    3.2187 C   0  0  0  0  0  0  0  0  0  0  0  0
    4.3204  -10.0480    3.0508 C   0  0  1  0  0  0  0  0  0  0  0  0
    5.0706   -9.8809    1.6884 C   0  0  0  0  0  0  0  0  0  0  0  0
    6.0029   -8.7794    1.6593 O   0  0  0  0  0  0  0  0  0  0  0  0
    5.5929   -7.5235    1.2727 C   0  0  0  0  0  0  0  0  0  0  0  0
    4.2795   -7.2682    0.7338 C   0  0  0  0  0  0  0  0  0  0  0  0
    3.9430   -5.9489    0.4487 C   0  0  0  0  0  0  0  0  0  0  0  0
    4.9072   -4.9308    0.5499 C   0  0  0  0  0  0  0  0  0  0  0  0
    6.1707   -5.1685    0.9676 N   0  0  0  0  0  0  0  0  0  0  0  0
    6.4932   -6.4434    1.3017 C   0  0  0  0  0  0  0  0  0  0  0  0
    3.2819   -8.9082    3.3930 C   0  0  1  0  0  0  0  0  0  0  0  0
    2.0966   -9.1114    2.4271 C   0  0  2  0  0  0  0  0  0  0  0  0
    1.4807   -7.7856    1.9522 C   0  0  0  0  0  0  0  0  0  0  0  0
    0.4066   -7.4516    2.9370 C   0  0  2  0  0  0  0  0  0  0  0  0
    0.8280   -6.2506    3.8451 C   0  0  0  0  0  0  0  0  0  0  0  0
   -0.0026   -8.8157    3.5498 C   0  0  2  0  0  0  0  0  0  0  0  0
    0.1362   -8.8222    5.0558 C   0  0  0  0  0  0  0  0  0  0  0  0
    1.4722   -9.5166    5.3111 C   0  0  1  0  0  0  0  0  0  0  0  0
    1.4510  -10.7165    4.3864 C   0  0  1  0  0  0  0  0  0  0  0  0
    0.9886   -9.9372    3.0817 C   0  0  2  0  0  0  0  0  0  0  0  0
    2.2294   -5.3524    5.2624 H   0  0  0  0  0  0  0  0  0  0  0  0
    3.5467   -7.0379    6.0251 H   0  0  0  0  0  0  0  0  0  0  0  0
    4.8367   -9.2944    5.6521 H   0  0  0  0  0  0  0  0  0  0  0  0
    3.6288   -9.3370    6.8854 H   0  0  0  0  0  0  0  0  0  0  0  0
    4.5347  -11.6609    5.6606 H   0  0  0  0  0  0  0  0  0  0  0  0
    3.0196  -11.4957    6.5209 H   0  0  0  0  0  0  0  0  0  0  0  0
    4.3822  -12.2048    3.2938 H   0  0  0  0  0  0  0  0  0  0  0  0
    3.0130  -11.6929    2.3503 H   0  0  0  0  0  0  0  0  0  0  0  0
    5.1521  -10.0335    3.7561 H   0  0  0  0  0  0  0  0  0  0  0  0
    5.6905  -10.7735    1.5676 H   0  0  0  0  0  0  0  0  0  0  0  0
    4.4121   -9.9087    0.8147 H   0  0  0  0  0  0  0  0  0  0  0  0
    3.5409   -8.0384    0.5812 H   0  0  0  0  0  0  0  0  0  0  0  0
    2.9379   -5.7261    0.1275 H   0  0  0  0  0  0  0  0  0  0  0  0
    4.6271   -3.9051    0.3176 H   0  0  0  0  0  0  0  0  0  0  0  0
    7.5239   -6.5803    1.6566 H   0  0  0  0  0  0  0  0  0  0  0  0
    3.8092   -7.9825    3.1724 H   0  0  0  0  0  0  0  0  0  0  0  0
    2.3988   -9.6570    1.5354 H   0  0  0  0  0  0  0  0  0  0  0  0
    2.2093   -6.9830    1.8942 H   0  0  0  0  0  0  0  0  0  0  0  0
    1.0142   -7.9415    0.9741 H   0  0  0  0  0  0  0  0  0  0  0  0
   -0.4609   -7.1018    2.3684 H   0  0  0  0  0  0  0  0  0  0  0  0
   -0.0269   -5.8904    4.4046 H   0  0  0  0  0  0  0  0  0  0  0  0
    1.0806   -5.4266    3.1832 H   0  0  0  0  0  0  0  0  0  0  0  0
   -1.0241   -9.0775    3.2622 H   0  0  0  0  0  0  0  0  0  0  0  0
    0.0097   -7.8695    5.5630 H   0  0  0  0  0  0  0  0  0  0  0  0
   -0.6478   -9.4580    5.4681 H   0  0  0  0  0  0  0  0  0  0  0  0
    1.4594   -9.8083    6.3693 H   0  0  0  0  0  0  0  0  0  0  0  0
    0.6498  -11.3977    4.6935 H   0  0  0  0  0  0  0  0  0  0  0  0
    0.5269  -10.6098    2.3479 H   0  0  0  0  0  0  0  0  0  0  0  0
    2.5048  -12.4376    4.5494 H   0  0  0  0  0  0  0  0  0  0  0  0
  1 21  1  0
  1  2  2  3
  1 27  1  0
  2  3  1  0
  2 28  1  0
  3 17  1  0
  3 24  1  0
  3  4  1  1
  4  5  1  0
  4 29  1  0
  4 30  1  0
  5  6  1  0
  5 31  1  0
  5 32  1  0
  6 25  1  0
  6  7  1  0
  6 55  1  1
  7  8  1  0
  7 33  1  0
  7 34  1  0
  8  9  1  0
  8 17  1  0
  8 35  1  1
  9 10  1  0
  9 36  1  0
  9 37  1  0
 10 11  1  0
 11 16  1  0
 11 12  2  0
 12 13  1  0
 12 38  1  0
 13 14  2  0
 13 39  1  0
 14 15  1  0
 14 40  1  0
 15 16  2  0
 16 41  1  0
 17 18  1  0
 17 42  1  6
 18 26  1  0
 18 19  1  0
 18 43  1  6
 19 20  1  0
 19 44  1  0
 19 45  1  0
 20 21  1  0
 20 22  1  0
 20 46  1  6
 21 47  1  0
 21 48  1  0
 22 26  1  0
 22 23  1  0
 22 49  1  1
 23 24  1  0
 23 50  1  0
 23 51  1  0
 24 25  1  0
 24 52  1  1
 25 26  1  0
 25 53  1  1
 26 54  1  6
M  CHG  1   6   1
M  END
>  <i_m_ct_stereo_status>  (30) 
1

>  <s_m_source_file>  (30) 
/var/tmp/pbs.5076255.sched01/tmpoa2zap1w/0_chicbso.sdf

>  <i_m_source_file_index>  (30) 
14

>  <i_lp_mmshare_version>  (30) 
48012

>  <i_f3d_flags>  (30) 
0

>  <s_epik_input>  (30) 
W0NIXS8xPVtDSF1cW0NIMl1bQ0BASF0oW0NIMl0yKVtDQEBIXShbQ0BIXTNbQ0BASF0yW0NASF00W0NAXTE1NilbQ0gyXVtDQEhdNltDQEBIXTNOKFtDSDJdW0NIMl01KVtDSDJdW0NASF00W0NIMl1PYzdbY0hdW2NIXVtjSF1uW2NIXTc=

>  <s_epik_cmdline>  (30) 
J2VwaWtfcHl0aG9uJywgJy1waHQnLCAnMi4wJywgJy1waCcsICc3LjAnLCAnLXRuJywgJzgnLCAnLW1hJywgJzIwMCcsICctaW1hZScsICc8aW5maWxlLm1hZT4nLCAnLW9tYWUnLCAnPG91dGZpbGUubWFlPic=

>  <r_lp_tautomer_probability>  (30) 
1

>  <r_epik_Ionization_Penalty>  (30) 
0.0020143

>  <r_epik_Ionization_Penalty_Charging>  (30) 
0.000222114

>  <r_epik_Ionization_Penalty_Neutral>  (30) 
0.00179218

>  <r_epik_State_Penalty>  (30) 
0.00121519

>  <r_epik_Charging_Adjusted_Penalty>  (30) 
0.0014373

>  <i_epik_Tot_Q>  (30) 
1

>  <i_epik_Tot_abs_Q>  (30) 
1

>  <s_lp_Force_Field>  (30) 
OPLS3e

>  <r_lp_Energy>  (30) 
97.8783

>  <b_lp_Chiralities_Consistent>  (30) 
1

>  <s_lp_Variant>  (30) 
10:0-1

>  <s_i_glide_gridfile>  (30) 
pfpi4k_grid

>  <i_i_glide_lignum>  (30) 
14

>  <i_i_glide_rotatable_bonds>  (30) 
3

>  <r_i_docking_score>  (30) 
-2.95542

>  <r_i_glide_ligand_efficiency>  (30) 
-0.11367

>  <r_i_glide_ligand_efficiency_sa>  (30) 
-0.336746

>  <r_i_glide_ligand_efficiency_ln>  (30) 
-0.69407

>  <r_i_glide_gscore>  (30) 
-2.95542

>  <r_i_glide_lipo>  (30) 
-0.568574

>  <r_i_glide_hbond>  (30) 
0

>  <r_i_glide_metal>  (30) 
-0

>  <r_i_glide_rewards>  (30) 
-1.02621

>  <r_i_glide_evdw>  (30) 
-20.3387

>  <r_i_glide_ecoul>  (30) 
-5.2265

>  <r_i_glide_erotb>  (30) 
0.46788

>  <r_i_glide_esite>  (30) 
-0.0276011

>  <r_i_glide_emodel>  (30) 
-31.1364

>  <r_i_glide_energy>  (30) 
-25.5652

>  <r_i_glide_einternal>  (30) 
0.908141

>  <r_i_glide_intrahb_reward>  (30) 
-0

>  <i_i_glide_confnum>  (30) 
1

>  <i_i_glide_posenum>  (30) 
11

>  <r_i_glide_eff_state_penalty>  (30) 
0

>  <ligand_id>  (30) 
10

>  <original_smiles>  (30) 
C1=CC23CCN4CC(COc5cccnc5)C2C2CC(C1)C1CC3C4C12

>  <smiles>  (30) 
[H]C1=C([H])C23C([H])([H])C([H])([H])[N+]4([H])C([H])([H])C([H])(C([H])([H])Oc5c([H])nc([H])c([H])c5[H])C2([H])C2([H])C([H])([H])C([H])(C1([H])[H])C1([H])C([H])([H])C3([H])C4([H])C12[H]

$$$$
10:0:2
     RDKit          3D

 55 61  0  0  1  0  0  0  0  0999 V2000
    1.4735   -6.1613    5.1337 C   0  0  0  0  0  0  0  0  0  0  0  0
    2.3781   -7.1194    5.4300 C   0  0  0  0  0  0  0  0  0  0  0  0
    2.4058   -8.5897    5.0386 C   0  0  2  0  0  0  0  0  0  0  0  0
    3.5773   -9.3373    5.7511 C   0  0  0  0  0  0  0  0  0  0  0  0
    3.4104  -10.8928    5.6162 C   0  0  0  0  0  0  0  0  0  0  0  0
    2.4049  -11.2770    4.5646 N   0  0  2  0  0  0  0  0  0  0  0  0
    3.0101  -11.2021    3.2066 C   0  0  0  0  0  0  0  0  0  0  0  0
    3.5808   -9.7898    2.9337 C   0  0  1  0  0  0  0  0  0  0  0  0
    4.0475   -9.5879    1.4613 C   0  0  0  0  0  0  0  0  0  0  0  0
    4.4676   -8.2521    1.1915 O   0  0  0  0  0  0  0  0  0  0  0  0
    5.6916   -7.8279    1.6653 C   0  0  0  0  0  0  0  0  0  0  0  0
    6.6144   -8.6278    2.3840 C   0  0  0  0  0  0  0  0  0  0  0  0
    7.8231   -8.0594    2.8127 C   0  0  0  0  0  0  0  0  0  0  0  0
    8.0960   -6.7224    2.4770 C   0  0  0  0  0  0  0  0  0  0  0  0
    7.2356   -5.9486    1.7877 N   0  0  0  0  0  0  0  0  0  0  0  0
    6.0626   -6.4928    1.4010 C   0  0  0  0  0  0  0  0  0  0  0  0
    2.5896   -8.6990    3.4442 C   0  0  1  0  0  0  0  0  0  0  0  0
    1.2713   -8.9587    2.6924 C   0  0  2  0  0  0  0  0  0  0  0  0
    0.5362   -7.6768    2.3291 C   0  0  0  0  0  0  0  0  0  0  0  0
   -0.3383   -7.3832    3.5248 C   0  0  2  0  0  0  0  0  0  0  0  0
    0.1469   -6.1623    4.3608 C   0  0  0  0  0  0  0  0  0  0  0  0
   -0.5735   -8.7577    4.2045 C   0  0  2  0  0  0  0  0  0  0  0  0
   -0.1879   -8.7771    5.6694 C   0  0  0  0  0  0  0  0  0  0  0  0
    1.2016   -9.3848    5.6608 C   0  0  1  0  0  0  0  0  0  0  0  0
    1.0628  -10.5818    4.7448 C   0  0  1  0  0  0  0  0  0  0  0  0
    0.3477   -9.8344    3.5517 C   0  0  2  0  0  0  0  0  0  0  0  0
    1.6999   -5.1896    5.5425 H   0  0  0  0  0  0  0  0  0  0  0  0
    3.2290   -6.8069    6.0178 H   0  0  0  0  0  0  0  0  0  0  0  0
    4.5507   -8.9900    5.4005 H   0  0  0  0  0  0  0  0  0  0  0  0
    3.5937   -9.0896    6.8152 H   0  0  0  0  0  0  0  0  0  0  0  0
    4.3758  -11.3717    5.4360 H   0  0  0  0  0  0  0  0  0  0  0  0
    3.0591  -11.2947    6.5669 H   0  0  0  0  0  0  0  0  0  0  0  0
    3.8195  -11.9342    3.1366 H   0  0  0  0  0  0  0  0  0  0  0  0
    2.2710  -11.5136    2.4783 H   0  0  0  0  0  0  0  0  0  0  0  0
    4.4987   -9.7206    3.4956 H   0  0  0  0  0  0  0  0  0  0  0  0
    4.8658  -10.2569    1.2159 H   0  0  0  0  0  0  0  0  0  0  0  0
    3.2632   -9.8456    0.7471 H   0  0  0  0  0  0  0  0  0  0  0  0
    6.4355   -9.6652    2.6172 H   0  0  0  0  0  0  0  0  0  0  0  0
    8.5409   -8.6489    3.3592 H   0  0  0  0  0  0  0  0  0  0  0  0
    9.0339   -6.2711    2.7674 H   0  0  0  0  0  0  0  0  0  0  0  0
    5.4015   -5.8401    0.8511 H   0  0  0  0  0  0  0  0  0  0  0  0
    3.0093   -7.7529    3.1092 H   0  0  0  0  0  0  0  0  0  0  0  0
    1.4382   -9.4697    1.7455 H   0  0  0  0  0  0  0  0  0  0  0  0
    1.2022   -6.8569    2.0628 H   0  0  0  0  0  0  0  0  0  0  0  0
   -0.0954   -7.8680    1.4610 H   0  0  0  0  0  0  0  0  0  0  0  0
   -1.3061   -7.0761    3.1300 H   0  0  0  0  0  0  0  0  0  0  0  0
   -0.6322   -5.8912    5.0726 H   0  0  0  0  0  0  0  0  0  0  0  0
    0.2136   -5.3106    3.6866 H   0  0  0  0  0  0  0  0  0  0  0  0
   -1.6176   -9.0537    4.0961 H   0  0  0  0  0  0  0  0  0  0  0  0
   -0.2515   -7.8356    6.2027 H   0  0  0  0  0  0  0  0  0  0  0  0
   -0.8590   -9.4561    6.1954 H   0  0  0  0  0  0  0  0  0  0  0  0
    1.3963   -9.6806    6.6967 H   0  0  0  0  0  0  0  0  0  0  0  0
    0.3786  -11.3052    5.1930 H   0  0  0  0  0  0  0  0  0  0  0  0
   -0.2193  -10.5241    2.9244 H   0  0  0  0  0  0  0  0  0  0  0  0
    2.2180  -12.2589    4.7193 H   0  0  0  0  0  0  0  0  0  0  0  0
  1 21  1  0
  1  2  2  3
  1 27  1  0
  2  3  1  0
  2 28  1  0
  3 17  1  0
  3 24  1  0
  3  4  1  1
  4  5  1  0
  4 29  1  0
  4 30  1  0
  5  6  1  0
  5 31  1  0
  5 32  1  0
  6 25  1  0
  6  7  1  0
  6 55  1  1
  7  8  1  0
  7 33  1  0
  7 34  1  0
  8  9  1  0
  8 17  1  0
  8 35  1  1
  9 10  1  0
  9 36  1  0
  9 37  1  0
 10 11  1  0
 11 16  1  0
 11 12  2  0
 12 13  1  0
 12 38  1  0
 13 14  2  0
 13 39  1  0
 14 15  1  0
 14 40  1  0
 15 16  2  0
 16 41  1  0
 17 18  1  0
 17 42  1  6
 18 26  1  0
 18 19  1  0
 18 43  1  6
 19 20  1  0
 19 44  1  0
 19 45  1  0
 20 21  1  0
 20 22  1  0
 20 46  1  6
 21 47  1  0
 21 48  1  0
 22 26  1  0
 22 23  1  0
 22 49  1  1
 23 24  1  0
 23 50  1  0
 23 51  1  0
 24 25  1  0
 24 52  1  1
 25 26  1  0
 25 53  1  1
 26 54  1  6
M  CHG  1   6   1
M  END
>  <i_m_ct_stereo_status>  (31) 
1

>  <s_m_source_file>  (31) 
/var/tmp/pbs.5076255.sched01/tmpoa2zap1w/0_chicbso.sdf

>  <i_m_source_file_index>  (31) 
14

>  <i_lp_mmshare_version>  (31) 
48012

>  <i_f3d_flags>  (31) 
0

>  <s_epik_input>  (31) 
W0NIXS8xPVtDSF1cW0NIMl1bQ0BASF0oW0NIMl0yKVtDQEBIXShbQ0BIXTNbQ0BASF0yW0NASF00W0NAXTE1NilbQ0gyXVtDQEhdNltDQEBIXTNOKFtDSDJdW0NIMl01KVtDSDJdW0NASF00W0NIMl1PYzdbY0hdW2NIXVtjSF1uW2NIXTc=

>  <s_epik_cmdline>  (31) 
J2VwaWtfcHl0aG9uJywgJy1waHQnLCAnMi4wJywgJy1waCcsICc3LjAnLCAnLXRuJywgJzgnLCAnLW1hJywgJzIwMCcsICctaW1hZScsICc8aW5maWxlLm1hZT4nLCAnLW9tYWUnLCAnPG91dGZpbGUubWFlPic=

>  <r_lp_tautomer_probability>  (31) 
1

>  <r_epik_Ionization_Penalty>  (31) 
0.0020143

>  <r_epik_Ionization_Penalty_Charging>  (31) 
0.000222114

>  <r_epik_Ionization_Penalty_Neutral>  (31) 
0.00179218

>  <r_epik_State_Penalty>  (31) 
0.00121519

>  <r_epik_Charging_Adjusted_Penalty>  (31) 
0.0014373

>  <i_epik_Tot_Q>  (31) 
1

>  <i_epik_Tot_abs_Q>  (31) 
1

>  <s_lp_Force_Field>  (31) 
OPLS3e

>  <r_lp_Energy>  (31) 
97.8783

>  <b_lp_Chiralities_Consistent>  (31) 
1

>  <s_lp_Variant>  (31) 
10:0-1

>  <s_i_glide_gridfile>  (31) 
pfpi4k_grid

>  <i_i_glide_lignum>  (31) 
14

>  <i_i_glide_rotatable_bonds>  (31) 
3

>  <r_i_docking_score>  (31) 
-2.7157

>  <r_i_glide_ligand_efficiency>  (31) 
-0.10445

>  <r_i_glide_ligand_efficiency_sa>  (31) 
-0.309432

>  <r_i_glide_ligand_efficiency_ln>  (31) 
-0.637772

>  <r_i_glide_gscore>  (31) 
-2.7157

>  <r_i_glide_lipo>  (31) 
-0.232714

>  <r_i_glide_hbond>  (31) 
0

>  <r_i_glide_metal>  (31) 
-0

>  <r_i_glide_rewards>  (31) 
-1.02621

>  <r_i_glide_evdw>  (31) 
-22.2017

>  <r_i_glide_ecoul>  (31) 
-5.15985

>  <r_i_glide_erotb>  (31) 
0.46788

>  <r_i_glide_esite>  (31) 
-0.0405908

>  <r_i_glide_emodel>  (31) 
-33.9603

>  <r_i_glide_energy>  (31) 
-27.3615

>  <r_i_glide_einternal>  (31) 
0.765327

>  <r_i_glide_intrahb_reward>  (31) 
-0

>  <i_i_glide_confnum>  (31) 
1

>  <i_i_glide_posenum>  (31) 
32

>  <r_i_glide_eff_state_penalty>  (31) 
0

>  <ligand_id>  (31) 
10

>  <original_smiles>  (31) 
C1=CC23CCN4CC(COc5cccnc5)C2C2CC(C1)C1CC3C4C12

>  <smiles>  (31) 
[H]C1=C([H])C23C([H])([H])C([H])([H])[N+]4([H])C([H])([H])C([H])(C([H])([H])Oc5c([H])nc([H])c([H])c5[H])C2([H])C2([H])C([H])([H])C([H])(C1([H])[H])C1([H])C([H])([H])C3([H])C4([H])C12[H]

$$$$
13:0:0
     RDKit          3D

 60 63  0  0  1  0  0  0  0  0999 V2000
    3.9169    2.2187    4.5066 C   0  0  0  0  0  0  0  0  0  0  0  0
    2.4768    1.8968    4.1578 C   0  0  0  0  0  0  0  0  0  0  0  0
    1.6998    2.7267    3.4403 C   0  0  0  0  0  0  0  0  0  0  0  0
    0.2566    2.3794    3.0994 C   0  0  0  0  0  0  0  0  0  0  0  0
   -0.2098    1.0950    3.8660 C   0  0  2  0  0  0  0  0  0  0  0  0
   -0.3152    1.3437    5.4204 C   0  0  1  0  0  0  0  0  0  0  0  0
    1.0778    0.8739    5.9433 C   0  0  0  0  0  0  0  0  0  0  0  0
    1.9162    0.5682    4.6865 C   0  0  1  0  0  0  0  0  0  0  0  0
    0.8749   -0.0234    3.7044 C   0  0  1  0  0  0  0  0  0  0  0  0
    0.3768   -1.4329    4.1620 C   0  0  0  0  0  0  0  0  0  0  0  0
    1.4104   -0.1873    2.2447 C   0  0  0  0  0  0  0  0  0  0  0  0
    2.4969   -1.2653    2.0653 C   0  0  0  0  0  0  0  0  0  0  0  0
    3.0313   -1.2738    0.6889 N   0  0  0  0  0  0  0  0  0  0  0  0
    4.1272   -0.3111    0.4552 C   0  0  0  0  0  0  0  0  0  0  0  0
    4.7538   -0.7772   -0.8630 C   0  0  0  0  0  0  0  0  0  0  0  0
    4.4105   -2.2700   -0.9743 C   0  0  0  0  0  0  0  0  0  0  0  0
    3.5913   -2.5759    0.2775 C   0  0  0  0  0  0  0  0  0  0  0  0
   -0.6334    2.7987    5.8880 C   0  0  0  0  0  0  0  0  0  0  0  0
   -1.4453    2.7401    7.2024 C   0  0  0  0  0  0  0  0  0  0  0  0
   -0.5275    2.6586    8.4327 C   0  0  0  0  0  0  0  0  0  0  0  0
   -2.3625    3.9604    7.3387 C   0  0  0  0  0  0  0  0  0  0  0  0
   -2.2655    1.4604    7.0618 C   0  0  0  0  0  0  0  0  0  0  0  0
   -1.4943    0.5974    6.0837 C   0  0  0  0  0  0  0  0  0  0  0  0
   -1.8206   -0.5684    5.8794 O   0  0  0  0  0  0  0  0  0  0  0  0
    4.0624    2.2430    5.5873 H   0  0  0  0  0  0  0  0  0  0  0  0
    4.1918    3.1930    4.0982 H   0  0  0  0  0  0  0  0  0  0  0  0
    4.5847    1.4673    4.0843 H   0  0  0  0  0  0  0  0  0  0  0  0
    2.0746    3.6691    3.0530 H   0  0  0  0  0  0  0  0  0  0  0  0
   -0.3679    3.2527    3.2745 H   0  0  0  0  0  0  0  0  0  0  0  0
    0.1941    2.2209    2.0252 H   0  0  0  0  0  0  0  0  0  0  0  0
   -1.1651    0.7829    3.4472 H   0  0  0  0  0  0  0  0  0  0  0  0
    1.5722    1.6220    6.5589 H   0  0  0  0  0  0  0  0  0  0  0  0
    0.9995   -0.0099    6.5687 H   0  0  0  0  0  0  0  0  0  0  0  0
    2.7337   -0.1230    4.8847 H   0  0  0  0  0  0  0  0  0  0  0  0
    1.0488   -2.2573    3.9445 H   0  0  0  0  0  0  0  0  0  0  0  0
   -0.5822   -1.6716    3.7042 H   0  0  0  0  0  0  0  0  0  0  0  0
    0.2603   -1.5204    5.2346 H   0  0  0  0  0  0  0  0  0  0  0  0
    0.5662   -0.4137    1.5948 H   0  0  0  0  0  0  0  0  0  0  0  0
    1.8372    0.7258    1.8325 H   0  0  0  0  0  0  0  0  0  0  0  0
    3.2908   -1.1428    2.8077 H   0  0  0  0  0  0  0  0  0  0  0  0
    2.0756   -2.2571    2.2203 H   0  0  0  0  0  0  0  0  0  0  0  0
    3.7985    0.7270    0.4769 H   0  0  0  0  0  0  0  0  0  0  0  0
    4.8716   -0.4017    1.2484 H   0  0  0  0  0  0  0  0  0  0  0  0
    4.3183   -0.2475   -1.7090 H   0  0  0  0  0  0  0  0  0  0  0  0
    5.8243   -0.5963   -0.8679 H   0  0  0  0  0  0  0  0  0  0  0  0
    3.8017   -2.4498   -1.8603 H   0  0  0  0  0  0  0  0  0  0  0  0
    5.2879   -2.9119   -1.0424 H   0  0  0  0  0  0  0  0  0  0  0  0
    4.2535   -2.9480    1.0645 H   0  0  0  0  0  0  0  0  0  0  0  0
    2.8172   -3.3273    0.1110 H   0  0  0  0  0  0  0  0  0  0  0  0
    0.2664    3.4153    5.9837 H   0  0  0  0  0  0  0  0  0  0  0  0
   -1.2614    3.2953    5.1489 H   0  0  0  0  0  0  0  0  0  0  0  0
   -1.1052    2.7117    9.3562 H   0  0  0  0  0  0  0  0  0  0  0  0
    0.1837    3.4853    8.4466 H   0  0  0  0  0  0  0  0  0  0  0  0
    0.0393    1.7289    8.4616 H   0  0  0  0  0  0  0  0  0  0  0  0
   -2.9581    3.9302    8.2524 H   0  0  0  0  0  0  0  0  0  0  0  0
   -3.0576    4.0216    6.5002 H   0  0  0  0  0  0  0  0  0  0  0  0
   -1.7778    4.8821    7.3596 H   0  0  0  0  0  0  0  0  0  0  0  0
   -2.3961    0.9516    8.0164 H   0  0  0  0  0  0  0  0  0  0  0  0
   -3.2464    1.6712    6.6394 H   0  0  0  0  0  0  0  0  0  0  0  0
    2.2809   -1.0613    0.0374 H   0  0  0  0  0  0  0  0  0  0  0  0
  1  2  1  0
  1 25  1  0
  1 26  1  0
  1 27  1  0
  2  8  1  0
  2  3  2  0
  3  4  1  0
  3 28  1  0
  4  5  1  0
  4 29  1  0
  4 30  1  0
  5  9  1  0
  5  6  1  0
  5 31  1  6
  6 23  1  0
  6  7  1  1
  6 18  1  0
  7  8  1  0
  7 32  1  0
  7 33  1  0
  8  9  1  0
  8 34  1  1
  9 10  1  1
  9 11  1  0
 10 35  1  0
 10 36  1  0
 10 37  1  0
 11 12  1  0
 11 38  1  0
 11 39  1  0
 12 13  1  0
 12 40  1  0
 12 41  1  0
 13 17  1  0
 13 14  1  0
 13 60  1  0
 14 15  1  0
 14 42  1  0
 14 43  1  0
 15 16  1  0
 15 44  1  0
 15 45  1  0
 16 17  1  0
 16 46  1  0
 16 47  1  0
 17 48  1  0
 17 49  1  0
 18 19  1  0
 18 50  1  0
 18 51  1  0
 19 20  1  0
 19 21  1  0
 19 22  1  0
 20 52  1  0
 20 53  1  0
 20 54  1  0
 21 55  1  0
 21 56  1  0
 21 57  1  0
 22 23  1  0
 22 58  1  0
 22 59  1  0
 23 24  2  0
M  CHG  1  13   1
M  END
>  <i_m_ct_stereo_status>  (32) 
1

>  <s_m_source_file>  (32) 
/var/tmp/pbs.5076255.sched01/tmpoa2zap1w/0_chicbso.sdf

>  <i_m_source_file_index>  (32) 
17

>  <i_lp_mmshare_version>  (32) 
48012

>  <i_f3d_flags>  (32) 
0

>  <s_epik_input>  (32) 
Tz1DMVtDSDJdQyhbQ0gzXSkoW0NIM10pW0NIMl1bQ0BdMTJbQ0BIXTNbQ0gyXVtDSF09QyhbQ0gzXSlbQ0BASF0oW0NIMl0yKVtDQF0zKFtDSDNdKVtDSDJdW0NIMl1ONFtDSDJdW0NIMl1bQ0gyXVtDSDJdNA==

>  <s_epik_cmdline>  (32) 
J2VwaWtfcHl0aG9uJywgJy1waHQnLCAnMi4wJywgJy1waCcsICc3LjAnLCAnLXRuJywgJzgnLCAnLW1hJywgJzIwMCcsICctaW1hZScsICc8aW5maWxlLm1hZT4nLCAnLW9tYWUnLCAnPG91dGZpbGUubWFlPic=

>  <r_lp_tautomer_probability>  (32) 
1

>  <r_epik_Ionization_Penalty>  (32) 
0.000143859

>  <r_epik_Ionization_Penalty_Charging>  (32) 
0.000143859

>  <r_epik_Ionization_Penalty_Neutral>  (32) 
2.99953e-14

>  <r_epik_State_Penalty>  (32) 
-0

>  <r_epik_Charging_Adjusted_Penalty>  (32) 
0.000143859

>  <i_epik_Tot_Q>  (32) 
1

>  <i_epik_Tot_abs_Q>  (32) 
1

>  <s_lp_Force_Field>  (32) 
OPLS3e

>  <r_lp_Energy>  (32) 
46.8015

>  <b_lp_Chiralities_Consistent>  (32) 
1

>  <s_lp_Variant>  (32) 
13:0-1

>  <s_i_glide_gridfile>  (32) 
pfpi4k_grid

>  <i_i_glide_lignum>  (32) 
17

>  <i_i_glide_rotatable_bonds>  (32) 
3

>  <r_i_docking_score>  (32) 
-3.11254

>  <r_i_glide_ligand_efficiency>  (32) 
-0.129689

>  <r_i_glide_ligand_efficiency_sa>  (32) 
-0.374089

>  <r_i_glide_ligand_efficiency_ln>  (32) 
-0.744975

>  <r_i_glide_gscore>  (32) 
-3.11254

>  <r_i_glide_lipo>  (32) 
-0.222504

>  <r_i_glide_hbond>  (32) 
-0.303325

>  <r_i_glide_metal>  (32) 
-0

>  <r_i_glide_rewards>  (32) 
-1.1555

>  <r_i_glide_evdw>  (32) 
-17.9433

>  <r_i_glide_ecoul>  (32) 
-6.09266

>  <r_i_glide_erotb>  (32) 
0.516511

>  <r_i_glide_esite>  (32) 
-0.136665

>  <r_i_glide_emodel>  (32) 
-28.5006

>  <r_i_glide_energy>  (32) 
-24.036

>  <r_i_glide_einternal>  (32) 
1.6412

>  <r_i_glide_intrahb_reward>  (32) 
-0

>  <i_i_glide_confnum>  (32) 
4

>  <i_i_glide_posenum>  (32) 
20

>  <r_i_glide_eff_state_penalty>  (32) 
0

>  <ligand_id>  (32) 
13

>  <original_smiles>  (32) 
CC1=CCC2C3(CC1C2(C)CCN1CCCC1)CC(C)(C)CC3=O

>  <smiles>  (32) 
[H]C1=C(C([H])([H])[H])C2([H])C([H])([H])C3(C(=O)C([H])([H])C(C([H])([H])[H])(C([H])([H])[H])C3([H])[H])C([H])(C1([H])[H])C2(C([H])([H])[H])C([H])([H])C([H])([H])[N+]1([H])C([H])([H])C([H])([H])C([H])([H])C1([H])[H]

$$$$
13:0:1
     RDKit          3D

 60 63  0  0  1  0  0  0  0  0999 V2000
    4.7679    0.7874    5.3168 C   0  0  0  0  0  0  0  0  0  0  0  0
    3.5394    0.3779    4.5231 C   0  0  0  0  0  0  0  0  0  0  0  0
    3.0617    1.1027    3.4953 C   0  0  0  0  0  0  0  0  0  0  0  0
    1.8436    0.6681    2.6918 C   0  0  0  0  0  0  0  0  0  0  0  0
    1.1238   -0.5392    3.3792 C   0  0  2  0  0  0  0  0  0  0  0  0
    0.4850   -0.1338    4.7628 C   0  0  1  0  0  0  0  0  0  0  0  0
    1.5974   -0.5065    5.7888 C   0  0  0  0  0  0  0  0  0  0  0  0
    2.8264   -0.9139    4.9486 C   0  0  1  0  0  0  0  0  0  0  0  0
    2.1962   -1.6301    3.7255 C   0  0  1  0  0  0  0  0  0  0  0  0
    1.6269   -3.0236    4.1172 C   0  0  0  0  0  0  0  0  0  0  0  0
    3.2303   -1.9379    2.6016 C   0  0  0  0  0  0  0  0  0  0  0  0
    2.6089   -2.4722    1.2965 C   0  0  0  0  0  0  0  0  0  0  0  0
    3.6048   -2.5203    0.2034 N   0  0  0  0  0  0  0  0  0  0  0  0
    3.1959   -3.3050   -0.9730 C   0  0  0  0  0  0  0  0  0  0  0  0
    4.1795   -2.8942   -2.0725 C   0  0  0  0  0  0  0  0  0  0  0  0
    4.6924   -1.5071   -1.6560 C   0  0  0  0  0  0  0  0  0  0  0  0
    3.9796   -1.2013   -0.3414 C   0  0  0  0  0  0  0  0  0  0  0  0
    0.0123    1.3435    4.9141 C   0  0  0  0  0  0  0  0  0  0  0  0
   -1.2253    1.3836    5.8361 C   0  0  0  0  0  0  0  0  0  0  0  0
   -0.8102    1.4634    7.3161 C   0  0  0  0  0  0  0  0  0  0  0  0
   -2.1290    2.5807    5.4976 C   0  0  0  0  0  0  0  0  0  0  0  0
   -1.9272    0.0541    5.5487 C   0  0  0  0  0  0  0  0  0  0  0  0
   -0.8317   -0.8683    5.0574 C   0  0  0  0  0  0  0  0  0  0  0  0
   -1.0053   -2.0711    4.9157 O   0  0  0  0  0  0  0  0  0  0  0  0
    4.5184    0.9244    6.3695 H   0  0  0  0  0  0  0  0  0  0  0  0
    5.1686    1.7277    4.9365 H   0  0  0  0  0  0  0  0  0  0  0  0
    5.5465    0.0271    5.2366 H   0  0  0  0  0  0  0  0  0  0  0  0
    3.5473    2.0180    3.1843 H   0  0  0  0  0  0  0  0  0  0  0  0
    1.1963    1.5264    2.5356 H   0  0  0  0  0  0  0  0  0  0  0  0
    2.1769    0.4011    1.6905 H   0  0  0  0  0  0  0  0  0  0  0  0
    0.3751   -0.9310    2.6931 H   0  0  0  0  0  0  0  0  0  0  0  0
    1.8415    0.3166    6.4591 H   0  0  0  0  0  0  0  0  0  0  0  0
    1.2950   -1.3282    6.4341 H   0  0  0  0  0  0  0  0  0  0  0  0
    3.5181   -1.5602    5.4938 H   0  0  0  0  0  0  0  0  0  0  0  0
    2.4085   -3.7867    4.1409 H   0  0  0  0  0  0  0  0  0  0  0  0
    0.8740   -3.3549    3.4001 H   0  0  0  0  0  0  0  0  0  0  0  0
    1.1799   -3.0590    5.1070 H   0  0  0  0  0  0  0  0  0  0  0  0
    3.8348   -1.0654    2.3750 H   0  0  0  0  0  0  0  0  0  0  0  0
    3.9600   -2.6669    2.9605 H   0  0  0  0  0  0  0  0  0  0  0  0
    2.2160   -3.4766    1.4672 H   0  0  0  0  0  0  0  0  0  0  0  0
    1.7575   -1.8639    0.9946 H   0  0  0  0  0  0  0  0  0  0  0  0
    3.1936   -4.3784   -0.7758 H   0  0  0  0  0  0  0  0  0  0  0  0
    2.1821   -3.0133   -1.2622 H   0  0  0  0  0  0  0  0  0  0  0  0
    5.0087   -3.6010   -2.1189 H   0  0  0  0  0  0  0  0  0  0  0  0
    3.6987   -2.8878   -3.0483 H   0  0  0  0  0  0  0  0  0  0  0  0
    5.7689   -1.5383   -1.4936 H   0  0  0  0  0  0  0  0  0  0  0  0
    4.4918   -0.7373   -2.3999 H   0  0  0  0  0  0  0  0  0  0  0  0
    3.0568   -0.6512   -0.5479 H   0  0  0  0  0  0  0  0  0  0  0  0
    4.5909   -0.5985    0.3313 H   0  0  0  0  0  0  0  0  0  0  0  0
    0.8151    1.9996    5.2668 H   0  0  0  0  0  0  0  0  0  0  0  0
   -0.3027    1.7355    3.9465 H   0  0  0  0  0  0  0  0  0  0  0  0
   -1.6745    1.5941    7.9657 H   0  0  0  0  0  0  0  0  0  0  0  0
   -0.1457    2.3098    7.4926 H   0  0  0  0  0  0  0  0  0  0  0  0
   -0.2902    0.5670    7.6502 H   0  0  0  0  0  0  0  0  0  0  0  0
   -2.9999    2.6260    6.1502 H   0  0  0  0  0  0  0  0  0  0  0  0
   -2.4985    2.5379    4.4710 H   0  0  0  0  0  0  0  0  0  0  0  0
   -1.5882    3.5225    5.6091 H   0  0  0  0  0  0  0  0  0  0  0  0
   -2.4109   -0.3550    6.4316 H   0  0  0  0  0  0  0  0  0  0  0  0
   -2.6624    0.1445    4.7508 H   0  0  0  0  0  0  0  0  0  0  0  0
    4.4473   -2.9511    0.5565 H   0  0  0  0  0  0  0  0  0  0  0  0
  1  2  1  0
  1 25  1  0
  1 26  1  0
  1 27  1  0
  2  8  1  0
  2  3  2  0
  3  4  1  0
  3 28  1  0
  4  5  1  0
  4 29  1  0
  4 30  1  0
  5  9  1  0
  5  6  1  0
  5 31  1  6
  6 23  1  0
  6  7  1  1
  6 18  1  0
  7  8  1  0
  7 32  1  0
  7 33  1  0
  8  9  1  0
  8 34  1  1
  9 10  1  1
  9 11  1  0
 10 35  1  0
 10 36  1  0
 10 37  1  0
 11 12  1  0
 11 38  1  0
 11 39  1  0
 12 13  1  0
 12 40  1  0
 12 41  1  0
 13 17  1  0
 13 14  1  0
 13 60  1  0
 14 15  1  0
 14 42  1  0
 14 43  1  0
 15 16  1  0
 15 44  1  0
 15 45  1  0
 16 17  1  0
 16 46  1  0
 16 47  1  0
 17 48  1  0
 17 49  1  0
 18 19  1  0
 18 50  1  0
 18 51  1  0
 19 20  1  0
 19 21  1  0
 19 22  1  0
 20 52  1  0
 20 53  1  0
 20 54  1  0
 21 55  1  0
 21 56  1  0
 21 57  1  0
 22 23  1  0
 22 58  1  0
 22 59  1  0
 23 24  2  0
M  CHG  1  13   1
M  END
>  <i_m_ct_stereo_status>  (33) 
1

>  <s_m_source_file>  (33) 
/var/tmp/pbs.5076255.sched01/tmpoa2zap1w/0_chicbso.sdf

>  <i_m_source_file_index>  (33) 
17

>  <i_lp_mmshare_version>  (33) 
48012

>  <i_f3d_flags>  (33) 
0

>  <s_epik_input>  (33) 
Tz1DMVtDSDJdQyhbQ0gzXSkoW0NIM10pW0NIMl1bQ0BdMTJbQ0BIXTNbQ0gyXVtDSF09QyhbQ0gzXSlbQ0BASF0oW0NIMl0yKVtDQF0zKFtDSDNdKVtDSDJdW0NIMl1ONFtDSDJdW0NIMl1bQ0gyXVtDSDJdNA==

>  <s_epik_cmdline>  (33) 
J2VwaWtfcHl0aG9uJywgJy1waHQnLCAnMi4wJywgJy1waCcsICc3LjAnLCAnLXRuJywgJzgnLCAnLW1hJywgJzIwMCcsICctaW1hZScsICc8aW5maWxlLm1hZT4nLCAnLW9tYWUnLCAnPG91dGZpbGUubWFlPic=

>  <r_lp_tautomer_probability>  (33) 
1

>  <r_epik_Ionization_Penalty>  (33) 
0.000143859

>  <r_epik_Ionization_Penalty_Charging>  (33) 
0.000143859

>  <r_epik_Ionization_Penalty_Neutral>  (33) 
2.99953e-14

>  <r_epik_State_Penalty>  (33) 
-0

>  <r_epik_Charging_Adjusted_Penalty>  (33) 
0.000143859

>  <i_epik_Tot_Q>  (33) 
1

>  <i_epik_Tot_abs_Q>  (33) 
1

>  <s_lp_Force_Field>  (33) 
OPLS3e

>  <r_lp_Energy>  (33) 
46.8015

>  <b_lp_Chiralities_Consistent>  (33) 
1

>  <s_lp_Variant>  (33) 
13:0-1

>  <s_i_glide_gridfile>  (33) 
pfpi4k_grid

>  <i_i_glide_lignum>  (33) 
17

>  <i_i_glide_rotatable_bonds>  (33) 
3

>  <r_i_docking_score>  (33) 
-2.23783

>  <r_i_glide_ligand_efficiency>  (33) 
-0.093243

>  <r_i_glide_ligand_efficiency_sa>  (33) 
-0.268959

>  <r_i_glide_ligand_efficiency_ln>  (33) 
-0.535616

>  <r_i_glide_gscore>  (33) 
-2.23783

>  <r_i_glide_lipo>  (33) 
-0.162709

>  <r_i_glide_hbond>  (33) 
0

>  <r_i_glide_metal>  (33) 
-0

>  <r_i_glide_rewards>  (33) 
-1.1555

>  <r_i_glide_evdw>  (33) 
-18.1702

>  <r_i_glide_ecoul>  (33) 
-3.12431

>  <r_i_glide_erotb>  (33) 
0.516511

>  <r_i_glide_esite>  (33) 
-0.058983

>  <r_i_glide_emodel>  (33) 
-24.8002

>  <r_i_glide_energy>  (33) 
-21.2945

>  <r_i_glide_einternal>  (33) 
0.844558

>  <r_i_glide_intrahb_reward>  (33) 
-0

>  <i_i_glide_confnum>  (33) 
4

>  <i_i_glide_posenum>  (33) 
1

>  <r_i_glide_eff_state_penalty>  (33) 
0

>  <ligand_id>  (33) 
13

>  <original_smiles>  (33) 
CC1=CCC2C3(CC1C2(C)CCN1CCCC1)CC(C)(C)CC3=O

>  <smiles>  (33) 
[H]C1=C(C([H])([H])[H])C2([H])C([H])([H])C3(C(=O)C([H])([H])C(C([H])([H])[H])(C([H])([H])[H])C3([H])[H])C([H])(C1([H])[H])C2(C([H])([H])[H])C([H])([H])C([H])([H])[N+]1([H])C([H])([H])C([H])([H])C([H])([H])C1([H])[H]

$$$$
13:0:2
     RDKit          3D

 60 63  0  0  1  0  0  0  0  0999 V2000
    3.8649  -12.2215    3.7856 C   0  0  0  0  0  0  0  0  0  0  0  0
    3.8015  -10.7055    3.8269 C   0  0  0  0  0  0  0  0  0  0  0  0
    3.7576  -10.0074    4.9836 C   0  0  0  0  0  0  0  0  0  0  0  0
    3.7116   -8.4855    4.9941 C   0  0  0  0  0  0  0  0  0  0  0  0
    3.4872   -7.9026    3.5572 C   0  0  2  0  0  0  0  0  0  0  0  0
    2.0532   -8.2595    2.9833 C   0  0  1  0  0  0  0  0  0  0  0  0
    2.3133   -9.5768    2.1851 C   0  0  0  0  0  0  0  0  0  0  0  0
    3.7754   -9.9626    2.4870 C   0  0  1  0  0  0  0  0  0  0  0  0
    4.4929   -8.5952    2.5796 C   0  0  1  0  0  0  0  0  0  0  0  0
    4.6217   -7.9388    1.1768 C   0  0  0  0  0  0  0  0  0  0  0  0
    5.9567   -8.7138    3.0904 C   0  0  0  0  0  0  0  0  0  0  0  0
    6.6864   -7.3656    3.2821 C   0  0  0  0  0  0  0  0  0  0  0  0
    8.1003   -7.5604    3.6530 N   0  0  0  0  0  0  0  0  0  0  0  0
    8.9512   -6.3606    3.5576 C   0  0  0  0  0  0  0  0  0  0  0  0
   10.2181   -6.7203    4.3348 C   0  0  0  0  0  0  0  0  0  0  0  0
    9.8037   -7.8440    5.2946 C   0  0  0  0  0  0  0  0  0  0  0  0
    8.3216   -8.0774    5.0199 C   0  0  0  0  0  0  0  0  0  0  0  0
    0.9100   -8.4365    4.0301 C   0  0  0  0  0  0  0  0  0  0  0  0
   -0.4175   -7.9725    3.4002 C   0  0  0  0  0  0  0  0  0  0  0  0
   -1.0990   -9.1111    2.6266 C   0  0  0  0  0  0  0  0  0  0  0  0
   -1.3817   -7.4520    4.4764 C   0  0  0  0  0  0  0  0  0  0  0  0
   -0.0025   -6.8532    2.4486 C   0  0  0  0  0  0  0  0  0  0  0  0
    1.4477   -7.1360    2.1028 C   0  0  0  0  0  0  0  0  0  0  0  0
    2.0383   -6.4851    1.2540 O   0  0  0  0  0  0  0  0  0  0  0  0
    3.0148  -12.6230    3.2363 H   0  0  0  0  0  0  0  0  0  0  0  0
    3.8509  -12.6369    4.7940 H   0  0  0  0  0  0  0  0  0  0  0  0
    4.7779  -12.5532    3.2901 H   0  0  0  0  0  0  0  0  0  0  0  0
    3.7775  -10.5114    5.9412 H   0  0  0  0  0  0  0  0  0  0  0  0
    2.9653   -8.1653    5.7156 H   0  0  0  0  0  0  0  0  0  0  0  0
    4.6520   -8.1292    5.4055 H   0  0  0  0  0  0  0  0  0  0  0  0
    3.6465   -6.8256    3.5814 H   0  0  0  0  0  0  0  0  0  0  0  0
    1.6340  -10.3781    2.4688 H   0  0  0  0  0  0  0  0  0  0  0  0
    2.1727   -9.4383    1.1172 H   0  0  0  0  0  0  0  0  0  0  0  0
    4.2189  -10.5886    1.7150 H   0  0  0  0  0  0  0  0  0  0  0  0
    5.4826   -8.3364    0.6366 H   0  0  0  0  0  0  0  0  0  0  0  0
    4.7509   -6.8595    1.2528 H   0  0  0  0  0  0  0  0  0  0  0  0
    3.7794   -8.1121    0.5171 H   0  0  0  0  0  0  0  0  0  0  0  0
    6.0216   -9.2727    4.0200 H   0  0  0  0  0  0  0  0  0  0  0  0
    6.5274   -9.3195    2.3865 H   0  0  0  0  0  0  0  0  0  0  0  0
    6.6644   -6.7913    2.3523 H   0  0  0  0  0  0  0  0  0  0  0  0
    6.1514   -6.7452    4.0123 H   0  0  0  0  0  0  0  0  0  0  0  0
    9.1450   -6.0667    2.5236 H   0  0  0  0  0  0  0  0  0  0  0  0
    8.4361   -5.5308    4.0506 H   0  0  0  0  0  0  0  0  0  0  0  0
   10.9909   -7.0779    3.6549 H   0  0  0  0  0  0  0  0  0  0  0  0
   10.6211   -5.8650    4.8708 H   0  0  0  0  0  0  0  0  0  0  0  0
   10.3725   -8.7498    5.0757 H   0  0  0  0  0  0  0  0  0  0  0  0
    9.9747   -7.5880    6.3405 H   0  0  0  0  0  0  0  0  0  0  0  0
    7.7260   -7.4802    5.7174 H   0  0  0  0  0  0  0  0  0  0  0  0
    8.0335   -9.1224    5.1448 H   0  0  0  0  0  0  0  0  0  0  0  0
    0.8592   -9.4532    4.4212 H   0  0  0  0  0  0  0  0  0  0  0  0
    1.0951   -7.7954    4.8852 H   0  0  0  0  0  0  0  0  0  0  0  0
   -2.0880   -8.8226    2.2581 H   0  0  0  0  0  0  0  0  0  0  0  0
   -1.2332   -9.9904    3.2604 H   0  0  0  0  0  0  0  0  0  0  0  0
   -0.5154   -9.4190    1.7611 H   0  0  0  0  0  0  0  0  0  0  0  0
   -2.3377   -7.1241    4.0520 H   0  0  0  0  0  0  0  0  0  0  0  0
   -0.9721   -6.6034    5.0338 H   0  0  0  0  0  0  0  0  0  0  0  0
   -1.5984   -8.2479    5.1945 H   0  0  0  0  0  0  0  0  0  0  0  0
   -0.6051   -6.8289    1.5390 H   0  0  0  0  0  0  0  0  0  0  0  0
   -0.0217   -5.8757    2.9320 H   0  0  0  0  0  0  0  0  0  0  0  0
    8.5261   -8.2246    3.0154 H   0  0  0  0  0  0  0  0  0  0  0  0
  1  2  1  0
  1 25  1  0
  1 26  1  0
  1 27  1  0
  2  8  1  0
  2  3  2  0
  3  4  1  0
  3 28  1  0
  4  5  1  0
  4 29  1  0
  4 30  1  0
  5  9  1  0
  5  6  1  0
  5 31  1  1
  6 23  1  0
  6  7  1  6
  6 18  1  0
  7  8  1  0
  7 32  1  0
  7 33  1  0
  8  9  1  0
  8 34  1  6
  9 10  1  6
  9 11  1  0
 10 35  1  0
 10 36  1  0
 10 37  1  0
 11 12  1  0
 11 38  1  0
 11 39  1  0
 12 13  1  0
 12 40  1  0
 12 41  1  0
 13 17  1  0
 13 14  1  0
 13 60  1  0
 14 15  1  0
 14 42  1  0
 14 43  1  0
 15 16  1  0
 15 44  1  0
 15 45  1  0
 16 17  1  0
 16 46  1  0
 16 47  1  0
 17 48  1  0
 17 49  1  0
 18 19  1  0
 18 50  1  0
 18 51  1  0
 19 20  1  0
 19 21  1  0
 19 22  1  0
 20 52  1  0
 20 53  1  0
 20 54  1  0
 21 55  1  0
 21 56  1  0
 21 57  1  0
 22 23  1  0
 22 58  1  0
 22 59  1  0
 23 24  2  0
M  CHG  1  13   1
M  END
>  <i_m_ct_stereo_status>  (34) 
1

>  <s_m_source_file>  (34) 
/var/tmp/pbs.5076255.sched01/tmpoa2zap1w/0_chicbso.sdf

>  <i_m_source_file_index>  (34) 
17

>  <i_lp_mmshare_version>  (34) 
48012

>  <i_f3d_flags>  (34) 
0

>  <s_epik_input>  (34) 
Tz1DMVtDSDJdQyhbQ0gzXSkoW0NIM10pW0NIMl1bQ0BdMTJbQ0BIXTNbQ0gyXVtDSF09QyhbQ0gzXSlbQ0BASF0oW0NIMl0yKVtDQF0zKFtDSDNdKVtDSDJdW0NIMl1ONFtDSDJdW0NIMl1bQ0gyXVtDSDJdNA==

>  <s_epik_cmdline>  (34) 
J2VwaWtfcHl0aG9uJywgJy1waHQnLCAnMi4wJywgJy1waCcsICc3LjAnLCAnLXRuJywgJzgnLCAnLW1hJywgJzIwMCcsICctaW1hZScsICc8aW5maWxlLm1hZT4nLCAnLW9tYWUnLCAnPG91dGZpbGUubWFlPic=

>  <r_lp_tautomer_probability>  (34) 
1

>  <r_epik_Ionization_Penalty>  (34) 
0.000143859

>  <r_epik_Ionization_Penalty_Charging>  (34) 
0.000143859

>  <r_epik_Ionization_Penalty_Neutral>  (34) 
2.99953e-14

>  <r_epik_State_Penalty>  (34) 
-0

>  <r_epik_Charging_Adjusted_Penalty>  (34) 
0.000143859

>  <i_epik_Tot_Q>  (34) 
1

>  <i_epik_Tot_abs_Q>  (34) 
1

>  <s_lp_Force_Field>  (34) 
OPLS3e

>  <r_lp_Energy>  (34) 
46.8015

>  <b_lp_Chiralities_Consistent>  (34) 
1

>  <s_lp_Variant>  (34) 
13:0-1

>  <s_i_glide_gridfile>  (34) 
pfpi4k_grid

>  <i_i_glide_lignum>  (34) 
17

>  <i_i_glide_rotatable_bonds>  (34) 
3

>  <r_i_docking_score>  (34) 
-2.154

>  <r_i_glide_ligand_efficiency>  (34) 
-0.0897501

>  <r_i_glide_ligand_efficiency_sa>  (34) 
-0.258884

>  <r_i_glide_ligand_efficiency_ln>  (34) 
-0.515552

>  <r_i_glide_gscore>  (34) 
-2.154

>  <r_i_glide_lipo>  (34) 
-0.154488

>  <r_i_glide_hbond>  (34) 
0

>  <r_i_glide_metal>  (34) 
-0

>  <r_i_glide_rewards>  (34) 
-1.1555

>  <r_i_glide_evdw>  (34) 
-19.5332

>  <r_i_glide_ecoul>  (34) 
-2.28317

>  <r_i_glide_erotb>  (34) 
0.516511

>  <r_i_glide_esite>  (34) 
-0.0413928

>  <r_i_glide_emodel>  (34) 
-25.1761

>  <r_i_glide_energy>  (34) 
-21.8164

>  <r_i_glide_einternal>  (34) 
0.79091

>  <r_i_glide_intrahb_reward>  (34) 
-0

>  <i_i_glide_confnum>  (34) 
3

>  <i_i_glide_posenum>  (34) 
36

>  <r_i_glide_eff_state_penalty>  (34) 
0

>  <ligand_id>  (34) 
13

>  <original_smiles>  (34) 
CC1=CCC2C3(CC1C2(C)CCN1CCCC1)CC(C)(C)CC3=O

>  <smiles>  (34) 
[H]C1=C(C([H])([H])[H])C2([H])C([H])([H])C3(C(=O)C([H])([H])C(C([H])([H])[H])(C([H])([H])[H])C3([H])[H])C([H])(C1([H])[H])C2(C([H])([H])[H])C([H])([H])C([H])([H])[N+]1([H])C([H])([H])C([H])([H])C([H])([H])C1([H])[H]

$$$$
14:0:0
     RDKit          3D

 72 76  0  0  1  0  0  0  0  0999 V2000
    2.8993   -2.8302    1.0017 C   0  0  0  0  0  0  0  0  0  0  0  0
    4.3599   -2.8629    1.5056 C   0  0  0  0  0  0  0  0  0  0  0  0
    5.2714   -2.6505    0.2764 C   0  0  0  0  0  0  0  0  0  0  0  0
    4.5577   -1.6333    2.4123 C   0  0  0  0  0  0  0  0  0  0  0  0
    3.6481   -1.6970    3.6321 C   0  0  0  0  0  0  0  0  0  0  0  0
    4.0171   -2.8951    4.5000 C   0  0  0  0  0  0  0  0  0  0  0  0
    4.2411   -4.2945    3.8041 C   0  0  1  0  0  0  0  0  0  0  0  0
    5.3831   -4.8994    4.6836 C   0  0  0  0  0  0  0  0  0  0  0  0
    2.9677   -5.2482    3.7786 C   0  0  2  0  0  0  0  0  0  0  0  0
    1.6537   -4.8585    4.6286 C   0  0  1  0  0  0  0  0  0  0  0  0
    1.0090   -3.7260    4.0740 O   0  0  0  0  0  0  0  0  0  0  0  0
    0.5479   -5.9872    4.7634 C   0  0  0  0  0  0  0  0  0  0  0  0
    1.0511   -7.3368    4.2041 C   0  0  2  0  0  0  0  0  0  0  0  0
    0.6076   -8.1363    2.9139 C   0  0  0  0  0  0  0  0  0  0  0  0
    0.0278   -9.5301    3.2576 C   0  0  0  0  0  0  0  0  0  0  0  0
   -0.5924   -7.4382    2.2053 C   0  0  0  0  0  0  0  0  0  0  0  0
    1.8394   -8.1757    1.9052 C   0  0  2  0  0  0  0  0  0  0  0  0
    2.6117   -9.4580    1.5545 C   0  0  0  0  0  0  0  0  0  0  0  0
    3.9130   -8.8058    2.0202 C   0  0  0  0  0  0  0  0  0  0  0  0
    3.2150   -7.4285    2.2304 C   0  0  1  0  0  0  0  0  0  0  0  0
    3.7344   -6.4162    1.1514 C   0  0  1  0  0  0  0  0  0  0  0  0
    2.6948   -5.7450    0.4782 O   0  0  0  0  0  0  0  0  0  0  0  0
    4.9451   -5.4955    1.5146 C   0  0  0  0  0  0  0  0  0  0  0  0
    4.7988   -4.1494    2.3254 C   0  0  1  0  0  0  0  0  0  0  0  0
    3.3467   -6.8236    3.6965 C   0  0  2  0  0  0  0  0  0  0  0  0
    2.4937   -7.6204    4.7407 C   0  0  0  0  0  0  0  0  0  0  0  0
    2.7696   -7.1525    6.2099 C   0  0  0  0  0  0  0  0  0  0  0  0
    2.8077   -9.1308    4.9337 C   0  0  0  0  0  0  0  0  0  0  0  0
    2.5672   -1.8037    0.8291 H   0  0  0  0  0  0  0  0  0  0  0  0
    2.2043   -3.2576    1.7184 H   0  0  0  0  0  0  0  0  0  0  0  0
    2.7690   -3.3381    0.0470 H   0  0  0  0  0  0  0  0  0  0  0  0
    6.3266   -2.7115    0.5407 H   0  0  0  0  0  0  0  0  0  0  0  0
    5.1007   -1.6702   -0.1710 H   0  0  0  0  0  0  0  0  0  0  0  0
    5.0757   -3.3843   -0.5069 H   0  0  0  0  0  0  0  0  0  0  0  0
    5.5938   -1.5786    2.7480 H   0  0  0  0  0  0  0  0  0  0  0  0
    4.3730   -0.7091    1.8619 H   0  0  0  0  0  0  0  0  0  0  0  0
    3.7788   -0.7869    4.2168 H   0  0  0  0  0  0  0  0  0  0  0  0
    2.5958   -1.7128    3.3577 H   0  0  0  0  0  0  0  0  0  0  0  0
    4.9279   -2.5639    4.9996 H   0  0  0  0  0  0  0  0  0  0  0  0
    3.3146   -2.9605    5.3227 H   0  0  0  0  0  0  0  0  0  0  0  0
    5.8986   -5.7409    4.2269 H   0  0  0  0  0  0  0  0  0  0  0  0
    5.0182   -5.2005    5.6676 H   0  0  0  0  0  0  0  0  0  0  0  0
    6.1969   -4.1932    4.8530 H   0  0  0  0  0  0  0  0  0  0  0  0
    2.5396   -5.0434    2.8106 H   0  0  0  0  0  0  0  0  0  0  0  0
    1.9191   -4.5435    5.6332 H   0  0  0  0  0  0  0  0  0  0  0  0
    0.8975   -3.8598    3.1452 H   0  0  0  0  0  0  0  0  0  0  0  0
    0.2982   -6.1167    5.8158 H   0  0  0  0  0  0  0  0  0  0  0  0
   -0.3969   -5.6917    4.3077 H   0  0  0  0  0  0  0  0  0  0  0  0
    1.1598   -6.6510    3.3880 H   0  0  0  0  0  0  0  0  0  0  0  0
   -0.2376  -10.0743    2.3512 H   0  0  0  0  0  0  0  0  0  0  0  0
   -0.8830   -9.4394    3.8489 H   0  0  0  0  0  0  0  0  0  0  0  0
    0.6786  -10.1825    3.8240 H   0  0  0  0  0  0  0  0  0  0  0  0
   -0.9321   -8.0149    1.3435 H   0  0  0  0  0  0  0  0  0  0  0  0
   -0.3377   -6.4454    1.8358 H   0  0  0  0  0  0  0  0  0  0  0  0
   -1.4447   -7.3377    2.8785 H   0  0  0  0  0  0  0  0  0  0  0  0
    1.4846   -7.8389    0.9304 H   0  0  0  0  0  0  0  0  0  0  0  0
    2.3345  -10.3642    2.0886 H   0  0  0  0  0  0  0  0  0  0  0  0
    2.6220   -9.6506    0.4817 H   0  0  0  0  0  0  0  0  0  0  0  0
    4.3481   -9.2450    2.9148 H   0  0  0  0  0  0  0  0  0  0  0  0
    4.6756   -8.8288    1.2381 H   0  0  0  0  0  0  0  0  0  0  0  0
    4.1205   -7.0102    0.3241 H   0  0  0  0  0  0  0  0  0  0  0  0
    3.0015   -5.5226   -0.3946 H   0  0  0  0  0  0  0  0  0  0  0  0
    5.6792   -6.1216    2.0214 H   0  0  0  0  0  0  0  0  0  0  0  0
    5.4469   -5.2615    0.5790 H   0  0  0  0  0  0  0  0  0  0  0  0
    5.8486   -3.9090    2.5001 H   0  0  0  0  0  0  0  0  0  0  0  0
    4.3631   -7.0230    4.0119 H   0  0  0  0  0  0  0  0  0  0  0  0
    3.6479   -7.6409    6.6349 H   0  0  0  0  0  0  0  0  0  0  0  0
    1.9325   -7.4003    6.8636 H   0  0  0  0  0  0  0  0  0  0  0  0
    3.0040   -6.1055    6.3376 H   0  0  0  0  0  0  0  0  0  0  0  0
    3.8463   -9.2867    5.2316 H   0  0  0  0  0  0  0  0  0  0  0  0
    2.6631   -9.7624    4.0775 H   0  0  0  0  0  0  0  0  0  0  0  0
    2.1834   -9.5636    5.7176 H   0  0  0  0  0  0  0  0  0  0  0  0
  1  2  1  0
  1 29  1  0
  1 30  1  0
  1 31  1  0
  2 24  1  0
  2  3  1  0
  2  4  1  0
  3 32  1  0
  3 33  1  0
  3 34  1  0
  4  5  1  0
  4 35  1  0
  4 36  1  0
  5  6  1  0
  5 37  1  0
  5 38  1  0
  6  7  1  0
  6 39  1  0
  6 40  1  0
  7 24  1  0
  7  8  1  1
  7  9  1  0
  8 41  1  0
  8 42  1  0
  8 43  1  0
  9 25  1  0
  9 10  1  0
  9 44  1  6
 10 11  1  0
 10 12  1  0
 10 45  1  1
 11 46  1  0
 12 13  1  0
 12 47  1  0
 12 48  1  0
 13 26  1  0
 13 14  1  0
 13 49  1  1
 14 15  1  0
 14 16  1  0
 14 17  1  0
 15 50  1  0
 15 51  1  0
 15 52  1  0
 16 53  1  0
 16 54  1  0
 16 55  1  0
 17 20  1  0
 17 18  1  0
 17 56  1  6
 18 19  1  0
 18 57  1  0
 18 58  1  0
 20 19  1  1
 19 59  1  0
 19 60  1  0
 20 21  1  0
 20 25  1  0
 21 22  1  0
 21 23  1  0
 21 61  1  6
 22 62  1  0
 23 24  1  0
 23 63  1  0
 23 64  1  0
 24 65  1  1
 25 26  1  0
 25 66  1  1
 26 27  1  0
 26 28  1  0
 27 67  1  0
 27 68  1  0
 27 69  1  0
 28 70  1  0
 28 71  1  0
 28 72  1  0
M  END
>  <i_m_ct_stereo_status>  (35) 
1

>  <s_m_source_file>  (35) 
/var/tmp/pbs.5076255.sched01/tmpoa2zap1w/0_chicbso.sdf

>  <i_m_source_file_index>  (35) 
18

>  <i_lp_mmshare_version>  (35) 
48012

>  <i_f3d_flags>  (35) 
0

>  <s_epik_input>  (35) 
W0NIMl0xW0NIMl1bQ0gyXUMoW0NIM10pKFtDSDNdKVtDQEhdKFtDSDJdW0NAQEhdMltPSF0pW0NAXTEoW0NIM10pW0NAQEhdKFtDQEhdM0M0KFtDSDNdKVtDSDNdKVtDQEBIXShbT0hdKVtDSDJdW0NAQEhdNEMoW0NIM10pKFtDSDNdKVtDQEBIXShbQ0BAXTIzNSlbQ0gyXVtDSDJdNQ==

>  <s_epik_cmdline>  (35) 
J2VwaWtfcHl0aG9uJywgJy1waHQnLCAnMi4wJywgJy1waCcsICc3LjAnLCAnLXRuJywgJzgnLCAnLW1hJywgJzIwMCcsICctaW1hZScsICc8aW5maWxlLm1hZT4nLCAnLW9tYWUnLCAnPG91dGZpbGUubWFlPic=

>  <r_lp_tautomer_probability>  (35) 
1

>  <r_epik_Ionization_Penalty>  (35) 
6.57992e-06

>  <r_epik_Ionization_Penalty_Charging>  (35) 
0

>  <r_epik_Ionization_Penalty_Neutral>  (35) 
6.57992e-06

>  <r_epik_State_Penalty>  (35) 
-0

>  <r_epik_Charging_Adjusted_Penalty>  (35) 
0

>  <i_epik_Tot_Q>  (35) 
0

>  <i_epik_Tot_abs_Q>  (35) 
0

>  <s_lp_Force_Field>  (35) 
OPLS3e

>  <r_lp_Energy>  (35) 
205.335

>  <b_lp_Chiralities_Consistent>  (35) 
1

>  <s_lp_Variant>  (35) 
14:0-1

>  <s_i_glide_gridfile>  (35) 
pfpi4k_grid

>  <i_i_glide_lignum>  (35) 
18

>  <i_i_glide_rotatable_bonds>  (35) 
2

>  <r_i_docking_score>  (35) 
-2.82693

>  <r_i_glide_ligand_efficiency>  (35) 
-0.100962

>  <r_i_glide_ligand_efficiency_sa>  (35) 
-0.306579

>  <r_i_glide_ligand_efficiency_ln>  (35) 
-0.652538

>  <r_i_glide_gscore>  (35) 
-2.82693

>  <r_i_glide_lipo>  (35) 
-0.2211

>  <r_i_glide_hbond>  (35) 
-0.112749

>  <r_i_glide_metal>  (35) 
-0

>  <r_i_glide_rewards>  (35) 
-0.759366

>  <r_i_glide_evdw>  (35) 
-27.329

>  <r_i_glide_ecoul>  (35) 
-2.44842

>  <r_i_glide_erotb>  (35) 
0

>  <r_i_glide_esite>  (35) 
0

>  <r_i_glide_emodel>  (35) 
-34.5128

>  <r_i_glide_energy>  (35) 
-29.7774

>  <r_i_glide_einternal>  (35) 
0.721142

>  <r_i_glide_intrahb_reward>  (35) 
-0

>  <i_i_glide_confnum>  (35) 
2

>  <i_i_glide_posenum>  (35) 
33

>  <r_i_glide_eff_state_penalty>  (35) 
0

>  <ligand_id>  (35) 
14

>  <original_smiles>  (35) 
CC1(C)CCCC2(C)C3C(O)CC4C(C)(C)C5CCC5(C(O)CC12)C3C4(C)C

>  <smiles>  (35) 
[H]OC1([H])C([H])([H])C2([H])C(C([H])([H])[H])(C([H])([H])[H])C3([H])C([H])([H])C([H])([H])C34C([H])(O[H])C([H])([H])C3([H])C(C([H])([H])[H])(C([H])([H])[H])C([H])([H])C([H])([H])C([H])([H])C3(C([H])([H])[H])C1([H])C4([H])C2(C([H])([H])[H])C([H])([H])[H]

$$$$
14:0:1
     RDKit          3D

 72 76  0  0  1  0  0  0  0  0999 V2000
    2.9193   -2.8344    0.9518 C   0  0  0  0  0  0  0  0  0  0  0  0
    4.3773   -2.8565    1.4655 C   0  0  0  0  0  0  0  0  0  0  0  0
    5.2951   -2.6517    0.2380 C   0  0  0  0  0  0  0  0  0  0  0  0
    4.5675   -1.6184    2.3616 C   0  0  0  0  0  0  0  0  0  0  0  0
    3.6516   -1.6744    3.5779 C   0  0  0  0  0  0  0  0  0  0  0  0
    4.0173   -2.8658    4.4591 C   0  0  0  0  0  0  0  0  0  0  0  0
    4.2505   -4.2697    3.7759 C   0  0  1  0  0  0  0  0  0  0  0  0
    5.3884   -4.8636    4.6656 C   0  0  0  0  0  0  0  0  0  0  0  0
    2.9813   -5.2295    3.7514 C   0  0  2  0  0  0  0  0  0  0  0  0
    1.6672   -4.8405    4.5952 C   0  0  1  0  0  0  0  0  0  0  0  0
    1.0185   -3.7325    4.0055 O   0  0  0  0  0  0  0  0  0  0  0  0
    0.5578   -5.9667    4.7332 C   0  0  0  0  0  0  0  0  0  0  0  0
    1.0689   -7.3198    4.1830 C   0  0  2  0  0  0  0  0  0  0  0  0
    0.6308   -8.1265    2.8984 C   0  0  0  0  0  0  0  0  0  0  0  0
    0.0557   -9.5202    3.2507 C   0  0  0  0  0  0  0  0  0  0  0  0
   -0.5685   -7.4416    2.1765 C   0  0  0  0  0  0  0  0  0  0  0  0
    1.8673   -8.1750    1.8927 C   0  0  2  0  0  0  0  0  0  0  0  0
    2.6460   -9.4502    1.5580 C   0  0  0  0  0  0  0  0  0  0  0  0
    3.9428   -8.7983    2.0259 C   0  0  0  0  0  0  0  0  0  0  0  0
    3.2404   -7.4219    2.2223 C   0  0  1  0  0  0  0  0  0  0  0  0
    3.7656   -6.4160    1.1384 C   0  0  1  0  0  0  0  0  0  0  0  0
    2.7195   -5.7508    0.4715 O   0  0  0  0  0  0  0  0  0  0  0  0
    4.9703   -5.4879    1.4990 C   0  0  0  0  0  0  0  0  0  0  0  0
    4.8154   -4.1342    2.2987 C   0  0  1  0  0  0  0  0  0  0  0  0
    3.3642   -6.8023    3.6808 C   0  0  2  0  0  0  0  0  0  0  0  0
    2.5079   -7.5913    4.7298 C   0  0  0  0  0  0  0  0  0  0  0  0
    2.7757   -7.1105    6.1976 C   0  0  0  0  0  0  0  0  0  0  0  0
    2.8263   -9.0985    4.9356 C   0  0  0  0  0  0  0  0  0  0  0  0
    2.5885   -1.8122    0.7640 H   0  0  0  0  0  0  0  0  0  0  0  0
    2.2169   -3.2531    1.6677 H   0  0  0  0  0  0  0  0  0  0  0  0
    2.7966   -3.3536    0.0041 H   0  0  0  0  0  0  0  0  0  0  0  0
    6.3505   -2.7073    0.5099 H   0  0  0  0  0  0  0  0  0  0  0  0
    5.1241   -1.6760   -0.2178 H   0  0  0  0  0  0  0  0  0  0  0  0
    5.1073   -3.3928   -0.5405 H   0  0  0  0  0  0  0  0  0  0  0  0
    5.6028   -1.5569    2.7004 H   0  0  0  0  0  0  0  0  0  0  0  0
    4.3814   -0.7005    1.8034 H   0  0  0  0  0  0  0  0  0  0  0  0
    3.7738   -0.7568    4.1531 H   0  0  0  0  0  0  0  0  0  0  0  0
    2.6005   -1.6999    3.2974 H   0  0  0  0  0  0  0  0  0  0  0  0
    4.9239   -2.5258    4.9562 H   0  0  0  0  0  0  0  0  0  0  0  0
    3.3135   -2.9235    5.2797 H   0  0  0  0  0  0  0  0  0  0  0  0
    5.9097   -5.7059    4.2181 H   0  0  0  0  0  0  0  0  0  0  0  0
    5.0178   -5.1605    5.6471 H   0  0  0  0  0  0  0  0  0  0  0  0
    6.1997   -4.1559    4.8367 H   0  0  0  0  0  0  0  0  0  0  0  0
    2.5509   -5.0290    2.7826 H   0  0  0  0  0  0  0  0  0  0  0  0
    1.9258   -4.5011    5.5942 H   0  0  0  0  0  0  0  0  0  0  0  0
    0.3817   -3.3958    4.6159 H   0  0  0  0  0  0  0  0  0  0  0  0
    0.2968   -6.0900    5.7838 H   0  0  0  0  0  0  0  0  0  0  0  0
   -0.3843   -5.6793    4.2658 H   0  0  0  0  0  0  0  0  0  0  0  0
    1.1766   -6.6389    3.3650 H   0  0  0  0  0  0  0  0  0  0  0  0
   -0.2035  -10.0721    2.3472 H   0  0  0  0  0  0  0  0  0  0  0  0
   -0.8590   -9.4293    3.8368 H   0  0  0  0  0  0  0  0  0  0  0  0
    0.7046  -10.1677    3.8263 H   0  0  0  0  0  0  0  0  0  0  0  0
   -0.8963   -8.0240    1.3146 H   0  0  0  0  0  0  0  0  0  0  0  0
   -0.3145   -6.4484    1.8025 H   0  0  0  0  0  0  0  0  0  0  0  0
   -1.4267   -7.3387    2.8412 H   0  0  0  0  0  0  0  0  0  0  0  0
    1.5166   -7.8429    0.9135 H   0  0  0  0  0  0  0  0  0  0  0  0
    2.3704  -10.3619    2.0943 H   0  0  0  0  0  0  0  0  0  0  0  0
    2.6606   -9.6565    0.4845 H   0  0  0  0  0  0  0  0  0  0  0  0
    4.3769   -9.2286    2.9251 H   0  0  0  0  0  0  0  0  0  0  0  0
    4.7107   -8.8248    1.2496 H   0  0  0  0  0  0  0  0  0  0  0  0
    4.1554   -7.0147    0.3161 H   0  0  0  0  0  0  0  0  0  0  0  0
    3.0091   -5.5506   -0.4099 H   0  0  0  0  0  0  0  0  0  0  0  0
    5.7028   -6.1070    2.0154 H   0  0  0  0  0  0  0  0  0  0  0  0
    5.4757   -5.2611    0.5632 H   0  0  0  0  0  0  0  0  0  0  0  0
    5.8653   -3.8902    2.4781 H   0  0  0  0  0  0  0  0  0  0  0  0
    4.3765   -6.9939    4.0047 H   0  0  0  0  0  0  0  0  0  0  0  0
    3.6534   -7.5926    6.6309 H   0  0  0  0  0  0  0  0  0  0  0  0
    1.9354   -7.3559    6.8489 H   0  0  0  0  0  0  0  0  0  0  0  0
    3.0077   -6.0628    6.3209 H   0  0  0  0  0  0  0  0  0  0  0  0
    3.8643   -9.2478    5.2400 H   0  0  0  0  0  0  0  0  0  0  0  0
    2.6868   -9.7380    4.0854 H   0  0  0  0  0  0  0  0  0  0  0  0
    2.1993   -9.5248    5.7216 H   0  0  0  0  0  0  0  0  0  0  0  0
  1  2  1  0
  1 29  1  0
  1 30  1  0
  1 31  1  0
  2 24  1  0
  2  3  1  0
  2  4  1  0
  3 32  1  0
  3 33  1  0
  3 34  1  0
  4  5  1  0
  4 35  1  0
  4 36  1  0
  5  6  1  0
  5 37  1  0
  5 38  1  0
  6  7  1  0
  6 39  1  0
  6 40  1  0
  7 24  1  0
  7  8  1  1
  7  9  1  0
  8 41  1  0
  8 42  1  0
  8 43  1  0
  9 25  1  0
  9 10  1  0
  9 44  1  6
 10 11  1  0
 10 12  1  0
 10 45  1  1
 11 46  1  0
 12 13  1  0
 12 47  1  0
 12 48  1  0
 13 26  1  0
 13 14  1  0
 13 49  1  1
 14 15  1  0
 14 16  1  0
 14 17  1  0
 15 50  1  0
 15 51  1  0
 15 52  1  0
 16 53  1  0
 16 54  1  0
 16 55  1  0
 17 20  1  0
 17 18  1  0
 17 56  1  6
 18 19  1  0
 18 57  1  0
 18 58  1  0
 20 19  1  1
 19 59  1  0
 19 60  1  0
 20 21  1  0
 20 25  1  0
 21 22  1  0
 21 23  1  0
 21 61  1  6
 22 62  1  0
 23 24  1  0
 23 63  1  0
 23 64  1  0
 24 65  1  1
 25 26  1  0
 25 66  1  1
 26 27  1  0
 26 28  1  0
 27 67  1  0
 27 68  1  0
 27 69  1  0
 28 70  1  0
 28 71  1  0
 28 72  1  0
M  END
>  <i_m_ct_stereo_status>  (36) 
1

>  <s_m_source_file>  (36) 
/var/tmp/pbs.5076255.sched01/tmpoa2zap1w/0_chicbso.sdf

>  <i_m_source_file_index>  (36) 
18

>  <i_lp_mmshare_version>  (36) 
48012

>  <i_f3d_flags>  (36) 
0

>  <s_epik_input>  (36) 
W0NIMl0xW0NIMl1bQ0gyXUMoW0NIM10pKFtDSDNdKVtDQEhdKFtDSDJdW0NAQEhdMltPSF0pW0NAXTEoW0NIM10pW0NAQEhdKFtDQEhdM0M0KFtDSDNdKVtDSDNdKVtDQEBIXShbT0hdKVtDSDJdW0NAQEhdNEMoW0NIM10pKFtDSDNdKVtDQEBIXShbQ0BAXTIzNSlbQ0gyXVtDSDJdNQ==

>  <s_epik_cmdline>  (36) 
J2VwaWtfcHl0aG9uJywgJy1waHQnLCAnMi4wJywgJy1waCcsICc3LjAnLCAnLXRuJywgJzgnLCAnLW1hJywgJzIwMCcsICctaW1hZScsICc8aW5maWxlLm1hZT4nLCAnLW9tYWUnLCAnPG91dGZpbGUubWFlPic=

>  <r_lp_tautomer_probability>  (36) 
1

>  <r_epik_Ionization_Penalty>  (36) 
6.57992e-06

>  <r_epik_Ionization_Penalty_Charging>  (36) 
0

>  <r_epik_Ionization_Penalty_Neutral>  (36) 
6.57992e-06

>  <r_epik_State_Penalty>  (36) 
-0

>  <r_epik_Charging_Adjusted_Penalty>  (36) 
0

>  <i_epik_Tot_Q>  (36) 
0

>  <i_epik_Tot_abs_Q>  (36) 
0

>  <s_lp_Force_Field>  (36) 
OPLS3e

>  <r_lp_Energy>  (36) 
205.335

>  <b_lp_Chiralities_Consistent>  (36) 
1

>  <s_lp_Variant>  (36) 
14:0-1

>  <s_i_glide_gridfile>  (36) 
pfpi4k_grid

>  <i_i_glide_lignum>  (36) 
18

>  <i_i_glide_rotatable_bonds>  (36) 
2

>  <r_i_docking_score>  (36) 
-2.58227

>  <r_i_glide_ligand_efficiency>  (36) 
-0.0922238

>  <r_i_glide_ligand_efficiency_sa>  (36) 
-0.280046

>  <r_i_glide_ligand_efficiency_ln>  (36) 
-0.596063

>  <r_i_glide_gscore>  (36) 
-2.58227

>  <r_i_glide_lipo>  (36) 
-0.226535

>  <r_i_glide_hbond>  (36) 
-0.134372

>  <r_i_glide_metal>  (36) 
-0

>  <r_i_glide_rewards>  (36) 
-0.759366

>  <r_i_glide_evdw>  (36) 
-27.3397

>  <r_i_glide_ecoul>  (36) 
-0.633402

>  <r_i_glide_erotb>  (36) 
0

>  <r_i_glide_esite>  (36) 
0

>  <r_i_glide_emodel>  (36) 
-32.1031

>  <r_i_glide_energy>  (36) 
-27.9731

>  <r_i_glide_einternal>  (36) 
0.980707

>  <r_i_glide_intrahb_reward>  (36) 
-0

>  <i_i_glide_confnum>  (36) 
1

>  <i_i_glide_posenum>  (36) 
37

>  <r_i_glide_eff_state_penalty>  (36) 
0

>  <ligand_id>  (36) 
14

>  <original_smiles>  (36) 
CC1(C)CCCC2(C)C3C(O)CC4C(C)(C)C5CCC5(C(O)CC12)C3C4(C)C

>  <smiles>  (36) 
[H]OC1([H])C([H])([H])C2([H])C(C([H])([H])[H])(C([H])([H])[H])C3([H])C([H])([H])C([H])([H])C34C([H])(O[H])C([H])([H])C3([H])C(C([H])([H])[H])(C([H])([H])[H])C([H])([H])C([H])([H])C([H])([H])C3(C([H])([H])[H])C1([H])C4([H])C2(C([H])([H])[H])C([H])([H])[H]

$$$$
14:0:2
     RDKit          3D

 72 76  0  0  1  0  0  0  0  0999 V2000
    2.9018   -2.8376    0.9328 C   0  0  0  0  0  0  0  0  0  0  0  0
    4.3625   -2.8650    1.4387 C   0  0  0  0  0  0  0  0  0  0  0  0
    5.2745   -2.6668    0.2064 C   0  0  0  0  0  0  0  0  0  0  0  0
    4.5611   -1.6259    2.3319 C   0  0  0  0  0  0  0  0  0  0  0  0
    3.6490   -1.6737    3.5508 C   0  0  0  0  0  0  0  0  0  0  0  0
    4.0130   -2.8654    4.4317 C   0  0  0  0  0  0  0  0  0  0  0  0
    4.2407   -4.2730    3.7518 C   0  0  1  0  0  0  0  0  0  0  0  0
    5.3818   -4.8680    4.6377 C   0  0  0  0  0  0  0  0  0  0  0  0
    2.9693   -5.2295    3.7356 C   0  0  2  0  0  0  0  0  0  0  0  0
    1.6596   -4.8337    4.5845 C   0  0  1  0  0  0  0  0  0  0  0  0
    1.0175   -3.7219    3.9960 O   0  0  0  0  0  0  0  0  0  0  0  0
    0.5480   -5.9534    4.7293 C   0  0  0  0  0  0  0  0  0  0  0  0
    1.0495   -7.3084    4.1822 C   0  0  2  0  0  0  0  0  0  0  0  0
    0.6057   -8.1196    2.9002 C   0  0  0  0  0  0  0  0  0  0  0  0
    0.0251   -9.5089    3.2594 C   0  0  0  0  0  0  0  0  0  0  0  0
   -0.5929   -7.4284    2.1837 C   0  0  0  0  0  0  0  0  0  0  0  0
    1.8377   -8.1707    1.8910 C   0  0  2  0  0  0  0  0  0  0  0  0
    2.6124   -9.4563    1.5535 C   0  0  0  0  0  0  0  0  0  0  0  0
    3.9121   -8.8014    2.0149 C   0  0  0  0  0  0  0  0  0  0  0  0
    3.2156   -7.4233    2.2110 C   0  0  1  0  0  0  0  0  0  0  0  0
    3.7383   -6.4229    1.1239 C   0  0  1  0  0  0  0  0  0  0  0  0
    2.6984   -5.7529    0.4569 O   0  0  0  0  0  0  0  0  0  0  0  0
    4.9473   -5.4982    1.4754 C   0  0  0  0  0  0  0  0  0  0  0  0
    4.8000   -4.1428    2.2719 C   0  0  1  0  0  0  0  0  0  0  0  0
    3.3467   -6.8036    3.6692 C   0  0  2  0  0  0  0  0  0  0  0  0
    2.4915   -7.5869    4.7223 C   0  0  0  0  0  0  0  0  0  0  0  0
    2.7676   -7.1032    6.1876 C   0  0  0  0  0  0  0  0  0  0  0  0
    2.8039   -9.0951    4.9308 C   0  0  0  0  0  0  0  0  0  0  0  0
    2.5721   -1.8135    0.7479 H   0  0  0  0  0  0  0  0  0  0  0  0
    2.2033   -3.2575    1.6513 H   0  0  0  0  0  0  0  0  0  0  0  0
    2.7719   -3.3554   -0.0160 H   0  0  0  0  0  0  0  0  0  0  0  0
    6.3300   -2.7257    0.4713 H   0  0  0  0  0  0  0  0  0  0  0  0
    5.1049   -1.6916   -0.2516 H   0  0  0  0  0  0  0  0  0  0  0  0
    5.0788   -3.4086   -0.5693 H   0  0  0  0  0  0  0  0  0  0  0  0
    5.5979   -1.5681    2.6670 H   0  0  0  0  0  0  0  0  0  0  0  0
    4.3775   -0.7086    1.7711 H   0  0  0  0  0  0  0  0  0  0  0  0
    3.7834   -0.7577    4.1256 H   0  0  0  0  0  0  0  0  0  0  0  0
    2.5990   -1.6819    3.2678 H   0  0  0  0  0  0  0  0  0  0  0  0
    4.9266   -2.5289    4.9223 H   0  0  0  0  0  0  0  0  0  0  0  0
    3.3209   -2.9205    5.2643 H   0  0  0  0  0  0  0  0  0  0  0  0
    5.8970   -5.7144    4.1903 H   0  0  0  0  0  0  0  0  0  0  0  0
    5.0170   -5.1595    5.6242 H   0  0  0  0  0  0  0  0  0  0  0  0
    6.1962   -4.1614    4.8006 H   0  0  0  0  0  0  0  0  0  0  0  0
    2.5378   -5.0320    2.7677 H   0  0  0  0  0  0  0  0  0  0  0  0
    1.9207   -4.4913    5.5817 H   0  0  0  0  0  0  0  0  0  0  0  0
    1.6323   -3.0061    3.9680 H   0  0  0  0  0  0  0  0  0  0  0  0
    0.2952   -6.0674    5.7821 H   0  0  0  0  0  0  0  0  0  0  0  0
   -0.3938   -5.6548    4.2669 H   0  0  0  0  0  0  0  0  0  0  0  0
    1.1572   -6.6300    3.3600 H   0  0  0  0  0  0  0  0  0  0  0  0
   -0.2406  -10.0625    2.3585 H   0  0  0  0  0  0  0  0  0  0  0  0
   -0.8861   -9.4123    3.8486 H   0  0  0  0  0  0  0  0  0  0  0  0
    0.6741  -10.1572    3.8327 H   0  0  0  0  0  0  0  0  0  0  0  0
   -0.9321   -8.0138    1.3276 H   0  0  0  0  0  0  0  0  0  0  0  0
   -0.3373   -6.4393    1.8045 H   0  0  0  0  0  0  0  0  0  0  0  0
   -1.4456   -7.3198    2.8546 H   0  0  0  0  0  0  0  0  0  0  0  0
    1.4832   -7.8410    0.9126 H   0  0  0  0  0  0  0  0  0  0  0  0
    2.3327  -10.3578    2.0950 H   0  0  0  0  0  0  0  0  0  0  0  0
    2.6203   -9.6595    0.4809 H   0  0  0  0  0  0  0  0  0  0  0  0
    4.3464   -9.2332    2.9139 H   0  0  0  0  0  0  0  0  0  0  0  0
    4.6758   -8.8336    1.2346 H   0  0  0  0  0  0  0  0  0  0  0  0
    4.1206   -7.0243    0.3001 H   0  0  0  0  0  0  0  0  0  0  0  0
    2.9965   -5.5480   -0.4224 H   0  0  0  0  0  0  0  0  0  0  0  0
    5.6806   -6.1190    1.9886 H   0  0  0  0  0  0  0  0  0  0  0  0
    5.4484   -5.2741    0.5363 H   0  0  0  0  0  0  0  0  0  0  0  0
    5.8506   -3.9011    2.4449 H   0  0  0  0  0  0  0  0  0  0  0  0
    4.3614   -6.9981    3.9887 H   0  0  0  0  0  0  0  0  0  0  0  0
    3.6451   -7.5880    6.6179 H   0  0  0  0  0  0  0  0  0  0  0  0
    1.9294   -7.3429    6.8432 H   0  0  0  0  0  0  0  0  0  0  0  0
    3.0035   -6.0552    6.3050 H   0  0  0  0  0  0  0  0  0  0  0  0
    3.8421   -9.2486    5.2306 H   0  0  0  0  0  0  0  0  0  0  0  0
    2.6589   -9.7348    4.0811 H   0  0  0  0  0  0  0  0  0  0  0  0
    2.1789   -9.5189    5.7186 H   0  0  0  0  0  0  0  0  0  0  0  0
  1  2  1  0
  1 29  1  0
  1 30  1  0
  1 31  1  0
  2 24  1  0
  2  3  1  0
  2  4  1  0
  3 32  1  0
  3 33  1  0
  3 34  1  0
  4  5  1  0
  4 35  1  0
  4 36  1  0
  5  6  1  0
  5 37  1  0
  5 38  1  0
  6  7  1  0
  6 39  1  0
  6 40  1  0
  7 24  1  0
  7  8  1  1
  7  9  1  0
  8 41  1  0
  8 42  1  0
  8 43  1  0
  9 25  1  0
  9 10  1  0
  9 44  1  6
 10 11  1  0
 10 12  1  0
 10 45  1  1
 11 46  1  0
 12 13  1  0
 12 47  1  0
 12 48  1  0
 13 26  1  0
 13 14  1  0
 13 49  1  1
 14 15  1  0
 14 16  1  0
 14 17  1  0
 15 50  1  0
 15 51  1  0
 15 52  1  0
 16 53  1  0
 16 54  1  0
 16 55  1  0
 17 20  1  0
 17 18  1  0
 17 56  1  6
 18 19  1  0
 18 57  1  0
 18 58  1  0
 20 19  1  1
 19 59  1  0
 19 60  1  0
 20 21  1  0
 20 25  1  0
 21 22  1  0
 21 23  1  0
 21 61  1  6
 22 62  1  0
 23 24  1  0
 23 63  1  0
 23 64  1  0
 24 65  1  1
 25 26  1  0
 25 66  1  1
 26 27  1  0
 26 28  1  0
 27 67  1  0
 27 68  1  0
 27 69  1  0
 28 70  1  0
 28 71  1  0
 28 72  1  0
M  END
>  <i_m_ct_stereo_status>  (37) 
1

>  <s_m_source_file>  (37) 
/var/tmp/pbs.5076255.sched01/tmpoa2zap1w/0_chicbso.sdf

>  <i_m_source_file_index>  (37) 
18

>  <i_lp_mmshare_version>  (37) 
48012

>  <i_f3d_flags>  (37) 
0

>  <s_epik_input>  (37) 
W0NIMl0xW0NIMl1bQ0gyXUMoW0NIM10pKFtDSDNdKVtDQEhdKFtDSDJdW0NAQEhdMltPSF0pW0NAXTEoW0NIM10pW0NAQEhdKFtDQEhdM0M0KFtDSDNdKVtDSDNdKVtDQEBIXShbT0hdKVtDSDJdW0NAQEhdNEMoW0NIM10pKFtDSDNdKVtDQEBIXShbQ0BAXTIzNSlbQ0gyXVtDSDJdNQ==

>  <s_epik_cmdline>  (37) 
J2VwaWtfcHl0aG9uJywgJy1waHQnLCAnMi4wJywgJy1waCcsICc3LjAnLCAnLXRuJywgJzgnLCAnLW1hJywgJzIwMCcsICctaW1hZScsICc8aW5maWxlLm1hZT4nLCAnLW9tYWUnLCAnPG91dGZpbGUubWFlPic=

>  <r_lp_tautomer_probability>  (37) 
1

>  <r_epik_Ionization_Penalty>  (37) 
6.57992e-06

>  <r_epik_Ionization_Penalty_Charging>  (37) 
0

>  <r_epik_Ionization_Penalty_Neutral>  (37) 
6.57992e-06

>  <r_epik_State_Penalty>  (37) 
-0

>  <r_epik_Charging_Adjusted_Penalty>  (37) 
0

>  <i_epik_Tot_Q>  (37) 
0

>  <i_epik_Tot_abs_Q>  (37) 
0

>  <s_lp_Force_Field>  (37) 
OPLS3e

>  <r_lp_Energy>  (37) 
205.335

>  <b_lp_Chiralities_Consistent>  (37) 
1

>  <s_lp_Variant>  (37) 
14:0-1

>  <s_i_glide_gridfile>  (37) 
pfpi4k_grid

>  <i_i_glide_lignum>  (37) 
18

>  <i_i_glide_rotatable_bonds>  (37) 
2

>  <r_i_docking_score>  (37) 
-2.56549

>  <r_i_glide_ligand_efficiency>  (37) 
-0.0916247

>  <r_i_glide_ligand_efficiency_sa>  (37) 
-0.278226

>  <r_i_glide_ligand_efficiency_ln>  (37) 
-0.592191

>  <r_i_glide_gscore>  (37) 
-2.56549

>  <r_i_glide_lipo>  (37) 
-0.222973

>  <r_i_glide_hbond>  (37) 
-0.141596

>  <r_i_glide_metal>  (37) 
-0

>  <r_i_glide_rewards>  (37) 
-0.759366

>  <r_i_glide_evdw>  (37) 
-27.2933

>  <r_i_glide_ecoul>  (37) 
-0.51261

>  <r_i_glide_erotb>  (37) 
0

>  <r_i_glide_esite>  (37) 
0

>  <r_i_glide_emodel>  (37) 
-31.9525

>  <r_i_glide_energy>  (37) 
-27.8059

>  <r_i_glide_einternal>  (37) 
0.924922

>  <r_i_glide_intrahb_reward>  (37) 
-0

>  <i_i_glide_confnum>  (37) 
2

>  <i_i_glide_posenum>  (37) 
16

>  <r_i_glide_eff_state_penalty>  (37) 
0

>  <ligand_id>  (37) 
14

>  <original_smiles>  (37) 
CC1(C)CCCC2(C)C3C(O)CC4C(C)(C)C5CCC5(C(O)CC12)C3C4(C)C

>  <smiles>  (37) 
[H]OC1([H])C([H])([H])C2([H])C(C([H])([H])[H])(C([H])([H])[H])C3([H])C([H])([H])C([H])([H])C34C([H])(O[H])C([H])([H])C3([H])C(C([H])([H])[H])(C([H])([H])[H])C([H])([H])C([H])([H])C([H])([H])C3(C([H])([H])[H])C1([H])C4([H])C2(C([H])([H])[H])C([H])([H])[H]

$$$$
15:0:0
     RDKit          3D

 65 70  0  0  1  0  0  0  0  0999 V2000
    4.4733   -1.8186   -1.2569 C   0  0  0  0  0  0  0  0  0  0  0  0
    4.7979   -2.8828   -0.5116 C   0  0  0  0  0  0  0  0  0  0  0  0
    6.1759   -3.1593    0.0018 C   0  0  0  0  0  0  0  0  0  0  0  0
    7.2167   -2.5420   -0.2244 O   0  0  0  0  0  0  0  0  0  0  0  0
    6.0061   -4.3268    0.9840 C   0  0  1  0  0  0  0  0  0  0  0  0
    5.3987   -3.4209    2.1315 C   0  0  0  0  0  0  0  0  0  0  0  0
    4.4317   -3.9573    2.9680 O   0  0  0  0  0  0  0  0  0  0  0  0
    3.2288   -4.4727    2.5612 C   0  0  1  0  0  0  0  0  0  0  0  0
    2.1962   -3.7493    3.1915 O   0  0  0  0  0  0  0  0  0  0  0  0
    2.8907   -4.2417    0.9829 C   0  0  0  0  0  0  0  0  0  0  0  0
    3.9502   -4.1308   -0.2069 C   0  0  2  0  0  0  0  0  0  0  0  0
    5.0515   -5.0953   -0.0081 C   0  0  0  0  0  0  0  0  0  0  0  0
    3.1997   -5.9181    3.2807 C   0  0  2  0  0  0  0  0  0  0  0  0
    3.2337   -5.7777    4.7112 O   0  0  0  0  0  0  0  0  0  0  0  0
    4.4401   -5.4923    5.4682 C   0  0  0  0  0  0  0  0  0  0  0  0
    4.2538   -4.0675    6.0459 C   0  0  0  0  0  0  0  0  0  0  0  0
    4.3089   -6.4931    6.6429 C   0  0  0  0  0  0  0  0  0  0  0  0
    5.8117   -5.5971    4.6746 C   0  0  1  0  0  0  0  0  0  0  0  0
    7.0917   -5.6665    5.5398 C   0  0  0  0  0  0  0  0  0  0  0  0
    7.1995   -5.0693    6.6095 O   0  0  0  0  0  0  0  0  0  0  0  0
    5.7617   -6.6381    3.5133 C   0  0  2  0  0  0  0  0  0  0  0  0
    6.1318   -8.0304    4.0750 C   0  0  0  0  0  0  0  0  0  0  0  0
    5.8826   -8.7778    2.8065 C   0  0  2  0  0  0  0  0  0  0  0  0
    7.0026   -8.0589    1.9538 C   0  0  0  0  0  0  0  0  0  0  0  0
    6.6921   -6.5665    2.2423 C   0  0  2  0  0  0  0  0  0  0  0  0
    7.2045   -5.2345    1.5420 C   0  0  1  0  0  0  0  0  0  0  0  0
    8.0755   -5.6175    0.4894 O   0  0  0  0  0  0  0  0  0  0  0  0
    4.3601   -8.3907    2.5648 C   0  0  0  0  0  0  0  0  0  0  0  0
    3.9552   -8.7352    1.1177 C   0  0  0  0  0  0  0  0  0  0  0  0
    3.3911   -9.1557    3.4971 C   0  0  0  0  0  0  0  0  0  0  0  0
    4.3624   -6.8536    2.8750 C   0  0  1  0  0  0  0  0  0  0  0  0
    3.4880   -1.7057   -1.6878 H   0  0  0  0  0  0  0  0  0  0  0  0
    5.1936   -1.0438   -1.4672 H   0  0  0  0  0  0  0  0  0  0  0  0
    6.2071   -3.1019    2.7730 H   0  0  0  0  0  0  0  0  0  0  0  0
    4.9637   -2.4512    1.8680 H   0  0  0  0  0  0  0  0  0  0  0  0
    2.2432   -2.8629    2.8743 H   0  0  0  0  0  0  0  0  0  0  0  0
    2.2107   -5.0537    0.7259 H   0  0  0  0  0  0  0  0  0  0  0  0
    2.2834   -3.3407    0.8945 H   0  0  0  0  0  0  0  0  0  0  0  0
    3.4247   -4.3688   -1.1276 H   0  0  0  0  0  0  0  0  0  0  0  0
    5.5612   -5.2629   -0.9586 H   0  0  0  0  0  0  0  0  0  0  0  0
    4.6603   -6.0899    0.1070 H   0  0  0  0  0  0  0  0  0  0  0  0
    2.2486   -6.3810    3.0209 H   0  0  0  0  0  0  0  0  0  0  0  0
    5.0282   -3.8058    6.7675 H   0  0  0  0  0  0  0  0  0  0  0  0
    3.2949   -3.9694    6.5568 H   0  0  0  0  0  0  0  0  0  0  0  0
    4.2788   -3.3037    5.2712 H   0  0  0  0  0  0  0  0  0  0  0  0
    5.1372   -6.4421    7.3500 H   0  0  0  0  0  0  0  0  0  0  0  0
    4.2272   -7.5207    6.2997 H   0  0  0  0  0  0  0  0  0  0  0  0
    3.3996   -6.2974    7.2138 H   0  0  0  0  0  0  0  0  0  0  0  0
    6.0119   -4.6342    4.2390 H   0  0  0  0  0  0  0  0  0  0  0  0
    7.9180   -6.2424    5.1249 H   0  0  0  0  0  0  0  0  0  0  0  0
    7.1687   -8.1384    4.3976 H   0  0  0  0  0  0  0  0  0  0  0  0
    5.5243   -8.3789    4.9005 H   0  0  0  0  0  0  0  0  0  0  0  0
    6.0506   -9.8511    2.8963 H   0  0  0  0  0  0  0  0  0  0  0  0
    8.0023   -8.3111    2.3137 H   0  0  0  0  0  0  0  0  0  0  0  0
    6.9777   -8.3610    0.9014 H   0  0  0  0  0  0  0  0  0  0  0  0
    6.0954   -6.7164    1.3739 H   0  0  0  0  0  0  0  0  0  0  0  0
    7.8128   -4.6693    2.2478 H   0  0  0  0  0  0  0  0  0  0  0  0
    8.7113   -6.2315    0.8289 H   0  0  0  0  0  0  0  0  0  0  0  0
    2.9567   -8.3593    0.8959 H   0  0  0  0  0  0  0  0  0  0  0  0
    3.9382   -9.8159    0.9634 H   0  0  0  0  0  0  0  0  0  0  0  0
    4.6380   -8.3204    0.3776 H   0  0  0  0  0  0  0  0  0  0  0  0
    2.3546   -8.9709    3.2141 H   0  0  0  0  0  0  0  0  0  0  0  0
    3.4773   -8.8720    4.5445 H   0  0  0  0  0  0  0  0  0  0  0  0
    3.5518  -10.2329    3.4343 H   0  0  0  0  0  0  0  0  0  0  0  0
    4.2727   -6.4706    1.9056 H   0  0  0  0  0  0  0  0  0  0  0  0
  1  2  2  0
  1 32  1  0
  1 33  1  0
  2 11  1  0
  2  3  1  0
  3  4  2  0
  5  3  1  6
  5 12  1  0
  5 26  1  0
  5  6  1  0
  6  7  1  0
  6 34  1  0
  6 35  1  0
  7  8  1  0
  8  9  1  1
  8 10  1  0
  8 13  1  0
  9 36  1  0
 10 11  1  0
 10 37  1  0
 10 38  1  0
 11 12  1  0
 11 39  1  6
 12 40  1  0
 12 41  1  0
 13 31  1  0
 13 14  1  0
 13 42  1  1
 14 15  1  0
 15 16  1  0
 15 17  1  0
 15 18  1  0
 16 43  1  0
 16 44  1  0
 16 45  1  0
 17 46  1  0
 17 47  1  0
 17 48  1  0
 18 19  1  0
 18 21  1  0
 18 49  1  6
 19 20  2  0
 19 50  1  0
 21 25  1  0
 21 31  1  0
 21 22  1  1
 22 23  1  0
 22 51  1  0
 22 52  1  0
 23 24  1  0
 23 28  1  0
 23 53  1  1
 24 25  1  0
 24 54  1  0
 24 55  1  0
 25 26  1  0
 25 56  1  6
 26 27  1  0
 26 57  1  1
 27 58  1  0
 28 29  1  0
 28 30  1  0
 28 31  1  0
 29 59  1  0
 29 60  1  0
 29 61  1  0
 30 62  1  0
 30 63  1  0
 30 64  1  0
 31 65  1  6
M  END
>  <i_m_ct_stereo_status>  (38) 
1

>  <s_m_source_file>  (38) 
/var/tmp/pbs.5076255.sched01/tmpoa2zap1w/0_chicbso.sdf

>  <i_m_source_file_index>  (38) 
19

>  <i_lp_mmshare_version>  (38) 
48012

>  <i_f3d_flags>  (38) 
0

>  <s_epik_input>  (38) 
Tz1DKFtDQEBdMTIzKUMoPVtDSDJdKVtDQEBIXShbQ0gyXTIpW0NIMl1bQ0BdKFtPSF0pKE9bQ0gyXTEpW0NASF00W0NASF01W0NAXTYoW0NASF0oW0NIXT1PKUMoTzQpKFtDSDNdKVtDSDNdKVtDQEBIXShbQ0BIXTNbT0hdKVtDSDJdW0NAQEhdKFtDSDJdNilDNShbQ0gzXSlbQ0gzXQ==

>  <s_epik_cmdline>  (38) 
J2VwaWtfcHl0aG9uJywgJy1waHQnLCAnMi4wJywgJy1waCcsICc3LjAnLCAnLXRuJywgJzgnLCAnLW1hJywgJzIwMCcsICctaW1hZScsICc8aW5maWxlLm1hZT4nLCAnLW9tYWUnLCAnPG91dGZpbGUubWFlPic=

>  <r_lp_tautomer_probability>  (38) 
1

>  <r_epik_Ionization_Penalty>  (38) 
3.97349e-07

>  <r_epik_Ionization_Penalty_Charging>  (38) 
0

>  <r_epik_Ionization_Penalty_Neutral>  (38) 
3.97349e-07

>  <r_epik_State_Penalty>  (38) 
-0

>  <r_epik_Charging_Adjusted_Penalty>  (38) 
0

>  <i_epik_Tot_Q>  (38) 
0

>  <i_epik_Tot_abs_Q>  (38) 
0

>  <s_lp_Force_Field>  (38) 
OPLS3e

>  <r_lp_Energy>  (38) 
186.827

>  <b_lp_Chiralities_Consistent>  (38) 
1

>  <s_lp_Variant>  (38) 
15:0-1

>  <s_i_glide_gridfile>  (38) 
pfpi4k_grid

>  <i_i_glide_lignum>  (38) 
19

>  <i_i_glide_rotatable_bonds>  (38) 
3

>  <r_i_docking_score>  (38) 
-2.68559

>  <r_i_glide_ligand_efficiency>  (38) 
-0.0866318

>  <r_i_glide_ligand_efficiency_sa>  (38) 
-0.272143

>  <r_i_glide_ligand_efficiency_ln>  (38) 
-0.605682

>  <r_i_glide_gscore>  (38) 
-2.68559

>  <r_i_glide_lipo>  (38) 
-0.382636

>  <r_i_glide_hbond>  (38) 
0

>  <r_i_glide_metal>  (38) 
-0

>  <r_i_glide_rewards>  (38) 
-0.585097

>  <r_i_glide_evdw>  (38) 
-25.5406

>  <r_i_glide_ecoul>  (38) 
-2.93882

>  <r_i_glide_erotb>  (38) 
0

>  <r_i_glide_esite>  (38) 
0

>  <r_i_glide_emodel>  (38) 
-33.0709

>  <r_i_glide_energy>  (38) 
-28.4794

>  <r_i_glide_einternal>  (38) 
0.632192

>  <r_i_glide_intrahb_reward>  (38) 
-0

>  <i_i_glide_confnum>  (38) 
2

>  <i_i_glide_posenum>  (38) 
23

>  <r_i_glide_eff_state_penalty>  (38) 
0

>  <ligand_id>  (38) 
15

>  <original_smiles>  (38) 
C=C1C(=O)C23COC(O)(CC1C2)C1OC(C)(C)C(C=O)C24CC(CC2C3O)C(C)(C)C14

>  <smiles>  (38) 
[H]OC1([H])C2([H])C([H])([H])C3([H])C([H])([H])C24C([H])(C([H])=O)C(C([H])([H])[H])(C([H])([H])[H])OC([H])(C2(O[H])OC([H])([H])C15C(=O)C(=C([H])[H])C([H])(C2([H])[H])C5([H])[H])C4([H])C3(C([H])([H])[H])C([H])([H])[H]

$$$$
15:0:1
     RDKit          3D

 65 70  0  0  1  0  0  0  0  0999 V2000
    4.1808   -1.6243   -1.1804 C   0  0  0  0  0  0  0  0  0  0  0  0
    4.6377   -2.6773   -0.4898 C   0  0  0  0  0  0  0  0  0  0  0  0
    6.0394   -2.8439   -0.0449 C   0  0  0  0  0  0  0  0  0  0  0  0
    7.0373   -2.1455   -0.2973 O   0  0  0  0  0  0  0  0  0  0  0  0
    6.0502   -4.0549    0.8850 C   0  0  1  0  0  0  0  0  0  0  0  0
    5.3937   -3.2709    2.0982 C   0  0  0  0  0  0  0  0  0  0  0  0
    4.5240   -3.9419    2.9417 O   0  0  0  0  0  0  0  0  0  0  0  0
    3.3812   -4.5643    2.5480 C   0  0  1  0  0  0  0  0  0  0  0  0
    2.2886   -3.9788    3.2718 O   0  0  0  0  0  0  0  0  0  0  0  0
    2.9341   -4.2928    0.9987 C   0  0  0  0  0  0  0  0  0  0  0  0
    3.9364   -4.0207   -0.2253 C   0  0  2  0  0  0  0  0  0  0  0  0
    5.1319   -4.8825   -0.1050 C   0  0  0  0  0  0  0  0  0  0  0  0
    3.5009   -6.0334    3.2113 C   0  0  2  0  0  0  0  0  0  0  0  0
    3.5664   -5.9156    4.6396 O   0  0  0  0  0  0  0  0  0  0  0  0
    4.7748   -5.5683    5.3644 C   0  0  0  0  0  0  0  0  0  0  0  0
    4.4688   -4.1970    6.0210 C   0  0  0  0  0  0  0  0  0  0  0  0
    4.7827   -6.6291    6.4987 C   0  0  0  0  0  0  0  0  0  0  0  0
    6.1197   -5.5023    4.5289 C   0  0  1  0  0  0  0  0  0  0  0  0
    7.4265   -5.4799    5.3492 C   0  0  0  0  0  0  0  0  0  0  0  0
    7.5055   -4.9756    6.4684 O   0  0  0  0  0  0  0  0  0  0  0  0
    6.1360   -6.4847    3.3176 C   0  0  2  0  0  0  0  0  0  0  0  0
    6.6656   -7.8533    3.8043 C   0  0  0  0  0  0  0  0  0  0  0  0
    6.4469   -8.5710    2.5126 C   0  0  2  0  0  0  0  0  0  0  0  0
    7.4561   -7.7037    1.6630 C   0  0  0  0  0  0  0  0  0  0  0  0
    7.0087   -6.2622    2.0171 C   0  0  2  0  0  0  0  0  0  0  0  0
    7.3455   -4.8561    1.3454 C   0  0  1  0  0  0  0  0  0  0  0  0
    8.2145   -5.0422    0.2408 O   0  0  0  0  0  0  0  0  0  0  0  0
    4.8855   -8.3336    2.3370 C   0  0  0  0  0  0  0  0  0  0  0  0
    4.4515   -8.6559    0.8942 C   0  0  0  0  0  0  0  0  0  0  0  0
    4.0346   -9.2334    3.2638 C   0  0  0  0  0  0  0  0  0  0  0  0
    4.7473   -6.8151    2.7137 C   0  0  1  0  0  0  0  0  0  0  0  0
    3.1744   -1.5942   -1.5680 H   0  0  0  0  0  0  0  0  0  0  0  0
    4.8106   -0.7719   -1.3775 H   0  0  0  0  0  0  0  0  0  0  0  0
    6.2119   -2.8973    2.7212 H   0  0  0  0  0  0  0  0  0  0  0  0
    4.8495   -2.3410    1.9023 H   0  0  0  0  0  0  0  0  0  0  0  0
    2.4715   -4.1482    4.1700 H   0  0  0  0  0  0  0  0  0  0  0  0
    2.3307   -5.1585    0.7302 H   0  0  0  0  0  0  0  0  0  0  0  0
    2.2420   -3.4541    0.9940 H   0  0  0  0  0  0  0  0  0  0  0  0
    3.3947   -4.2668   -1.1408 H   0  0  0  0  0  0  0  0  0  0  0  0
    5.6248   -4.9478   -1.0799 H   0  0  0  0  0  0  0  0  0  0  0  0
    4.8510   -5.9089   -0.0237 H   0  0  0  0  0  0  0  0  0  0  0  0
    2.5996   -6.5751    2.9532 H   0  0  0  0  0  0  0  0  0  0  0  0
    5.2412   -3.8920    6.7249 H   0  0  0  0  0  0  0  0  0  0  0  0
    3.5287   -4.2190    6.5693 H   0  0  0  0  0  0  0  0  0  0  0  0
    4.3925   -3.3980    5.2817 H   0  0  0  0  0  0  0  0  0  0  0  0
    5.6247   -6.5285    7.1813 H   0  0  0  0  0  0  0  0  0  0  0  0
    4.7987   -7.6452    6.1088 H   0  0  0  0  0  0  0  0  0  0  0  0
    3.8817   -6.5553    7.1070 H   0  0  0  0  0  0  0  0  0  0  0  0
    6.2057   -4.5031    4.1319 H   0  0  0  0  0  0  0  0  0  0  0  0
    8.3053   -5.8903    4.8489 H   0  0  0  0  0  0  0  0  0  0  0  0
    7.7195   -7.8627    4.0853 H   0  0  0  0  0  0  0  0  0  0  0  0
    6.1295   -8.2994    4.6313 H   0  0  0  0  0  0  0  0  0  0  0  0
    6.7254   -9.6241    2.5452 H   0  0  0  0  0  0  0  0  0  0  0  0
    8.4904   -7.8635    1.9827 H   0  0  0  0  0  0  0  0  0  0  0  0
    7.4405   -7.9691    0.6058 H   0  0  0  0  0  0  0  0  0  0  0  0
    6.3985   -6.4416    1.1649 H   0  0  0  0  0  0  0  0  0  0  0  0
    7.9368   -4.2567    2.0148 H   0  0  0  0  0  0  0  0  0  0  0  0
    8.3489   -4.2039   -0.1608 H   0  0  0  0  0  0  0  0  0  0  0  0
    3.4101   -8.3834    0.7404 H   0  0  0  0  0  0  0  0  0  0  0  0
    4.5452   -9.7239    0.6846 H   0  0  0  0  0  0  0  0  0  0  0  0
    5.0320   -8.1300    0.1417 H   0  0  0  0  0  0  0  0  0  0  0  0
    2.9731   -9.1445    3.0266 H   0  0  0  0  0  0  0  0  0  0  0  0
    4.1311   -8.9878    4.3203 H   0  0  0  0  0  0  0  0  0  0  0  0
    4.3007  -10.2859    3.1430 H   0  0  0  0  0  0  0  0  0  0  0  0
    4.5835   -6.4106    1.7704 H   0  0  0  0  0  0  0  0  0  0  0  0
  1  2  2  0
  1 32  1  0
  1 33  1  0
  2 11  1  0
  2  3  1  0
  3  4  2  0
  5  3  1  6
  5 12  1  0
  5 26  1  0
  5  6  1  0
  6  7  1  0
  6 34  1  0
  6 35  1  0
  7  8  1  0
  8  9  1  1
  8 10  1  0
  8 13  1  0
  9 36  1  0
 10 11  1  0
 10 37  1  0
 10 38  1  0
 11 12  1  0
 11 39  1  6
 12 40  1  0
 12 41  1  0
 13 31  1  0
 13 14  1  0
 13 42  1  1
 14 15  1  0
 15 16  1  0
 15 17  1  0
 15 18  1  0
 16 43  1  0
 16 44  1  0
 16 45  1  0
 17 46  1  0
 17 47  1  0
 17 48  1  0
 18 19  1  0
 18 21  1  0
 18 49  1  6
 19 20  2  0
 19 50  1  0
 21 25  1  0
 21 31  1  0
 21 22  1  1
 22 23  1  0
 22 51  1  0
 22 52  1  0
 23 24  1  0
 23 28  1  0
 23 53  1  1
 24 25  1  0
 24 54  1  0
 24 55  1  0
 25 26  1  0
 25 56  1  6
 26 27  1  0
 26 57  1  1
 27 58  1  0
 28 29  1  0
 28 30  1  0
 28 31  1  0
 29 59  1  0
 29 60  1  0
 29 61  1  0
 30 62  1  0
 30 63  1  0
 30 64  1  0
 31 65  1  6
M  END
>  <i_m_ct_stereo_status>  (39) 
1

>  <s_m_source_file>  (39) 
/var/tmp/pbs.5076255.sched01/tmpoa2zap1w/0_chicbso.sdf

>  <i_m_source_file_index>  (39) 
19

>  <i_lp_mmshare_version>  (39) 
48012

>  <i_f3d_flags>  (39) 
0

>  <s_epik_input>  (39) 
Tz1DKFtDQEBdMTIzKUMoPVtDSDJdKVtDQEBIXShbQ0gyXTIpW0NIMl1bQ0BdKFtPSF0pKE9bQ0gyXTEpW0NASF00W0NASF01W0NAXTYoW0NASF0oW0NIXT1PKUMoTzQpKFtDSDNdKVtDSDNdKVtDQEBIXShbQ0BIXTNbT0hdKVtDSDJdW0NAQEhdKFtDSDJdNilDNShbQ0gzXSlbQ0gzXQ==

>  <s_epik_cmdline>  (39) 
J2VwaWtfcHl0aG9uJywgJy1waHQnLCAnMi4wJywgJy1waCcsICc3LjAnLCAnLXRuJywgJzgnLCAnLW1hJywgJzIwMCcsICctaW1hZScsICc8aW5maWxlLm1hZT4nLCAnLW9tYWUnLCAnPG91dGZpbGUubWFlPic=

>  <r_lp_tautomer_probability>  (39) 
1

>  <r_epik_Ionization_Penalty>  (39) 
3.97349e-07

>  <r_epik_Ionization_Penalty_Charging>  (39) 
0

>  <r_epik_Ionization_Penalty_Neutral>  (39) 
3.97349e-07

>  <r_epik_State_Penalty>  (39) 
-0

>  <r_epik_Charging_Adjusted_Penalty>  (39) 
0

>  <i_epik_Tot_Q>  (39) 
0

>  <i_epik_Tot_abs_Q>  (39) 
0

>  <s_lp_Force_Field>  (39) 
OPLS3e

>  <r_lp_Energy>  (39) 
186.827

>  <b_lp_Chiralities_Consistent>  (39) 
1

>  <s_lp_Variant>  (39) 
15:0-1

>  <s_i_glide_gridfile>  (39) 
pfpi4k_grid

>  <i_i_glide_lignum>  (39) 
19

>  <i_i_glide_rotatable_bonds>  (39) 
3

>  <r_i_docking_score>  (39) 
-2.54399

>  <r_i_glide_ligand_efficiency>  (39) 
-0.0820642

>  <r_i_glide_ligand_efficiency_sa>  (39) 
-0.257795

>  <r_i_glide_ligand_efficiency_ln>  (39) 
-0.573748

>  <r_i_glide_gscore>  (39) 
-2.54399

>  <r_i_glide_lipo>  (39) 
-0.364185

>  <r_i_glide_hbond>  (39) 
-0.0978641

>  <r_i_glide_metal>  (39) 
-0

>  <r_i_glide_rewards>  (39) 
-0.553858

>  <r_i_glide_evdw>  (39) 
-24.625

>  <r_i_glide_ecoul>  (39) 
-1.97889

>  <r_i_glide_erotb>  (39) 
0

>  <r_i_glide_esite>  (39) 
0

>  <r_i_glide_emodel>  (39) 
-30.815

>  <r_i_glide_energy>  (39) 
-26.6039

>  <r_i_glide_einternal>  (39) 
0.636504

>  <r_i_glide_intrahb_reward>  (39) 
-0

>  <i_i_glide_confnum>  (39) 
1

>  <i_i_glide_posenum>  (39) 
1

>  <r_i_glide_eff_state_penalty>  (39) 
0

>  <ligand_id>  (39) 
15

>  <original_smiles>  (39) 
C=C1C(=O)C23COC(O)(CC1C2)C1OC(C)(C)C(C=O)C24CC(CC2C3O)C(C)(C)C14

>  <smiles>  (39) 
[H]OC1([H])C2([H])C([H])([H])C3([H])C([H])([H])C24C([H])(C([H])=O)C(C([H])([H])[H])(C([H])([H])[H])OC([H])(C2(O[H])OC([H])([H])C15C(=O)C(=C([H])[H])C([H])(C2([H])[H])C5([H])[H])C4([H])C3(C([H])([H])[H])C([H])([H])[H]

$$$$
15:0:2
     RDKit          3D

 65 70  0  0  1  0  0  0  0  0999 V2000
    3.0055    0.5364    1.7137 C   0  0  0  0  0  0  0  0  0  0  0  0
    3.2533   -0.7799    1.7009 C   0  0  0  0  0  0  0  0  0  0  0  0
    4.4148   -1.4097    0.9986 C   0  0  0  0  0  0  0  0  0  0  0  0
    5.2600   -0.8891    0.2714 O   0  0  0  0  0  0  0  0  0  0  0  0
    4.4125   -2.8675    1.4647 C   0  0  1  0  0  0  0  0  0  0  0  0
    5.0358   -2.5300    2.8826 C   0  0  0  0  0  0  0  0  0  0  0  0
    4.6443   -3.2733    3.9863 O   0  0  0  0  0  0  0  0  0  0  0  0
    3.3587   -3.4135    4.4358 C   0  0  1  0  0  0  0  0  0  0  0  0
    3.3050   -2.9529    5.7669 O   0  0  0  0  0  0  0  0  0  0  0  0
    2.2708   -2.4497    3.6899 C   0  0  0  0  0  0  0  0  0  0  0  0
    2.3402   -1.9242    2.1763 C   0  0  2  0  0  0  0  0  0  0  0  0
    2.8527   -2.9846    1.2771 C   0  0  0  0  0  0  0  0  0  0  0  0
    3.1941   -5.0154    4.5619 C   0  0  2  0  0  0  0  0  0  0  0  0
    4.1268   -5.5527    5.5165 O   0  0  0  0  0  0  0  0  0  0  0  0
    5.5307   -5.7861    5.2299 C   0  0  0  0  0  0  0  0  0  0  0  0
    6.3248   -4.7792    6.0946 C   0  0  0  0  0  0  0  0  0  0  0  0
    5.7413   -7.1917    5.8470 C   0  0  0  0  0  0  0  0  0  0  0  0
    5.9627   -5.6594    3.7125 C   0  0  1  0  0  0  0  0  0  0  0  0
    7.3479   -6.2520    3.3770 C   0  0  0  0  0  0  0  0  0  0  0  0
    7.8152   -6.1526    2.2435 O   0  0  0  0  0  0  0  0  0  0  0  0
    4.8307   -6.0392    2.7190 C   0  0  2  0  0  0  0  0  0  0  0  0
    4.8757   -7.5643    2.4744 C   0  0  0  0  0  0  0  0  0  0  0  0
    3.6480   -7.6131    1.6248 C   0  0  2  0  0  0  0  0  0  0  0  0
    4.2108   -6.7043    0.4629 C   0  0  0  0  0  0  0  0  0  0  0  0
    4.7600   -5.4890    1.2442 C   0  0  2  0  0  0  0  0  0  0  0  0
    5.2286   -4.0494    0.7586 C   0  0  1  0  0  0  0  0  0  0  0  0
    5.0755   -3.9877   -0.6510 O   0  0  0  0  0  0  0  0  0  0  0  0
    2.5904   -6.9948    2.6382 C   0  0  0  0  0  0  0  0  0  0  0  0
    1.3071   -6.5887    1.8824 C   0  0  0  0  0  0  0  0  0  0  0  0
    2.1662   -7.9912    3.7435 C   0  0  0  0  0  0  0  0  0  0  0  0
    3.3877   -5.7821    3.2320 C   0  0  1  0  0  0  0  0  0  0  0  0
    2.1045    0.9441    2.1441 H   0  0  0  0  0  0  0  0  0  0  0  0
    3.6990    1.2317    1.2726 H   0  0  0  0  0  0  0  0  0  0  0  0
    6.1171   -2.6397    2.7950 H   0  0  0  0  0  0  0  0  0  0  0  0
    4.9635   -1.5055    3.2675 H   0  0  0  0  0  0  0  0  0  0  0  0
    3.4999   -2.0316    5.7543 H   0  0  0  0  0  0  0  0  0  0  0  0
    1.3201   -2.9735    3.8028 H   0  0  0  0  0  0  0  0  0  0  0  0
    2.1525   -1.5473    4.2929 H   0  0  0  0  0  0  0  0  0  0  0  0
    1.3275   -1.6508    1.8743 H   0  0  0  0  0  0  0  0  0  0  0  0
    2.5833   -2.7560    0.2412 H   0  0  0  0  0  0  0  0  0  0  0  0
    2.2550   -3.8692    1.3909 H   0  0  0  0  0  0  0  0  0  0  0  0
    2.1918   -5.1974    4.9462 H   0  0  0  0  0  0  0  0  0  0  0  0
    7.3970   -4.9772    6.0684 H   0  0  0  0  0  0  0  0  0  0  0  0
    6.0072   -4.8219    7.1373 H   0  0  0  0  0  0  0  0  0  0  0  0
    6.1835   -3.7497    5.7689 H   0  0  0  0  0  0  0  0  0  0  0  0
    6.7602   -7.5663    5.7547 H   0  0  0  0  0  0  0  0  0  0  0  0
    5.0731   -7.9325    5.4160 H   0  0  0  0  0  0  0  0  0  0  0  0
    5.5178   -7.1764    6.9152 H   0  0  0  0  0  0  0  0  0  0  0  0
    6.2127   -4.6314    3.5246 H   0  0  0  0  0  0  0  0  0  0  0  0
    7.8908   -6.7226    4.1945 H   0  0  0  0  0  0  0  0  0  0  0  0
    5.7571   -7.9099    1.9301 H   0  0  0  0  0  0  0  0  0  0  0  0
    4.8052   -8.1869    3.3572 H   0  0  0  0  0  0  0  0  0  0  0  0
    3.3943   -8.6191    1.2873 H   0  0  0  0  0  0  0  0  0  0  0  0
    5.0087   -7.2088   -0.0721 H   0  0  0  0  0  0  0  0  0  0  0  0
    3.4551   -6.4760   -0.2931 H   0  0  0  0  0  0  0  0  0  0  0  0
    3.7682   -5.1560    1.0583 H   0  0  0  0  0  0  0  0  0  0  0  0
    6.2949   -3.9368    0.9563 H   0  0  0  0  0  0  0  0  0  0  0  0
    4.1758   -4.1700   -0.8811 H   0  0  0  0  0  0  0  0  0  0  0  0
    0.6292   -6.0408    2.5376 H   0  0  0  0  0  0  0  0  0  0  0  0
    0.7749   -7.4688    1.5149 H   0  0  0  0  0  0  0  0  0  0  0  0
    1.5168   -5.9627    1.0161 H   0  0  0  0  0  0  0  0  0  0  0  0
    1.3500   -7.5850    4.3418 H   0  0  0  0  0  0  0  0  0  0  0  0
    2.9657   -8.2293    4.4430 H   0  0  0  0  0  0  0  0  0  0  0  0
    1.8155   -8.9316    3.3140 H   0  0  0  0  0  0  0  0  0  0  0  0
    2.9020   -4.9882    2.7544 H   0  0  0  0  0  0  0  0  0  0  0  0
  1  2  2  0
  1 32  1  0
  1 33  1  0
  2 11  1  0
  2  3  1  0
  3  4  2  0
  5  3  1  6
  5 12  1  0
  5 26  1  0
  5  6  1  0
  6  7  1  0
  6 34  1  0
  6 35  1  0
  7  8  1  0
  8  9  1  1
  8 10  1  0
  8 13  1  0
  9 36  1  0
 10 11  1  0
 10 37  1  0
 10 38  1  0
 11 12  1  0
 11 39  1  6
 12 40  1  0
 12 41  1  0
 13 31  1  0
 13 14  1  0
 13 42  1  1
 14 15  1  0
 15 16  1  0
 15 17  1  0
 15 18  1  0
 16 43  1  0
 16 44  1  0
 16 45  1  0
 17 46  1  0
 17 47  1  0
 17 48  1  0
 18 19  1  0
 18 21  1  0
 18 49  1  6
 19 20  2  0
 19 50  1  0
 21 25  1  0
 21 31  1  0
 21 22  1  6
 22 23  1  0
 22 51  1  0
 22 52  1  0
 23 24  1  0
 23 28  1  0
 23 53  1  6
 24 25  1  0
 24 54  1  0
 24 55  1  0
 25 26  1  0
 25 56  1  1
 26 27  1  0
 26 57  1  6
 27 58  1  0
 28 29  1  0
 28 30  1  0
 28 31  1  0
 29 59  1  0
 29 60  1  0
 29 61  1  0
 30 62  1  0
 30 63  1  0
 30 64  1  0
 31 65  1  6
M  END
>  <i_m_ct_stereo_status>  (40) 
1

>  <s_m_source_file>  (40) 
/var/tmp/pbs.5076255.sched01/tmpoa2zap1w/0_chicbso.sdf

>  <i_m_source_file_index>  (40) 
19

>  <i_lp_mmshare_version>  (40) 
48012

>  <i_f3d_flags>  (40) 
0

>  <s_epik_input>  (40) 
Tz1DKFtDQEBdMTIzKUMoPVtDSDJdKVtDQEBIXShbQ0gyXTIpW0NIMl1bQ0BdKFtPSF0pKE9bQ0gyXTEpW0NASF00W0NASF01W0NAXTYoW0NASF0oW0NIXT1PKUMoTzQpKFtDSDNdKVtDSDNdKVtDQEBIXShbQ0BIXTNbT0hdKVtDSDJdW0NAQEhdKFtDSDJdNilDNShbQ0gzXSlbQ0gzXQ==

>  <s_epik_cmdline>  (40) 
J2VwaWtfcHl0aG9uJywgJy1waHQnLCAnMi4wJywgJy1waCcsICc3LjAnLCAnLXRuJywgJzgnLCAnLW1hJywgJzIwMCcsICctaW1hZScsICc8aW5maWxlLm1hZT4nLCAnLW9tYWUnLCAnPG91dGZpbGUubWFlPic=

>  <r_lp_tautomer_probability>  (40) 
1

>  <r_epik_Ionization_Penalty>  (40) 
3.97349e-07

>  <r_epik_Ionization_Penalty_Charging>  (40) 
0

>  <r_epik_Ionization_Penalty_Neutral>  (40) 
3.97349e-07

>  <r_epik_State_Penalty>  (40) 
-0

>  <r_epik_Charging_Adjusted_Penalty>  (40) 
0

>  <i_epik_Tot_Q>  (40) 
0

>  <i_epik_Tot_abs_Q>  (40) 
0

>  <s_lp_Force_Field>  (40) 
OPLS3e

>  <r_lp_Energy>  (40) 
186.827

>  <b_lp_Chiralities_Consistent>  (40) 
1

>  <s_lp_Variant>  (40) 
15:0-1

>  <s_i_glide_gridfile>  (40) 
pfpi4k_grid

>  <i_i_glide_lignum>  (40) 
19

>  <i_i_glide_rotatable_bonds>  (40) 
3

>  <r_i_docking_score>  (40) 
-2.50161

>  <r_i_glide_ligand_efficiency>  (40) 
-0.080697

>  <r_i_glide_ligand_efficiency_sa>  (40) 
-0.2535

>  <r_i_glide_ligand_efficiency_ln>  (40) 
-0.564189

>  <r_i_glide_gscore>  (40) 
-2.50161

>  <r_i_glide_lipo>  (40) 
-0.478041

>  <r_i_glide_hbond>  (40) 
0

>  <r_i_glide_metal>  (40) 
-0

>  <r_i_glide_rewards>  (40) 
-0.484479

>  <r_i_glide_evdw>  (40) 
-25.4807

>  <r_i_glide_ecoul>  (40) 
-1.75105

>  <r_i_glide_erotb>  (40) 
0

>  <r_i_glide_esite>  (40) 
-0.00239532

>  <r_i_glide_emodel>  (40) 
-31.7793

>  <r_i_glide_energy>  (40) 
-27.2317

>  <r_i_glide_einternal>  (40) 
0.0679385

>  <r_i_glide_intrahb_reward>  (40) 
-0

>  <i_i_glide_confnum>  (40) 
1

>  <i_i_glide_posenum>  (40) 
5

>  <r_i_glide_eff_state_penalty>  (40) 
0

>  <ligand_id>  (40) 
15

>  <original_smiles>  (40) 
C=C1C(=O)C23COC(O)(CC1C2)C1OC(C)(C)C(C=O)C24CC(CC2C3O)C(C)(C)C14

>  <smiles>  (40) 
[H]OC1([H])C2([H])C([H])([H])C3([H])C([H])([H])C24C([H])(C([H])=O)C(C([H])([H])[H])(C([H])([H])[H])OC([H])(C2(O[H])OC([H])([H])C15C(=O)C(=C([H])[H])C([H])(C2([H])[H])C5([H])[H])C4([H])C3(C([H])([H])[H])C([H])([H])[H]

$$$$
16:0:0
     RDKit          3D

 52 58  0  0  1  0  0  0  0  0999 V2000
    3.7741   -1.9023   -2.5201 C   0  0  0  0  0  0  0  0  0  0  0  0
    4.1249   -2.8387   -1.3596 C   0  0  2  0  0  0  0  0  0  0  0  0
    5.0770   -3.8227   -1.8710 O   0  0  0  0  0  0  0  0  0  0  0  0
    6.2029   -3.1922   -1.1681 C   0  0  2  0  0  0  0  0  0  0  0  0
    6.8070   -3.5056    0.2594 C   0  0  2  0  0  0  0  0  0  0  0  0
    6.7800   -4.7340    1.0495 O   0  0  0  0  0  0  0  0  0  0  0  0
    5.3426   -4.6955    1.0253 C   0  0  1  0  0  0  0  0  0  0  0  0
    5.0135   -5.5985   -0.0252 O   0  0  0  0  0  0  0  0  0  0  0  0
    4.5420   -5.2062    2.2673 C   0  0  2  0  0  0  0  0  0  0  0  0
    5.4587   -6.0039    3.2164 C   0  0  0  0  0  0  0  0  0  0  0  0
    3.2556   -6.0075    1.9446 C   0  0  0  0  0  0  0  0  0  0  0  0
    3.2056   -7.2361    1.9814 O   0  0  0  0  0  0  0  0  0  0  0  0
    2.2406   -5.1849    1.6020 O   0  0  0  0  0  0  0  0  0  0  0  0
    2.4989   -3.8881    2.0272 C   0  0  2  0  0  0  0  0  0  0  0  0
    1.4460   -3.4748    2.8816 O   0  0  0  0  0  0  0  0  0  0  0  0
    2.4903   -2.9324    0.7498 C   0  0  0  0  0  0  0  0  0  0  0  0
    2.8756   -3.5139   -0.6767 C   0  0  1  0  0  0  0  0  0  0  0  0
    1.7381   -3.4520   -1.5014 O   0  0  0  0  0  0  0  0  0  0  0  0
    3.7854   -4.0474    2.9276 C   0  0  2  0  0  0  0  0  0  0  0  0
    4.5738   -2.7563    3.2771 C   0  0  2  0  0  0  0  0  0  0  0  0
    5.3967   -3.0807    4.3809 O   0  0  0  0  0  0  0  0  0  0  0  0
    3.7674   -1.5160    3.7383 C   0  0  1  0  0  0  0  0  0  0  0  0
    3.3678   -1.5728    5.0925 O   0  0  0  0  0  0  0  0  0  0  0  0
    4.6723   -0.3271    3.4158 C   0  0  0  0  0  0  0  0  0  0  0  0
    5.2823   -0.7386    2.0761 C   0  0  0  0  0  0  0  0  0  0  0  0
    5.5279   -2.2667    2.1705 C   0  0  2  0  0  0  0  0  0  0  0  0
    5.4792   -3.1104    0.8653 C   0  0  1  0  0  0  0  0  0  0  0  0
    5.1982   -2.3486   -0.4316 C   0  0  2  0  0  0  0  0  0  0  0  0
    3.0979   -1.1133   -2.1953 H   0  0  0  0  0  0  0  0  0  0  0  0
    3.3069   -2.4408   -3.3437 H   0  0  0  0  0  0  0  0  0  0  0  0
    4.6621   -1.4188   -2.9227 H   0  0  0  0  0  0  0  0  0  0  0  0
    6.8375   -2.5793   -1.8061 H   0  0  0  0  0  0  0  0  0  0  0  0
    7.6012   -2.8323    0.5614 H   0  0  0  0  0  0  0  0  0  0  0  0
    4.2576   -5.2620   -0.4818 H   0  0  0  0  0  0  0  0  0  0  0  0
    6.3365   -5.4215    3.4985 H   0  0  0  0  0  0  0  0  0  0  0  0
    5.8203   -6.9090    2.7263 H   0  0  0  0  0  0  0  0  0  0  0  0
    4.9411   -6.3006    4.1264 H   0  0  0  0  0  0  0  0  0  0  0  0
    1.5603   -2.5623    3.0957 H   0  0  0  0  0  0  0  0  0  0  0  0
    1.4664   -2.5747    0.6669 H   0  0  0  0  0  0  0  0  0  0  0  0
    3.0123   -2.0054    0.9651 H   0  0  0  0  0  0  0  0  0  0  0  0
    2.9789   -4.5922   -0.6504 H   0  0  0  0  0  0  0  0  0  0  0  0
    1.4446   -2.5338   -1.5174 H   0  0  0  0  0  0  0  0  0  0  0  0
    3.4107   -4.4321    3.8776 H   0  0  0  0  0  0  0  0  0  0  0  0
    4.8466   -3.4736    5.0435 H   0  0  0  0  0  0  0  0  0  0  0  0
    2.8711   -1.3888    3.1369 H   0  0  0  0  0  0  0  0  0  0  0  0
    4.1477   -1.5057    5.6303 H   0  0  0  0  0  0  0  0  0  0  0  0
    4.1093    0.6040    3.3477 H   0  0  0  0  0  0  0  0  0  0  0  0
    5.4528   -0.1954    4.1680 H   0  0  0  0  0  0  0  0  0  0  0  0
    4.5531   -0.4691    1.3173 H   0  0  0  0  0  0  0  0  0  0  0  0
    6.2004   -0.1987    1.8589 H   0  0  0  0  0  0  0  0  0  0  0  0
    6.5514   -2.3458    2.5262 H   0  0  0  0  0  0  0  0  0  0  0  0
    5.4487   -1.2965   -0.4948 H   0  0  0  0  0  0  0  0  0  0  0  0
  2  1  1  6
  1 29  1  0
  1 30  1  0
  1 31  1  0
  2 17  1  0
  2 28  1  0
  2  3  1  0
  3  4  1  0
  4 28  1  0
  4  5  1  0
  4 32  1  6
  5 27  1  0
  5  6  1  0
  5 33  1  1
  6  7  1  0
 27  7  1  1
  7  8  1  6
  7  9  1  0
  8 34  1  0
  9 19  1  0
  9 10  1  1
  9 11  1  0
 10 35  1  0
 10 36  1  0
 10 37  1  0
 11 12  2  0
 11 13  1  0
 13 14  1  0
 14 15  1  1
 14 16  1  0
 14 19  1  0
 15 38  1  0
 16 17  1  0
 16 39  1  0
 16 40  1  0
 17 18  1  0
 17 41  1  1
 18 42  1  0
 19 20  1  0
 19 43  1  1
 20 26  1  0
 20 21  1  1
 20 22  1  0
 21 44  1  0
 22 23  1  0
 22 24  1  0
 22 45  1  6
 23 46  1  0
 24 25  1  0
 24 47  1  0
 24 48  1  0
 25 26  1  0
 25 49  1  0
 25 50  1  0
 26 27  1  0
 26 51  1  1
 27 28  1  0
 28 52  1  1
M  END
>  <i_m_ct_stereo_status>  (41) 
1

>  <s_m_source_file>  (41) 
/var/tmp/pbs.5076255.sched01/tmpoa2zap1w/0_chicbso.sdf

>  <i_m_source_file_index>  (41) 
20

>  <i_lp_mmshare_version>  (41) 
48012

>  <i_f3d_flags>  (41) 
0

>  <s_epik_input>  (41) 
W0NAXTEyM1tDQEBIXTRbQ0BASF01W0NASF0zW0NAXShPNSkoW0NIM10pW0NASF0oW09IXSlbQ0gyXVtDQF02KFtPSF0pW0NAQEhdKFtDQEBdKFtDSDNdKShDKD1PKU82KVtDQEBdMShPNClbT0hdKVtDQEBdNyhbT0hdKVtDQEBIXTJbQ0gyXVtDSDJdW0NAQEhdN1tPSF0=

>  <s_epik_cmdline>  (41) 
J2VwaWtfcHl0aG9uJywgJy1waHQnLCAnMi4wJywgJy1waCcsICc3LjAnLCAnLXRuJywgJzgnLCAnLW1hJywgJzIwMCcsICctaW1hZScsICc8aW5maWxlLm1hZT4nLCAnLW9tYWUnLCAnPG91dGZpbGUubWFlPic=

>  <r_lp_tautomer_probability>  (41) 
1

>  <r_epik_Ionization_Penalty>  (41) 
1.81518e-05

>  <r_epik_Ionization_Penalty_Charging>  (41) 
0

>  <r_epik_Ionization_Penalty_Neutral>  (41) 
1.81518e-05

>  <r_epik_State_Penalty>  (41) 
-0

>  <r_epik_Charging_Adjusted_Penalty>  (41) 
0

>  <i_epik_Tot_Q>  (41) 
0

>  <i_epik_Tot_abs_Q>  (41) 
0

>  <s_epik_Chemistry_Notes>  (41) 
This compound has an ester and may undergo hydrolysis at high or low pH.

>  <s_lp_Force_Field>  (41) 
OPLS3e

>  <r_lp_Energy>  (41) 
105.207

>  <b_lp_Chiralities_Consistent>  (41) 
1

>  <s_lp_Variant>  (41) 
16:0-1

>  <s_i_glide_gridfile>  (41) 
pfpi4k_grid

>  <i_i_glide_lignum>  (41) 
20

>  <i_i_glide_rotatable_bonds>  (41) 
5

>  <r_i_docking_score>  (41) 
-2.68291

>  <r_i_glide_ligand_efficiency>  (41) 
-0.0958182

>  <r_i_glide_ligand_efficiency_sa>  (41) 
-0.290961

>  <r_i_glide_ligand_efficiency_ln>  (41) 
-0.619295

>  <r_i_glide_gscore>  (41) 
-2.68291

>  <r_i_glide_lipo>  (41) 
-0.565928

>  <r_i_glide_hbond>  (41) 
0

>  <r_i_glide_metal>  (41) 
-0

>  <r_i_glide_rewards>  (41) 
-0.808929

>  <r_i_glide_evdw>  (41) 
-18.1301

>  <r_i_glide_ecoul>  (41) 
-2.6159

>  <r_i_glide_erotb>  (41) 
0

>  <r_i_glide_esite>  (41) 
-0.00916463

>  <r_i_glide_emodel>  (41) 
-23.1664

>  <r_i_glide_energy>  (41) 
-20.746

>  <r_i_glide_einternal>  (41) 
2.38091

>  <r_i_glide_intrahb_reward>  (41) 
-0

>  <i_i_glide_confnum>  (41) 
1

>  <i_i_glide_posenum>  (41) 
40

>  <r_i_glide_eff_state_penalty>  (41) 
0

>  <ligand_id>  (41) 
16

>  <original_smiles>  (41) 
CC12OC3C4OC5(O)C6(C)C(=O)OC(O)(CC1O)C6C1(O)C(O)CCC1C45C32

>  <smiles>  (41) 
[H]OC1([H])C([H])([H])C2(O[H])OC(=O)C3(C([H])([H])[H])C4(O[H])OC5([H])C6([H])OC1(C([H])([H])[H])C6([H])C54C1([H])C([H])([H])C([H])([H])C([H])(O[H])C1(O[H])C23[H]

$$$$
16:0:1
     RDKit          3D

 52 58  0  0  1  0  0  0  0  0999 V2000
    4.8913   -0.7471   -2.4572 C   0  0  0  0  0  0  0  0  0  0  0  0
    5.0026   -1.9834   -1.5784 C   0  0  2  0  0  0  0  0  0  0  0  0
    5.8550   -2.9750   -2.2613 O   0  0  0  0  0  0  0  0  0  0  0  0
    6.9712   -2.7856   -1.3099 C   0  0  2  0  0  0  0  0  0  0  0  0
    7.3144   -3.4993    0.0692 C   0  0  2  0  0  0  0  0  0  0  0  0
    6.9546   -4.8480    0.5208 O   0  0  0  0  0  0  0  0  0  0  0  0
    5.5688   -4.4718    0.4402 C   0  0  1  0  0  0  0  0  0  0  0  0
    5.1546   -4.9570   -0.8061 O   0  0  0  0  0  0  0  0  0  0  0  0
    4.5418   -5.0498    1.4635 C   0  0  2  0  0  0  0  0  0  0  0  0
    5.1621   -6.2168    2.2436 C   0  0  0  0  0  0  0  0  0  0  0  0
    3.1803   -5.4630    0.8885 C   0  0  0  0  0  0  0  0  0  0  0  0
    2.8710   -6.6432    0.7267 O   0  0  0  0  0  0  0  0  0  0  0  0
    2.3859   -4.4129    0.6334 O   0  0  0  0  0  0  0  0  0  0  0  0
    2.8445   -3.2998    1.3385 C   0  0  2  0  0  0  0  0  0  0  0  0
    1.8584   -2.7970    2.1973 O   0  0  0  0  0  0  0  0  0  0  0  0
    3.1936   -2.1330    0.3160 C   0  0  0  0  0  0  0  0  0  0  0  0
    3.5929   -2.5049   -1.1790 C   0  0  1  0  0  0  0  0  0  0  0  0
    2.6417   -2.0446   -2.1003 O   0  0  0  0  0  0  0  0  0  0  0  0
    3.9185   -3.9150    2.2749 C   0  0  2  0  0  0  0  0  0  0  0  0
    4.8517   -2.9325    2.9774 C   0  0  2  0  0  0  0  0  0  0  0  0
    5.4163   -3.6893    4.0391 O   0  0  0  0  0  0  0  0  0  0  0  0
    4.2526   -1.6676    3.6449 C   0  0  1  0  0  0  0  0  0  0  0  0
    3.7139   -1.8883    4.9330 O   0  0  0  0  0  0  0  0  0  0  0  0
    5.4004   -0.6680    3.6752 C   0  0  0  0  0  0  0  0  0  0  0  0
    6.0873   -0.9395    2.3365 C   0  0  0  0  0  0  0  0  0  0  0  0
    5.9899   -2.4507    2.0794 C   0  0  2  0  0  0  0  0  0  0  0  0
    6.0078   -2.9713    0.6357 C   0  0  1  0  0  0  0  0  0  0  0  0
    6.0483   -1.9202   -0.4830 C   0  0  2  0  0  0  0  0  0  0  0  0
    4.2947    0.0571   -2.0194 H   0  0  0  0  0  0  0  0  0  0  0  0
    4.5523   -0.9911   -3.4746 H   0  0  0  0  0  0  0  0  0  0  0  0
    5.8380   -0.2912   -2.4934 H   0  0  0  0  0  0  0  0  0  0  0  0
    7.8187   -2.2279   -1.7182 H   0  0  0  0  0  0  0  0  0  0  0  0
    8.1836   -3.0736    0.5823 H   0  0  0  0  0  0  0  0  0  0  0  0
    5.3211   -5.8750   -0.8298 H   0  0  0  0  0  0  0  0  0  0  0  0
    6.1001   -5.9252    2.7136 H   0  0  0  0  0  0  0  0  0  0  0  0
    5.3916   -7.0530    1.5737 H   0  0  0  0  0  0  0  0  0  0  0  0
    4.4746   -6.5791    3.0057 H   0  0  0  0  0  0  0  0  0  0  0  0
    1.1874   -2.3579    1.6741 H   0  0  0  0  0  0  0  0  0  0  0  0
    2.2717   -1.5875    0.2792 H   0  0  0  0  0  0  0  0  0  0  0  0
    3.8565   -1.3955    0.7590 H   0  0  0  0  0  0  0  0  0  0  0  0
    3.4853   -3.5490   -1.4071 H   0  0  0  0  0  0  0  0  0  0  0  0
    1.9001   -1.6328   -1.6094 H   0  0  0  0  0  0  0  0  0  0  0  0
    3.3519   -4.4197    3.0616 H   0  0  0  0  0  0  0  0  0  0  0  0
    5.7134   -4.5009    3.6814 H   0  0  0  0  0  0  0  0  0  0  0  0
    3.4924   -1.2190    3.0146 H   0  0  0  0  0  0  0  0  0  0  0  0
    4.4111   -2.2563    5.4607 H   0  0  0  0  0  0  0  0  0  0  0  0
    5.0461    0.3583    3.7618 H   0  0  0  0  0  0  0  0  0  0  0  0
    6.0746   -0.8339    4.5143 H   0  0  0  0  0  0  0  0  0  0  0  0
    5.5797   -0.3200    1.5947 H   0  0  0  0  0  0  0  0  0  0  0  0
    7.1408   -0.6852    2.3799 H   0  0  0  0  0  0  0  0  0  0  0  0
    6.8916   -2.8764    2.4704 H   0  0  0  0  0  0  0  0  0  0  0  0
    6.5120   -0.9565   -0.2806 H   0  0  0  0  0  0  0  0  0  0  0  0
  2  1  1  6
  1 29  1  0
  1 30  1  0
  1 31  1  0
  2 17  1  0
  2 28  1  0
  2  3  1  0
  3  4  1  0
  4 28  1  0
  4  5  1  0
  4 32  1  6
  5 27  1  0
  5  6  1  0
  5 33  1  1
  6  7  1  0
 27  7  1  6
  7  8  1  6
  7  9  1  0
  8 34  1  0
  9 19  1  0
  9 10  1  1
  9 11  1  0
 10 35  1  0
 10 36  1  0
 10 37  1  0
 11 12  2  0
 11 13  1  0
 13 14  1  0
 14 15  1  1
 14 16  1  0
 14 19  1  0
 15 38  1  0
 16 17  1  0
 16 39  1  0
 16 40  1  0
 17 18  1  0
 17 41  1  1
 18 42  1  0
 19 20  1  0
 19 43  1  1
 20 26  1  0
 20 21  1  1
 20 22  1  0
 21 44  1  0
 22 23  1  0
 22 24  1  0
 22 45  1  6
 23 46  1  0
 24 25  1  0
 24 47  1  0
 24 48  1  0
 25 26  1  0
 25 49  1  0
 25 50  1  0
 26 27  1  0
 26 51  1  1
 27 28  1  0
 28 52  1  1
M  END
>  <i_m_ct_stereo_status>  (42) 
1

>  <s_m_source_file>  (42) 
/var/tmp/pbs.5076255.sched01/tmpoa2zap1w/0_chicbso.sdf

>  <i_m_source_file_index>  (42) 
20

>  <i_lp_mmshare_version>  (42) 
48012

>  <i_f3d_flags>  (42) 
0

>  <s_epik_input>  (42) 
W0NAXTEyM1tDQEBIXTRbQ0BASF01W0NASF0zW0NAXShPNSkoW0NIM10pW0NASF0oW09IXSlbQ0gyXVtDQF02KFtPSF0pW0NAQEhdKFtDQEBdKFtDSDNdKShDKD1PKU82KVtDQEBdMShPNClbT0hdKVtDQEBdNyhbT0hdKVtDQEBIXTJbQ0gyXVtDSDJdW0NAQEhdN1tPSF0=

>  <s_epik_cmdline>  (42) 
J2VwaWtfcHl0aG9uJywgJy1waHQnLCAnMi4wJywgJy1waCcsICc3LjAnLCAnLXRuJywgJzgnLCAnLW1hJywgJzIwMCcsICctaW1hZScsICc8aW5maWxlLm1hZT4nLCAnLW9tYWUnLCAnPG91dGZpbGUubWFlPic=

>  <r_lp_tautomer_probability>  (42) 
1

>  <r_epik_Ionization_Penalty>  (42) 
1.81518e-05

>  <r_epik_Ionization_Penalty_Charging>  (42) 
0

>  <r_epik_Ionization_Penalty_Neutral>  (42) 
1.81518e-05

>  <r_epik_State_Penalty>  (42) 
-0

>  <r_epik_Charging_Adjusted_Penalty>  (42) 
0

>  <i_epik_Tot_Q>  (42) 
0

>  <i_epik_Tot_abs_Q>  (42) 
0

>  <s_epik_Chemistry_Notes>  (42) 
This compound has an ester and may undergo hydrolysis at high or low pH.

>  <s_lp_Force_Field>  (42) 
OPLS3e

>  <r_lp_Energy>  (42) 
105.207

>  <b_lp_Chiralities_Consistent>  (42) 
1

>  <s_lp_Variant>  (42) 
16:0-1

>  <s_i_glide_gridfile>  (42) 
pfpi4k_grid

>  <i_i_glide_lignum>  (42) 
20

>  <i_i_glide_rotatable_bonds>  (42) 
5

>  <r_i_docking_score>  (42) 
-2.64315

>  <r_i_glide_ligand_efficiency>  (42) 
-0.0943981

>  <r_i_glide_ligand_efficiency_sa>  (42) 
-0.286648

>  <r_i_glide_ligand_efficiency_ln>  (42) 
-0.610116

>  <r_i_glide_gscore>  (42) 
-2.64315

>  <r_i_glide_lipo>  (42) 
-0.545364

>  <r_i_glide_hbond>  (42) 
0

>  <r_i_glide_metal>  (42) 
-0

>  <r_i_glide_rewards>  (42) 
-0.812137

>  <r_i_glide_evdw>  (42) 
-5.62427

>  <r_i_glide_ecoul>  (42) 
-6.58365

>  <r_i_glide_erotb>  (42) 
0

>  <r_i_glide_esite>  (42) 
-0.0168853

>  <r_i_glide_emodel>  (42) 
-13.6422

>  <r_i_glide_energy>  (42) 
-12.2079

>  <r_i_glide_einternal>  (42) 
2.16703

>  <r_i_glide_intrahb_reward>  (42) 
-0

>  <i_i_glide_confnum>  (42) 
1

>  <i_i_glide_posenum>  (42) 
10

>  <r_i_glide_eff_state_penalty>  (42) 
0

>  <ligand_id>  (42) 
16

>  <original_smiles>  (42) 
CC12OC3C4OC5(O)C6(C)C(=O)OC(O)(CC1O)C6C1(O)C(O)CCC1C45C32

>  <smiles>  (42) 
[H]OC1([H])C([H])([H])C2(O[H])OC(=O)C3(C([H])([H])[H])C4(O[H])OC5([H])C6([H])OC1(C([H])([H])[H])C6([H])C54C1([H])C([H])([H])C([H])([H])C([H])(O[H])C1(O[H])C23[H]

$$$$
17:0:0
     RDKit          3D

 56 60  0  0  1  0  0  0  0  0999 V2000
    7.4750   -7.3857    2.5518 C   0  0  0  0  0  0  0  0  0  0  0  0
    6.5323   -6.5943    2.0353 C   0  0  0  0  0  0  0  0  0  0  0  0
    5.0803   -6.5126    2.5053 C   0  0  0  0  0  0  0  0  0  0  0  0
    4.4128   -5.6840    1.3916 C   0  0  1  0  0  0  0  0  0  0  0  0
    4.1339   -6.6990    0.4368 O   0  0  0  0  0  0  0  0  0  0  0  0
    3.1458   -4.8652    1.6981 C   0  0  1  0  0  0  0  0  0  0  0  0
    3.3648   -3.8739    2.8615 C   0  0  0  0  0  0  0  0  0  0  0  0
    2.4497   -3.6321    3.6428 O   0  0  0  0  0  0  0  0  0  0  0  0
    4.7082   -3.1348    2.9648 C   0  0  1  0  0  0  0  0  0  0  0  0
    5.1961   -2.9902    4.4288 C   0  0  0  0  0  0  0  0  0  0  0  0
    5.8247   -3.9406    5.1509 C   0  0  0  0  0  0  0  0  0  0  0  0
    4.9724   -1.6297    5.0503 C   0  0  0  0  0  0  0  0  0  0  0  0
    5.7951   -3.6085    1.9692 C   0  0  0  0  0  0  0  0  0  0  0  0
    5.5015   -4.7105    0.8987 C   0  0  1  0  0  0  0  0  0  0  0  0
    6.7413   -5.6435    0.8782 C   0  0  0  0  0  0  0  0  0  0  0  0
    5.0790   -4.1401   -0.4880 C   0  0  2  0  0  0  0  0  0  0  0  0
    6.1769   -3.3858   -1.2814 C   0  0  0  0  0  0  0  0  0  0  0  0
    6.0555   -1.8576   -1.2671 C   0  0  0  0  0  0  0  0  0  0  0  0
    4.6062   -1.3684   -1.3715 C   0  0  2  0  0  0  0  0  0  0  0  0
    3.8617   -1.9152   -0.1624 C   0  0  0  0  0  0  0  0  0  0  0  0
    3.6810   -3.4171   -0.5100 C   0  0  1  0  0  0  0  0  0  0  0  0
    3.1866   -3.2443   -1.9770 C   0  0  0  0  0  0  0  0  0  0  0  0
    3.8862   -2.0272   -2.5152 C   0  0  0  0  0  0  0  0  0  0  0  0
    3.8194   -1.5832   -3.7724 C   0  0  0  0  0  0  0  0  0  0  0  0
    2.6159   -4.1342    0.4114 C   0  0  1  0  0  0  0  0  0  0  0  0
    1.8159   -5.0615   -0.2938 O   0  0  0  0  0  0  0  0  0  0  0  0
    8.4784   -7.4013    2.1505 H   0  0  0  0  0  0  0  0  0  0  0  0
    7.2609   -8.0342    3.3851 H   0  0  0  0  0  0  0  0  0  0  0  0
    4.6387   -7.5068    2.6796 H   0  0  0  0  0  0  0  0  0  0  0  0
    5.0045   -5.9748    3.4269 H   0  0  0  0  0  0  0  0  0  0  0  0
    3.8348   -6.2922   -0.3474 H   0  0  0  0  0  0  0  0  0  0  0  0
    2.3628   -5.5463    2.0391 H   0  0  0  0  0  0  0  0  0  0  0  0
    4.4483   -2.1165    2.6988 H   0  0  0  0  0  0  0  0  0  0  0  0
    6.1004   -4.9188    4.8005 H   0  0  0  0  0  0  0  0  0  0  0  0
    6.1133   -3.7176    6.1832 H   0  0  0  0  0  0  0  0  0  0  0  0
    3.9185   -1.3671    5.0845 H   0  0  0  0  0  0  0  0  0  0  0  0
    5.5135   -0.8828    4.4761 H   0  0  0  0  0  0  0  0  0  0  0  0
    5.3685   -1.6124    6.0662 H   0  0  0  0  0  0  0  0  0  0  0  0
    6.2288   -2.7346    1.4914 H   0  0  0  0  0  0  0  0  0  0  0  0
    6.6092   -4.0010    2.5559 H   0  0  0  0  0  0  0  0  0  0  0  0
    7.7038   -5.1277    0.9271 H   0  0  0  0  0  0  0  0  0  0  0  0
    6.7365   -6.2571   -0.0096 H   0  0  0  0  0  0  0  0  0  0  0  0
    4.9540   -5.0238   -1.1153 H   0  0  0  0  0  0  0  0  0  0  0  0
    7.1616   -3.6479   -0.9043 H   0  0  0  0  0  0  0  0  0  0  0  0
    6.1591   -3.7279   -2.3202 H   0  0  0  0  0  0  0  0  0  0  0  0
    6.5285   -1.4405   -0.3767 H   0  0  0  0  0  0  0  0  0  0  0  0
    6.6008   -1.4927   -2.1284 H   0  0  0  0  0  0  0  0  0  0  0  0
    4.5530   -0.2831   -1.4549 H   0  0  0  0  0  0  0  0  0  0  0  0
    4.3919   -1.6952    0.7483 H   0  0  0  0  0  0  0  0  0  0  0  0
    2.8933   -1.4220   -0.0954 H   0  0  0  0  0  0  0  0  0  0  0  0
    3.4311   -4.0746   -2.6274 H   0  0  0  0  0  0  0  0  0  0  0  0
    2.1131   -3.0501   -2.0233 H   0  0  0  0  0  0  0  0  0  0  0  0
    4.3268   -0.6772   -4.0742 H   0  0  0  0  0  0  0  0  0  0  0  0
    3.2320   -2.1085   -4.5143 H   0  0  0  0  0  0  0  0  0  0  0  0
    1.9183   -3.3644    0.7295 H   0  0  0  0  0  0  0  0  0  0  0  0
    2.3052   -5.4108   -1.0468 H   0  0  0  0  0  0  0  0  0  0  0  0
  1  2  2  0
  1 27  1  0
  1 28  1  0
  2 15  1  0
  2  3  1  0
  3  4  1  0
  3 29  1  0
  3 30  1  0
  4 14  1  0
  4  5  1  6
  4  6  1  0
  5 31  1  0
  6 25  1  0
  6  7  1  0
  6 32  1  1
  7  8  2  0
  7  9  1  0
  9 10  1  0
  9 13  1  0
  9 33  1  6
 10 11  2  0
 10 12  1  0
 11 34  1  0
 11 35  1  0
 12 36  1  0
 12 37  1  0
 12 38  1  0
 14 13  1  1
 13 39  1  0
 13 40  1  0
 14 15  1  0
 14 16  1  0
 15 41  1  0
 15 42  1  0
 16 21  1  0
 16 17  1  0
 16 43  1  6
 17 18  1  0
 17 44  1  0
 17 45  1  0
 18 19  1  0
 18 46  1  0
 18 47  1  0
 19 23  1  0
 19 20  1  0
 19 48  1  6
 20 21  1  0
 20 49  1  0
 20 50  1  0
 21 22  1  6
 21 25  1  0
 22 23  1  0
 22 51  1  0
 22 52  1  0
 23 24  2  0
 24 53  1  0
 24 54  1  0
 25 26  1  0
 25 55  1  1
 26 56  1  0
M  END
>  <i_m_ct_stereo_status>  (43) 
1

>  <s_m_source_file>  (43) 
/var/tmp/pbs.5076255.sched01/tmpoa2zap1w/0_chicbso.sdf

>  <i_m_source_file_index>  (43) 
21

>  <i_lp_mmshare_version>  (43) 
48012

>  <i_f3d_flags>  (43) 
0

>  <s_epik_input>  (43) 
W0NIMl09QyhbQ0gyXTEpW0NIMl1bQ0BAXShbQ0BdMTIzKShbT0hdKVtDQEBIXShDKD1PKVtDQEhdKFtDSDJdMilDKD1bQ0gyXSlbQ0gzXSlbQ0BIXShbT0hdKVtDQF00NVtDQEhdM1tDSDJdW0NIMl1bQ0BIXShbQ0gyXTQpQyhbQ0gyXTUpPVtDSDJd

>  <s_epik_cmdline>  (43) 
J2VwaWtfcHl0aG9uJywgJy1waHQnLCAnMi4wJywgJy1waCcsICc3LjAnLCAnLXRuJywgJzgnLCAnLW1hJywgJzIwMCcsICctaW1hZScsICc8aW5maWxlLm1hZT4nLCAnLW9tYWUnLCAnPG91dGZpbGUubWFlPic=

>  <r_lp_tautomer_probability>  (43) 
1

>  <r_epik_Ionization_Penalty>  (43) 
9.75411e-08

>  <r_epik_Ionization_Penalty_Charging>  (43) 
0

>  <r_epik_Ionization_Penalty_Neutral>  (43) 
9.75411e-08

>  <r_epik_State_Penalty>  (43) 
-0

>  <r_epik_Charging_Adjusted_Penalty>  (43) 
0

>  <i_epik_Tot_Q>  (43) 
0

>  <i_epik_Tot_abs_Q>  (43) 
0

>  <s_lp_Force_Field>  (43) 
OPLS3e

>  <r_lp_Energy>  (43) 
57.813

>  <b_lp_Chiralities_Consistent>  (43) 
1

>  <s_lp_Variant>  (43) 
17:0-1

>  <s_i_glide_gridfile>  (43) 
pfpi4k_grid

>  <i_i_glide_lignum>  (43) 
21

>  <i_i_glide_rotatable_bonds>  (43) 
3

>  <r_i_docking_score>  (43) 
-3.70686

>  <r_i_glide_ligand_efficiency>  (43) 
-0.142571

>  <r_i_glide_ligand_efficiency_sa>  (43) 
-0.422367

>  <r_i_glide_ligand_efficiency_ln>  (43) 
-0.870543

>  <r_i_glide_gscore>  (43) 
-3.70686

>  <r_i_glide_lipo>  (43) 
-0.805266

>  <r_i_glide_hbond>  (43) 
0

>  <r_i_glide_metal>  (43) 
-0

>  <r_i_glide_rewards>  (43) 
-0.992404

>  <r_i_glide_evdw>  (43) 
-21.0129

>  <r_i_glide_ecoul>  (43) 
-6.73744

>  <r_i_glide_erotb>  (43) 
0.152074

>  <r_i_glide_esite>  (43) 
0

>  <r_i_glide_emodel>  (43) 
-32.9592

>  <r_i_glide_energy>  (43) 
-27.7503

>  <r_i_glide_einternal>  (43) 
0.925009

>  <r_i_glide_intrahb_reward>  (43) 
-0

>  <i_i_glide_confnum>  (43) 
1

>  <i_i_glide_posenum>  (43) 
3

>  <r_i_glide_eff_state_penalty>  (43) 
0

>  <ligand_id>  (43) 
17

>  <original_smiles>  (43) 
C=C1CC2(O)C3C(=O)C(C(=C)C)CC2(C1)C1CCC2CC1(CC2=C)C3O

>  <smiles>  (43) 
[H]OC1([H])C2([H])C(=O)C([H])(C(=C([H])[H])C([H])([H])[H])C([H])([H])C3(C([H])([H])C(=C([H])[H])C([H])([H])C23O[H])C2([H])C([H])([H])C([H])([H])C3([H])C(=C([H])[H])C([H])([H])C12C3([H])[H]

$$$$
17:0:1
     RDKit          3D

 56 60  0  0  1  0  0  0  0  0999 V2000
    7.4122   -7.0040    2.9022 C   0  0  0  0  0  0  0  0  0  0  0  0
    6.4698   -6.2874    2.2711 C   0  0  0  0  0  0  0  0  0  0  0  0
    5.0121   -6.1907    2.6964 C   0  0  0  0  0  0  0  0  0  0  0  0
    4.3748   -5.4477    1.5136 C   0  0  1  0  0  0  0  0  0  0  0  0
    4.1163   -6.5368    0.6352 O   0  0  0  0  0  0  0  0  0  0  0  0
    3.0977   -4.5950    1.7138 C   0  0  1  0  0  0  0  0  0  0  0  0
    3.2642   -3.4862    2.7815 C   0  0  0  0  0  0  0  0  0  0  0  0
    2.3280   -3.1933    3.5310 O   0  0  0  0  0  0  0  0  0  0  0  0
    4.6062   -2.7408    2.8696 C   0  0  1  0  0  0  0  0  0  0  0  0
    5.0623   -2.5078    4.3261 C   0  0  0  0  0  0  0  0  0  0  0  0
    5.1820   -1.2753    4.8456 C   0  0  0  0  0  0  0  0  0  0  0  0
    5.3916   -3.6948    5.2188 C   0  0  0  0  0  0  0  0  0  0  0  0
    5.7341   -3.2922    1.9366 C   0  0  0  0  0  0  0  0  0  0  0  0
    5.4722   -4.5072    0.9761 C   0  0  1  0  0  0  0  0  0  0  0  0
    6.7100   -5.4352    1.0484 C   0  0  0  0  0  0  0  0  0  0  0  0
    5.0839   -4.0669   -0.4749 C   0  0  2  0  0  0  0  0  0  0  0  0
    6.1974   -3.3697   -1.2905 C   0  0  0  0  0  0  0  0  0  0  0  0
    6.0656   -1.8540   -1.4179 C   0  0  0  0  0  0  0  0  0  0  0  0
    4.6227   -1.3742   -1.5967 C   0  0  2  0  0  0  0  0  0  0  0  0
    3.8494   -1.8161   -0.3644 C   0  0  0  0  0  0  0  0  0  0  0  0
    3.6941   -3.3430   -0.5895 C   0  0  1  0  0  0  0  0  0  0  0  0
    3.2428   -3.3045   -2.0764 C   0  0  0  0  0  0  0  0  0  0  0  0
    3.9327   -2.1288   -2.6913 C   0  0  0  0  0  0  0  0  0  0  0  0
    3.8966   -1.7999   -3.9945 C   0  0  0  0  0  0  0  0  0  0  0  0
    2.6124   -4.0022    0.3454 C   0  0  1  0  0  0  0  0  0  0  0  0
    1.8837   -5.0355   -0.3122 O   0  0  0  0  0  0  0  0  0  0  0  0
    8.4276   -7.0116    2.5502 H   0  0  0  0  0  0  0  0  0  0  0  0
    7.1595   -7.5585    3.7848 H   0  0  0  0  0  0  0  0  0  0  0  0
    4.5651   -7.1793    2.9074 H   0  0  0  0  0  0  0  0  0  0  0  0
    4.9378   -5.5766    3.6000 H   0  0  0  0  0  0  0  0  0  0  0  0
    3.7684   -6.1938   -0.1661 H   0  0  0  0  0  0  0  0  0  0  0  0
    2.3023   -5.2375    2.0953 H   0  0  0  0  0  0  0  0  0  0  0  0
    4.3611   -1.7305    2.5354 H   0  0  0  0  0  0  0  0  0  0  0  0
    4.9667   -0.3784    4.2821 H   0  0  0  0  0  0  0  0  0  0  0  0
    5.5163   -1.1818    5.8699 H   0  0  0  0  0  0  0  0  0  0  0  0
    6.2315   -4.2517    4.8122 H   0  0  0  0  0  0  0  0  0  0  0  0
    4.5296   -4.3500    5.3271 H   0  0  0  0  0  0  0  0  0  0  0  0
    5.6753   -3.3908    6.2305 H   0  0  0  0  0  0  0  0  0  0  0  0
    6.1543   -2.4516    1.3879 H   0  0  0  0  0  0  0  0  0  0  0  0
    6.5583   -3.6095    2.5578 H   0  0  0  0  0  0  0  0  0  0  0  0
    7.6600   -4.9015    1.0941 H   0  0  0  0  0  0  0  0  0  0  0  0
    6.7469   -6.1050    0.1904 H   0  0  0  0  0  0  0  0  0  0  0  0
    4.9769   -4.9989   -1.0230 H   0  0  0  0  0  0  0  0  0  0  0  0
    7.1690   -3.5808   -0.8609 H   0  0  0  0  0  0  0  0  0  0  0  0
    6.2056   -3.8020   -2.2989 H   0  0  0  0  0  0  0  0  0  0  0  0
    6.5060   -1.3681   -0.5448 H   0  0  0  0  0  0  0  0  0  0  0  0
    6.6344   -1.5775   -2.2970 H   0  0  0  0  0  0  0  0  0  0  0  0
    4.5682   -0.3008   -1.7824 H   0  0  0  0  0  0  0  0  0  0  0  0
    4.3617   -1.5091    0.5371 H   0  0  0  0  0  0  0  0  0  0  0  0
    2.8827   -1.3181   -0.3659 H   0  0  0  0  0  0  0  0  0  0  0  0
    3.5388   -4.1810   -2.6386 H   0  0  0  0  0  0  0  0  0  0  0  0
    2.1722   -3.1340   -2.1800 H   0  0  0  0  0  0  0  0  0  0  0  0
    4.4129   -0.9243   -4.3528 H   0  0  0  0  0  0  0  0  0  0  0  0
    3.3295   -2.4075   -4.6811 H   0  0  0  0  0  0  0  0  0  0  0  0
    1.8974   -3.2161    0.5665 H   0  0  0  0  0  0  0  0  0  0  0  0
    2.3130   -5.2688   -1.1425 H   0  0  0  0  0  0  0  0  0  0  0  0
  1  2  2  0
  1 27  1  0
  1 28  1  0
  2 15  1  0
  2  3  1  0
  3  4  1  0
  3 29  1  0
  3 30  1  0
  4 14  1  0
  4  5  1  6
  4  6  1  0
  5 31  1  0
  6 25  1  0
  6  7  1  0
  6 32  1  1
  7  8  2  0
  7  9  1  0
  9 10  1  0
  9 13  1  0
  9 33  1  6
 10 11  2  0
 10 12  1  0
 11 34  1  0
 11 35  1  0
 12 36  1  0
 12 37  1  0
 12 38  1  0
 14 13  1  1
 13 39  1  0
 13 40  1  0
 14 15  1  0
 14 16  1  0
 15 41  1  0
 15 42  1  0
 16 21  1  0
 16 17  1  0
 16 43  1  6
 17 18  1  0
 17 44  1  0
 17 45  1  0
 18 19  1  0
 18 46  1  0
 18 47  1  0
 19 23  1  0
 19 20  1  0
 19 48  1  6
 20 21  1  0
 20 49  1  0
 20 50  1  0
 21 22  1  6
 21 25  1  0
 22 23  1  0
 22 51  1  0
 22 52  1  0
 23 24  2  0
 24 53  1  0
 24 54  1  0
 25 26  1  0
 25 55  1  1
 26 56  1  0
M  END
>  <i_m_ct_stereo_status>  (44) 
1

>  <s_m_source_file>  (44) 
/var/tmp/pbs.5076255.sched01/tmpoa2zap1w/0_chicbso.sdf

>  <i_m_source_file_index>  (44) 
21

>  <i_lp_mmshare_version>  (44) 
48012

>  <i_f3d_flags>  (44) 
0

>  <s_epik_input>  (44) 
W0NIMl09QyhbQ0gyXTEpW0NIMl1bQ0BAXShbQ0BdMTIzKShbT0hdKVtDQEBIXShDKD1PKVtDQEhdKFtDSDJdMilDKD1bQ0gyXSlbQ0gzXSlbQ0BIXShbT0hdKVtDQF00NVtDQEhdM1tDSDJdW0NIMl1bQ0BIXShbQ0gyXTQpQyhbQ0gyXTUpPVtDSDJd

>  <s_epik_cmdline>  (44) 
J2VwaWtfcHl0aG9uJywgJy1waHQnLCAnMi4wJywgJy1waCcsICc3LjAnLCAnLXRuJywgJzgnLCAnLW1hJywgJzIwMCcsICctaW1hZScsICc8aW5maWxlLm1hZT4nLCAnLW9tYWUnLCAnPG91dGZpbGUubWFlPic=

>  <r_lp_tautomer_probability>  (44) 
1

>  <r_epik_Ionization_Penalty>  (44) 
9.75411e-08

>  <r_epik_Ionization_Penalty_Charging>  (44) 
0

>  <r_epik_Ionization_Penalty_Neutral>  (44) 
9.75411e-08

>  <r_epik_State_Penalty>  (44) 
-0

>  <r_epik_Charging_Adjusted_Penalty>  (44) 
0

>  <i_epik_Tot_Q>  (44) 
0

>  <i_epik_Tot_abs_Q>  (44) 
0

>  <s_lp_Force_Field>  (44) 
OPLS3e

>  <r_lp_Energy>  (44) 
57.813

>  <b_lp_Chiralities_Consistent>  (44) 
1

>  <s_lp_Variant>  (44) 
17:0-1

>  <s_i_glide_gridfile>  (44) 
pfpi4k_grid

>  <i_i_glide_lignum>  (44) 
21

>  <i_i_glide_rotatable_bonds>  (44) 
3

>  <r_i_docking_score>  (44) 
-3.49424

>  <r_i_glide_ligand_efficiency>  (44) 
-0.134394

>  <r_i_glide_ligand_efficiency_sa>  (44) 
-0.398141

>  <r_i_glide_ligand_efficiency_ln>  (44) 
-0.820611

>  <r_i_glide_gscore>  (44) 
-3.49424

>  <r_i_glide_lipo>  (44) 
-0.710206

>  <r_i_glide_hbond>  (44) 
0

>  <r_i_glide_metal>  (44) 
-0

>  <r_i_glide_rewards>  (44) 
-0.992462

>  <r_i_glide_evdw>  (44) 
-19.8522

>  <r_i_glide_ecoul>  (44) 
-6.34024

>  <r_i_glide_erotb>  (44) 
0.152074

>  <r_i_glide_esite>  (44) 
0

>  <r_i_glide_emodel>  (44) 
-30.7035

>  <r_i_glide_energy>  (44) 
-26.1924

>  <r_i_glide_einternal>  (44) 
1.58923

>  <r_i_glide_intrahb_reward>  (44) 
-0

>  <i_i_glide_confnum>  (44) 
2

>  <i_i_glide_posenum>  (44) 
12

>  <r_i_glide_eff_state_penalty>  (44) 
0

>  <ligand_id>  (44) 
17

>  <original_smiles>  (44) 
C=C1CC2(O)C3C(=O)C(C(=C)C)CC2(C1)C1CCC2CC1(CC2=C)C3O

>  <smiles>  (44) 
[H]OC1([H])C2([H])C(=O)C([H])(C(=C([H])[H])C([H])([H])[H])C([H])([H])C3(C([H])([H])C(=C([H])[H])C([H])([H])C23O[H])C2([H])C([H])([H])C([H])([H])C3([H])C(=C([H])[H])C([H])([H])C12C3([H])[H]

$$$$
17:0:2
     RDKit          3D

 56 60  0  0  1  0  0  0  0  0999 V2000
    7.4858   -7.9459    2.4994 C   0  0  0  0  0  0  0  0  0  0  0  0
    6.5365   -7.1110    2.0746 C   0  0  0  0  0  0  0  0  0  0  0  0
    5.0551   -7.2045    2.4019 C   0  0  0  0  0  0  0  0  0  0  0  0
    4.4360   -6.1577    1.4762 C   0  0  1  0  0  0  0  0  0  0  0  0
    4.2958   -6.9115    0.2788 O   0  0  0  0  0  0  0  0  0  0  0  0
    3.0916   -5.4679    1.8248 C   0  0  1  0  0  0  0  0  0  0  0  0
    3.1343   -4.7660    3.2003 C   0  0  0  0  0  0  0  0  0  0  0  0
    2.1350   -4.7573    3.9214 O   0  0  0  0  0  0  0  0  0  0  0  0
    4.4186   -4.0410    3.6262 C   0  0  1  0  0  0  0  0  0  0  0  0
    4.7614   -4.2595    5.1085 C   0  0  0  0  0  0  0  0  0  0  0  0
    4.7283   -3.2672    6.0127 C   0  0  0  0  0  0  0  0  0  0  0  0
    5.1594   -5.6589    5.5750 C   0  0  0  0  0  0  0  0  0  0  0  0
    5.6454   -4.2193    2.6730 C   0  0  0  0  0  0  0  0  0  0  0  0
    5.5070   -5.0520    1.3537 C   0  0  1  0  0  0  0  0  0  0  0  0
    6.7952   -5.8920    1.2054 C   0  0  0  0  0  0  0  0  0  0  0  0
    5.1743   -4.1650    0.0838 C   0  0  2  0  0  0  0  0  0  0  0  0
    6.2945   -3.1843   -0.3708 C   0  0  0  0  0  0  0  0  0  0  0  0
    6.0705   -1.7011   -0.0221 C   0  0  0  0  0  0  0  0  0  0  0  0
    4.6029   -1.2935   -0.1676 C   0  0  2  0  0  0  0  0  0  0  0  0
    3.7711   -2.1406    0.7789 C   0  0  0  0  0  0  0  0  0  0  0  0
    3.7384   -3.5199    0.0824 C   0  0  1  0  0  0  0  0  0  0  0  0
    3.3912   -3.0545   -1.3610 C   0  0  0  0  0  0  0  0  0  0  0  0
    4.0531   -1.7048   -1.5141 C   0  0  0  0  0  0  0  0  0  0  0  0
    4.0689   -0.9591   -2.6211 C   0  0  0  0  0  0  0  0  0  0  0  0
    2.6389   -4.4713    0.6982 C   0  0  1  0  0  0  0  0  0  0  0  0
    1.9100   -5.1948   -0.3041 O   0  0  0  0  0  0  0  0  0  0  0  0
    8.5280   -7.7880    2.2560 H   0  0  0  0  0  0  0  0  0  0  0  0
    7.2222   -8.7655    3.1412 H   0  0  0  0  0  0  0  0  0  0  0  0
    4.6682   -8.2212    2.2382 H   0  0  0  0  0  0  0  0  0  0  0  0
    4.9284   -6.9129    3.4597 H   0  0  0  0  0  0  0  0  0  0  0  0
    3.9867   -6.3474   -0.4233 H   0  0  0  0  0  0  0  0  0  0  0  0
    2.3300   -6.2430    1.9161 H   0  0  0  0  0  0  0  0  0  0  0  0
    4.1324   -2.9799    3.6035 H   0  0  0  0  0  0  0  0  0  0  0  0
    4.4555   -2.2497    5.7531 H   0  0  0  0  0  0  0  0  0  0  0  0
    4.9964   -3.4894    7.0346 H   0  0  0  0  0  0  0  0  0  0  0  0
    6.0402   -6.0126    5.0526 H   0  0  0  0  0  0  0  0  0  0  0  0
    4.3504   -6.3568    5.4206 H   0  0  0  0  0  0  0  0  0  0  0  0
    5.3835   -5.6715    6.6545 H   0  0  0  0  0  0  0  0  0  0  0  0
    6.0195   -3.2276    2.4457 H   0  0  0  0  0  0  0  0  0  0  0  0
    6.4423   -4.6737    3.2799 H   0  0  0  0  0  0  0  0  0  0  0  0
    7.7100   -5.3590    1.5035 H   0  0  0  0  0  0  0  0  0  0  0  0
    6.9339   -6.2296    0.1803 H   0  0  0  0  0  0  0  0  0  0  0  0
    5.1751   -4.8733   -0.7277 H   0  0  0  0  0  0  0  0  0  0  0  0
    7.2497   -3.4864    0.0342 H   0  0  0  0  0  0  0  0  0  0  0  0
    6.3963   -3.2710   -1.4670 H   0  0  0  0  0  0  0  0  0  0  0  0
    6.4234   -1.5007    0.9949 H   0  0  0  0  0  0  0  0  0  0  0  0
    6.6721   -1.0884   -0.6835 H   0  0  0  0  0  0  0  0  0  0  0  0
    4.4710   -0.2184   -0.0108 H   0  0  0  0  0  0  0  0  0  0  0  0
    4.2053   -2.1190    1.7776 H   0  0  0  0  0  0  0  0  0  0  0  0
    2.7724   -1.7113    0.8554 H   0  0  0  0  0  0  0  0  0  0  0  0
    3.6986   -3.7394   -2.1460 H   0  0  0  0  0  0  0  0  0  0  0  0
    2.3261   -2.8740   -1.4723 H   0  0  0  0  0  0  0  0  0  0  0  0
    4.5309    0.0209   -2.6197 H   0  0  0  0  0  0  0  0  0  0  0  0
    3.6005   -1.3152   -3.5261 H   0  0  0  0  0  0  0  0  0  0  0  0
    1.8775   -3.8256    1.1390 H   0  0  0  0  0  0  0  0  0  0  0  0
    2.4758   -5.4005   -1.0456 H   0  0  0  0  0  0  0  0  0  0  0  0
  1  2  2  0
  1 27  1  0
  1 28  1  0
  2 15  1  0
  2  3  1  0
  3  4  1  0
  3 29  1  0
  3 30  1  0
  4 14  1  0
  4  5  1  6
  4  6  1  0
  5 31  1  0
  6 25  1  0
  6  7  1  0
  6 32  1  1
  7  8  2  0
  7  9  1  0
  9 10  1  0
  9 13  1  0
  9 33  1  1
 10 11  2  0
 10 12  1  0
 11 34  1  0
 11 35  1  0
 12 36  1  0
 12 37  1  0
 12 38  1  0
 14 13  1  1
 13 39  1  0
 13 40  1  0
 14 15  1  0
 14 16  1  0
 15 41  1  0
 15 42  1  0
 16 21  1  0
 16 17  1  0
 16 43  1  6
 17 18  1  0
 17 44  1  0
 17 45  1  0
 18 19  1  0
 18 46  1  0
 18 47  1  0
 19 23  1  0
 19 20  1  0
 19 48  1  1
 20 21  1  0
 20 49  1  0
 20 50  1  0
 21 22  1  6
 21 25  1  0
 22 23  1  0
 22 51  1  0
 22 52  1  0
 23 24  2  0
 24 53  1  0
 24 54  1  0
 25 26  1  0
 25 55  1  1
 26 56  1  0
M  END
>  <i_m_ct_stereo_status>  (45) 
1

>  <s_m_source_file>  (45) 
/var/tmp/pbs.5076255.sched01/tmpoa2zap1w/0_chicbso.sdf

>  <i_m_source_file_index>  (45) 
21

>  <i_lp_mmshare_version>  (45) 
48012

>  <i_f3d_flags>  (45) 
0

>  <s_epik_input>  (45) 
W0NIMl09QyhbQ0gyXTEpW0NIMl1bQ0BAXShbQ0BdMTIzKShbT0hdKVtDQEBIXShDKD1PKVtDQEhdKFtDSDJdMilDKD1bQ0gyXSlbQ0gzXSlbQ0BIXShbT0hdKVtDQF00NVtDQEhdM1tDSDJdW0NIMl1bQ0BIXShbQ0gyXTQpQyhbQ0gyXTUpPVtDSDJd

>  <s_epik_cmdline>  (45) 
J2VwaWtfcHl0aG9uJywgJy1waHQnLCAnMi4wJywgJy1waCcsICc3LjAnLCAnLXRuJywgJzgnLCAnLW1hJywgJzIwMCcsICctaW1hZScsICc8aW5maWxlLm1hZT4nLCAnLW9tYWUnLCAnPG91dGZpbGUubWFlPic=

>  <r_lp_tautomer_probability>  (45) 
1

>  <r_epik_Ionization_Penalty>  (45) 
9.75411e-08

>  <r_epik_Ionization_Penalty_Charging>  (45) 
0

>  <r_epik_Ionization_Penalty_Neutral>  (45) 
9.75411e-08

>  <r_epik_State_Penalty>  (45) 
-0

>  <r_epik_Charging_Adjusted_Penalty>  (45) 
0

>  <i_epik_Tot_Q>  (45) 
0

>  <i_epik_Tot_abs_Q>  (45) 
0

>  <s_lp_Force_Field>  (45) 
OPLS3e

>  <r_lp_Energy>  (45) 
57.813

>  <b_lp_Chiralities_Consistent>  (45) 
1

>  <s_lp_Variant>  (45) 
17:0-1

>  <s_i_glide_gridfile>  (45) 
pfpi4k_grid

>  <i_i_glide_lignum>  (45) 
21

>  <i_i_glide_rotatable_bonds>  (45) 
3

>  <r_i_docking_score>  (45) 
-3.43203

>  <r_i_glide_ligand_efficiency>  (45) 
-0.132001

>  <r_i_glide_ligand_efficiency_sa>  (45) 
-0.391053

>  <r_i_glide_ligand_efficiency_ln>  (45) 
-0.806001

>  <r_i_glide_gscore>  (45) 
-3.43203

>  <r_i_glide_lipo>  (45) 
-0.421556

>  <r_i_glide_hbond>  (45) 
0

>  <r_i_glide_metal>  (45) 
-0

>  <r_i_glide_rewards>  (45) 
-0.992165

>  <r_i_glide_evdw>  (45) 
-21.9332

>  <r_i_glide_ecoul>  (45) 
-7.15815

>  <r_i_glide_erotb>  (45) 
0.152074

>  <r_i_glide_esite>  (45) 
0

>  <r_i_glide_emodel>  (45) 
-33.8242

>  <r_i_glide_energy>  (45) 
-29.0914

>  <r_i_glide_einternal>  (45) 
1.10024

>  <r_i_glide_intrahb_reward>  (45) 
-0

>  <i_i_glide_confnum>  (45) 
2

>  <i_i_glide_posenum>  (45) 
32

>  <r_i_glide_eff_state_penalty>  (45) 
0

>  <ligand_id>  (45) 
17

>  <original_smiles>  (45) 
C=C1CC2(O)C3C(=O)C(C(=C)C)CC2(C1)C1CCC2CC1(CC2=C)C3O

>  <smiles>  (45) 
[H]OC1([H])C2([H])C(=O)C([H])(C(=C([H])[H])C([H])([H])[H])C([H])([H])C3(C([H])([H])C(=C([H])[H])C([H])([H])C23O[H])C2([H])C([H])([H])C([H])([H])C3([H])C(=C([H])[H])C([H])([H])C12C3([H])[H]

$$$$
18:0:0
     RDKit          3D

 68 75  0  0  1  0  0  0  0  0999 V2000
    5.7332   -0.4707    5.0349 C   0  0  0  0  0  0  0  0  0  0  0  0
    4.3329   -0.4092    5.6076 C   0  0  2  0  0  0  0  0  0  0  0  0
    3.7248   -1.6724    6.2158 C   0  0  0  0  0  0  0  0  0  0  0  0
    2.5232   -1.5303    5.2894 C   0  0  2  0  0  0  0  0  0  0  0  0
    2.3543   -2.6381    4.4194 O   0  0  0  0  0  0  0  0  0  0  0  0
    3.3325   -2.8153    3.4100 C   0  0  1  0  0  0  0  0  0  0  0  0
    2.9967   -4.1570    2.7395 C   0  0  0  0  0  0  0  0  0  0  0  0
    3.5267   -4.2800    1.3238 C   0  0  0  0  0  0  0  0  0  0  0  0
    4.1023   -3.2798    0.6322 C   0  0  0  0  0  0  0  0  0  0  0  0
    4.6410   -3.5360   -0.7792 C   0  0  0  0  0  0  0  0  0  0  0  0
    4.3083   -2.4068   -1.7530 C   0  0  0  0  0  0  0  0  0  0  0  0
    4.3680   -2.6316   -2.9658 O   0  0  0  0  0  0  0  0  0  0  0  0
    4.0113   -1.0756   -1.2191 C   0  0  0  0  0  0  0  0  0  0  0  0
    4.0058   -0.8379    0.1051 C   0  0  0  0  0  0  0  0  0  0  0  0
    4.2587   -1.8633    1.2082 C   0  0  2  0  0  0  0  0  0  0  0  0
    5.7411   -1.7166    1.6233 C   0  0  0  0  0  0  0  0  0  0  0  0
    3.2594   -1.6469    2.4141 C   0  0  2  0  0  0  0  0  0  0  0  0
    3.2687   -0.2378    3.1154 C   0  0  1  0  0  0  0  0  0  0  0  0
    2.1646    0.6864    2.5349 C   0  0  0  0  0  0  0  0  0  0  0  0
    1.3024    1.0768    3.7413 C   0  0  2  0  0  0  0  0  0  0  0  0
    0.3943    2.3253    3.6106 C   0  0  1  0  0  0  0  0  0  0  0  0
   -0.7660    2.0948    2.6103 C   0  0  0  0  0  0  0  0  0  0  0  0
   -2.0528    2.7985    3.0452 C   0  0  2  0  0  0  0  0  0  0  0  0
   -1.8062    4.0547    3.7108 O   0  0  0  0  0  0  0  0  0  0  0  0
   -1.5744    3.3129    4.9208 C   0  0  1  0  0  0  0  0  0  0  0  0
   -2.4196    2.3119    4.3432 O   0  0  0  0  0  0  0  0  0  0  0  0
   -0.1166    2.8256    5.0011 C   0  0  1  0  0  0  0  0  0  0  0  0
    0.0726    1.7677    6.1107 C   0  0  0  0  0  0  0  0  0  0  0  0
    1.5344    1.2722    6.2583 C   0  0  0  0  0  0  0  0  0  0  0  0
    2.3034    1.1175    4.8980 C   0  0  2  0  0  0  0  0  0  0  0  0
    3.2534    2.3510    4.7741 C   0  0  0  0  0  0  0  0  0  0  0  0
    3.0933   -0.2152    4.6793 C   0  0  2  0  0  0  0  0  0  0  0  0
    5.8138   -1.2942    4.3324 H   0  0  0  0  0  0  0  0  0  0  0  0
    6.4804   -0.6295    5.8129 H   0  0  0  0  0  0  0  0  0  0  0  0
    5.9993    0.4456    4.5071 H   0  0  0  0  0  0  0  0  0  0  0  0
    4.3012    0.3416    6.4022 H   0  0  0  0  0  0  0  0  0  0  0  0
    4.3231   -2.5706    6.0494 H   0  0  0  0  0  0  0  0  0  0  0  0
    3.4720   -1.5656    7.2716 H   0  0  0  0  0  0  0  0  0  0  0  0
    1.5990   -1.4055    5.8484 H   0  0  0  0  0  0  0  0  0  0  0  0
    4.3286   -2.8892    3.8439 H   0  0  0  0  0  0  0  0  0  0  0  0
    3.3956   -4.9746    3.3408 H   0  0  0  0  0  0  0  0  0  0  0  0
    1.9159   -4.2999    2.6961 H   0  0  0  0  0  0  0  0  0  0  0  0
    3.4330   -5.2602    0.8759 H   0  0  0  0  0  0  0  0  0  0  0  0
    5.7204   -3.6417   -0.7341 H   0  0  0  0  0  0  0  0  0  0  0  0
    4.2363   -4.4689   -1.1684 H   0  0  0  0  0  0  0  0  0  0  0  0
    3.8209   -0.2871   -1.9305 H   0  0  0  0  0  0  0  0  0  0  0  0
    3.8080    0.1704    0.4398 H   0  0  0  0  0  0  0  0  0  0  0  0
    6.3988   -1.8717    0.7649 H   0  0  0  0  0  0  0  0  0  0  0  0
    6.0252   -2.4628    2.3657 H   0  0  0  0  0  0  0  0  0  0  0  0
    5.9760   -0.7276    2.0145 H   0  0  0  0  0  0  0  0  0  0  0  0
    2.2607   -1.7603    1.9894 H   0  0  0  0  0  0  0  0  0  0  0  0
    4.2166    0.2442    2.8864 H   0  0  0  0  0  0  0  0  0  0  0  0
    2.6171    1.5785    2.0979 H   0  0  0  0  0  0  0  0  0  0  0  0
    1.5568    0.2378    1.7510 H   0  0  0  0  0  0  0  0  0  0  0  0
    0.6466    0.2231    3.9309 H   0  0  0  0  0  0  0  0  0  0  0  0
    0.9896    3.1395    3.1969 H   0  0  0  0  0  0  0  0  0  0  0  0
   -0.4470    2.4683    1.6425 H   0  0  0  0  0  0  0  0  0  0  0  0
   -0.9549    1.0342    2.4558 H   0  0  0  0  0  0  0  0  0  0  0  0
   -2.8847    2.8191    2.3348 H   0  0  0  0  0  0  0  0  0  0  0  0
   -2.0046    3.7665    5.8173 H   0  0  0  0  0  0  0  0  0  0  0  0
    0.4967    3.6854    5.2837 H   0  0  0  0  0  0  0  0  0  0  0  0
   -0.2783    2.1596    7.0644 H   0  0  0  0  0  0  0  0  0  0  0  0
   -0.5618    0.9063    5.8846 H   0  0  0  0  0  0  0  0  0  0  0  0
    2.0666    1.9853    6.8973 H   0  0  0  0  0  0  0  0  0  0  0  0
    1.5317    0.3730    6.8663 H   0  0  0  0  0  0  0  0  0  0  0  0
    3.9594    2.4136    5.6010 H   0  0  0  0  0  0  0  0  0  0  0  0
    2.7146    3.2990    4.7704 H   0  0  0  0  0  0  0  0  0  0  0  0
    3.8471    2.3371    3.8650 H   0  0  0  0  0  0  0  0  0  0  0  0
  1  2  1  0
  1 33  1  0
  1 34  1  0
  1 35  1  0
  2 32  1  0
  2  3  1  0
  2 36  1  1
  3  4  1  0
  3 37  1  0
  3 38  1  0
  4 32  1  0
  4  5  1  0
  4 39  1  1
  5  6  1  0
  6 17  1  0
  6  7  1  0
  6 40  1  1
  7  8  1  0
  7 41  1  0
  7 42  1  0
  8  9  2  0
  8 43  1  0
  9 15  1  0
  9 10  1  0
 10 11  1  0
 10 44  1  0
 10 45  1  0
 11 12  2  0
 11 13  1  0
 13 14  2  0
 13 46  1  0
 14 15  1  0
 14 47  1  0
 15 16  1  1
 15 17  1  0
 16 48  1  0
 16 49  1  0
 16 50  1  0
 17 18  1  0
 17 51  1  6
 18 32  1  0
 18 19  1  0
 18 52  1  1
 19 20  1  0
 19 53  1  0
 19 54  1  0
 20 30  1  0
 20 21  1  0
 20 55  1  1
 21 27  1  0
 21 22  1  0
 21 56  1  6
 22 23  1  0
 22 57  1  0
 22 58  1  0
 23 26  1  0
 23 24  1  0
 23 59  1  6
 24 25  1  0
 25 26  1  0
 25 27  1  0
 25 60  1  1
 27 28  1  0
 27 61  1  1
 28 29  1  0
 28 62  1  0
 28 63  1  0
 29 30  1  0
 29 64  1  0
 29 65  1  0
 30 31  1  6
 32 30  1  1
 31 66  1  0
 31 67  1  0
 31 68  1  0
M  END
>  <i_m_ct_stereo_status>  (46) 
1

>  <s_m_source_file>  (46) 
/var/tmp/pbs.5076255.sched01/tmpoa2zap1w/0_chicbso.sdf

>  <i_m_source_file_index>  (46) 
22

>  <i_lp_mmshare_version>  (46) 
48012

>  <i_f3d_flags>  (46) 
0

>  <s_epik_input>  (46) 
W0NIM11bQ0BASF0xW0NIMl1bQ0BASF0oW0NAQF0xMjMpT1tDQEBIXTRbQ0BIXShbQ0BAXTUoW0NIM10pQyg9W0NIXVtDSDJdNClbQ0gyXUMoPU8pW0NIXT1bQ0hdNSlbQ0BIXTJbQ0gyXVtDQEBIXTZbQ0BASF03W0NAQEhdKFtDQEhdOE9bQ0BIXShPOClbQ0gyXTcpW0NIMl1bQ0gyXVtDQEBdMzZbQ0gzXQ==

>  <s_epik_cmdline>  (46) 
J2VwaWtfcHl0aG9uJywgJy1waHQnLCAnMi4wJywgJy1waCcsICc3LjAnLCAnLXRuJywgJzgnLCAnLW1hJywgJzIwMCcsICctaW1hZScsICc8aW5maWxlLm1hZT4nLCAnLW9tYWUnLCAnPG91dGZpbGUubWFlPic=

>  <r_lp_tautomer_probability>  (46) 
1

>  <r_epik_Ionization_Penalty>  (46) 
2.00553e-11

>  <r_epik_Ionization_Penalty_Charging>  (46) 
0

>  <r_epik_Ionization_Penalty_Neutral>  (46) 
2.00553e-11

>  <r_epik_State_Penalty>  (46) 
-0

>  <r_epik_Charging_Adjusted_Penalty>  (46) 
0

>  <i_epik_Tot_Q>  (46) 
0

>  <i_epik_Tot_abs_Q>  (46) 
0

>  <s_epik_Chemistry_Notes>  (46) 
This compound contains an acetal/aminal-like group ( X-CH(R)-Y where X, Y are N, S, or O) that may be acid/base labile, releasing an aldehyde.

>  <s_lp_Force_Field>  (46) 
OPLS3e

>  <r_lp_Energy>  (46) 
95.9493

>  <b_lp_Chiralities_Consistent>  (46) 
1

>  <s_lp_Variant>  (46) 
18:0-1

>  <s_i_glide_gridfile>  (46) 
pfpi4k_grid

>  <i_i_glide_lignum>  (46) 
22

>  <i_i_glide_rotatable_bonds>  (46) 
0

>  <r_i_docking_score>  (46) 
-2.29974

>  <r_i_glide_ligand_efficiency>  (46) 
-0.0718667

>  <r_i_glide_ligand_efficiency_sa>  (46) 
-0.228163

>  <r_i_glide_ligand_efficiency_ln>  (46) 
-0.514973

>  <r_i_glide_gscore>  (46) 
-2.29974

>  <r_i_glide_lipo>  (46) 
-0.221966

>  <r_i_glide_hbond>  (46) 
-0.0266792

>  <r_i_glide_metal>  (46) 
-0

>  <r_i_glide_rewards>  (46) 
-0.432388

>  <r_i_glide_evdw>  (46) 
-23.9657

>  <r_i_glide_ecoul>  (46) 
-2.26093

>  <r_i_glide_erotb>  (46) 
0

>  <r_i_glide_esite>  (46) 
-0.081279

>  <r_i_glide_emodel>  (46) 
-29.7573

>  <r_i_glide_energy>  (46) 
-26.2266

>  <r_i_glide_einternal>  (46) 
0

>  <r_i_glide_intrahb_reward>  (46) 
-0

>  <i_i_glide_confnum>  (46) 
1

>  <i_i_glide_posenum>  (46) 
23

>  <r_i_glide_eff_state_penalty>  (46) 
0

>  <ligand_id>  (46) 
18

>  <original_smiles>  (46) 
CC1CC2OC3CC=C4CC(=O)C=CC4(C)C3C3CC4C5CC6OC(O6)C5CCC4(C)C123

>  <smiles>  (46) 
[H]C1=C([H])C2(C([H])([H])[H])C(=C([H])C([H])([H])C3([H])OC4([H])C([H])([H])C([H])(C([H])([H])[H])C45C([H])(C([H])([H])C4([H])C6([H])C([H])([H])C7([H])OC([H])(O7)C6([H])C([H])([H])C([H])([H])C45C([H])([H])[H])C32[H])C([H])([H])C1=O

$$$$
18:0:1
     RDKit          3D

 68 75  0  0  1  0  0  0  0  0999 V2000
    3.6244   -2.0145    9.1245 C   0  0  0  0  0  0  0  0  0  0  0  0
    2.3543   -1.2811    9.4994 C   0  0  2  0  0  0  0  0  0  0  0  0
    1.3468   -1.9523   10.4278 C   0  0  0  0  0  0  0  0  0  0  0  0
    0.2541   -1.7196    9.3992 C   0  0  2  0  0  0  0  0  0  0  0  0
   -0.3486   -2.9058    8.9135 O   0  0  0  0  0  0  0  0  0  0  0  0
    0.4743   -3.7595    8.1386 C   0  0  1  0  0  0  0  0  0  0  0  0
   -0.3408   -5.0468    7.9142 C   0  0  0  0  0  0  0  0  0  0  0  0
    0.0747   -5.8221    6.6805 C   0  0  0  0  0  0  0  0  0  0  0  0
    0.9588   -5.3886    5.7638 C   0  0  0  0  0  0  0  0  0  0  0  0
    1.3338   -6.2896    4.5795 C   0  0  0  0  0  0  0  0  0  0  0  0
    1.3835   -5.5164    3.2624 C   0  0  0  0  0  0  0  0  0  0  0  0
    1.2442   -6.1327    2.2082 O   0  0  0  0  0  0  0  0  0  0  0  0
    1.6141   -4.0667    3.2903 C   0  0  0  0  0  0  0  0  0  0  0  0
    1.7278   -3.3998    4.4567 C   0  0  0  0  0  0  0  0  0  0  0  0
    1.6227   -4.0128    5.8437 C   0  0  2  0  0  0  0  0  0  0  0  0
    3.0717   -4.2654    6.3339 C   0  0  0  0  0  0  0  0  0  0  0  0
    0.8064   -3.0611    6.8098 C   0  0  2  0  0  0  0  0  0  0  0  0
    1.3497   -1.6009    7.0040 C   0  0  1  0  0  0  0  0  0  0  0  0
    0.6382   -0.6138    6.0412 C   0  0  0  0  0  0  0  0  0  0  0  0
    0.0167    0.4508    6.9581 C   0  0  2  0  0  0  0  0  0  0  0  0
   -0.3745    1.8055    6.3269 C   0  0  1  0  0  0  0  0  0  0  0  0
   -1.5655    1.6711    5.3390 C   0  0  0  0  0  0  0  0  0  0  0  0
   -2.5007    2.8744    5.4005 C   0  0  2  0  0  0  0  0  0  0  0  0
   -1.7853    4.0900    5.6435 O   0  0  0  0  0  0  0  0  0  0  0  0
   -1.8202    3.7871    7.0430 C   0  0  1  0  0  0  0  0  0  0  0  0
   -2.9822    3.0245    6.7346 O   0  0  0  0  0  0  0  0  0  0  0  0
   -0.6378    2.8871    7.4212 C   0  0  1  0  0  0  0  0  0  0  0  0
   -0.8111    2.2901    8.8317 C   0  0  0  0  0  0  0  0  0  0  0  0
    0.3741    1.3958    9.2791 C   0  0  0  0  0  0  0  0  0  0  0  0
    0.9994    0.5284    8.1271 C   0  0  2  0  0  0  0  0  0  0  0  0
    2.3290    1.2222    7.7028 C   0  0  0  0  0  0  0  0  0  0  0  0
    1.2400   -0.9808    8.4463 C   0  0  2  0  0  0  0  0  0  0  0  0
    3.4072   -3.0139    8.7530 H   0  0  0  0  0  0  0  0  0  0  0  0
    4.2866   -2.1390    9.9799 H   0  0  0  0  0  0  0  0  0  0  0  0
    4.1843   -1.4886    8.3546 H   0  0  0  0  0  0  0  0  0  0  0  0
    2.6161   -0.3357    9.9965 H   0  0  0  0  0  0  0  0  0  0  0  0
    1.5741   -2.9958   10.6333 H   0  0  0  0  0  0  0  0  0  0  0  0
    1.1853   -1.3978   11.3594 H   0  0  0  0  0  0  0  0  0  0  0  0
   -0.5346   -1.0835    9.8095 H   0  0  0  0  0  0  0  0  0  0  0  0
    1.3886   -4.0247    8.6691 H   0  0  0  0  0  0  0  0  0  0  0  0
   -0.2439   -5.6908    8.7868 H   0  0  0  0  0  0  0  0  0  0  0  0
   -1.4015   -4.8129    7.8118 H   0  0  0  0  0  0  0  0  0  0  0  0
   -0.3712   -6.8014    6.5720 H   0  0  0  0  0  0  0  0  0  0  0  0
    2.2968   -6.7505    4.7639 H   0  0  0  0  0  0  0  0  0  0  0  0
    0.6037   -7.0929    4.4813 H   0  0  0  0  0  0  0  0  0  0  0  0
    1.7126   -3.5580    2.3452 H   0  0  0  0  0  0  0  0  0  0  0  0
    1.9181   -2.3371    4.4066 H   0  0  0  0  0  0  0  0  0  0  0  0
    3.5987   -4.9250    5.6448 H   0  0  0  0  0  0  0  0  0  0  0  0
    3.0851   -4.7609    7.3048 H   0  0  0  0  0  0  0  0  0  0  0  0
    3.6605   -3.3504    6.3974 H   0  0  0  0  0  0  0  0  0  0  0  0
   -0.1735   -2.9590    6.3496 H   0  0  0  0  0  0  0  0  0  0  0  0
    2.3990   -1.5922    6.7254 H   0  0  0  0  0  0  0  0  0  0  0  0
    1.3757   -0.1403    5.3851 H   0  0  0  0  0  0  0  0  0  0  0  0
   -0.1105   -1.0534    5.3936 H   0  0  0  0  0  0  0  0  0  0  0  0
   -0.8970    0.0073    7.3515 H   0  0  0  0  0  0  0  0  0  0  0  0
    0.4649    2.1733    5.7370 H   0  0  0  0  0  0  0  0  0  0  0  0
   -1.1657    1.5638    4.3206 H   0  0  0  0  0  0  0  0  0  0  0  0
   -2.1243    0.7545    5.5235 H   0  0  0  0  0  0  0  0  0  0  0  0
   -3.2816    2.9555    4.6392 H   0  0  0  0  0  0  0  0  0  0  0  0
   -2.0201    4.6477    7.6923 H   0  0  0  0  0  0  0  0  0  0  0  0
    0.2528    3.5275    7.4659 H   0  0  0  0  0  0  0  0  0  0  0  0
   -0.9585    3.0859    9.5624 H   0  0  0  0  0  0  0  0  0  0  0  0
   -1.7255    1.6924    8.8483 H   0  0  0  0  0  0  0  0  0  0  0  0
    1.1473    2.0572    9.6913 H   0  0  0  0  0  0  0  0  0  0  0  0
    0.0728    0.8318   10.1551 H   0  0  0  0  0  0  0  0  0  0  0  0
    3.0279    1.3211    8.5325 H   0  0  0  0  0  0  0  0  0  0  0  0
    2.1706    2.2402    7.3326 H   0  0  0  0  0  0  0  0  0  0  0  0
    2.8623    0.6943    6.9187 H   0  0  0  0  0  0  0  0  0  0  0  0
  1  2  1  0
  1 33  1  0
  1 34  1  0
  1 35  1  0
  2 32  1  0
  2  3  1  0
  2 36  1  1
  3  4  1  0
  3 37  1  0
  3 38  1  0
  4 32  1  0
  4  5  1  0
  4 39  1  1
  5  6  1  0
  6 17  1  0
  6  7  1  0
  6 40  1  1
  7  8  1  0
  7 41  1  0
  7 42  1  0
  8  9  2  0
  8 43  1  0
  9 15  1  0
  9 10  1  0
 10 11  1  0
 10 44  1  0
 10 45  1  0
 11 12  2  0
 11 13  1  0
 13 14  2  0
 13 46  1  0
 14 15  1  0
 14 47  1  0
 15 16  1  1
 15 17  1  0
 16 48  1  0
 16 49  1  0
 16 50  1  0
 17 18  1  0
 17 51  1  6
 18 32  1  0
 18 19  1  0
 18 52  1  6
 19 20  1  0
 19 53  1  0
 19 54  1  0
 20 30  1  0
 20 21  1  0
 20 55  1  1
 21 27  1  0
 21 22  1  0
 21 56  1  6
 22 23  1  0
 22 57  1  0
 22 58  1  0
 23 26  1  0
 23 24  1  0
 23 59  1  6
 24 25  1  0
 25 26  1  0
 25 27  1  0
 25 60  1  1
 27 28  1  0
 27 61  1  1
 28 29  1  0
 28 62  1  0
 28 63  1  0
 29 30  1  0
 29 64  1  0
 29 65  1  0
 30 31  1  6
 32 30  1  6
 31 66  1  0
 31 67  1  0
 31 68  1  0
M  END
>  <i_m_ct_stereo_status>  (47) 
1

>  <s_m_source_file>  (47) 
/var/tmp/pbs.5076255.sched01/tmpoa2zap1w/0_chicbso.sdf

>  <i_m_source_file_index>  (47) 
22

>  <i_lp_mmshare_version>  (47) 
48012

>  <i_f3d_flags>  (47) 
0

>  <s_epik_input>  (47) 
W0NIM11bQ0BASF0xW0NIMl1bQ0BASF0oW0NAQF0xMjMpT1tDQEBIXTRbQ0BIXShbQ0BAXTUoW0NIM10pQyg9W0NIXVtDSDJdNClbQ0gyXUMoPU8pW0NIXT1bQ0hdNSlbQ0BIXTJbQ0gyXVtDQEBIXTZbQ0BASF03W0NAQEhdKFtDQEhdOE9bQ0BIXShPOClbQ0gyXTcpW0NIMl1bQ0gyXVtDQEBdMzZbQ0gzXQ==

>  <s_epik_cmdline>  (47) 
J2VwaWtfcHl0aG9uJywgJy1waHQnLCAnMi4wJywgJy1waCcsICc3LjAnLCAnLXRuJywgJzgnLCAnLW1hJywgJzIwMCcsICctaW1hZScsICc8aW5maWxlLm1hZT4nLCAnLW9tYWUnLCAnPG91dGZpbGUubWFlPic=

>  <r_lp_tautomer_probability>  (47) 
1

>  <r_epik_Ionization_Penalty>  (47) 
2.00553e-11

>  <r_epik_Ionization_Penalty_Charging>  (47) 
0

>  <r_epik_Ionization_Penalty_Neutral>  (47) 
2.00553e-11

>  <r_epik_State_Penalty>  (47) 
-0

>  <r_epik_Charging_Adjusted_Penalty>  (47) 
0

>  <i_epik_Tot_Q>  (47) 
0

>  <i_epik_Tot_abs_Q>  (47) 
0

>  <s_epik_Chemistry_Notes>  (47) 
This compound contains an acetal/aminal-like group ( X-CH(R)-Y where X, Y are N, S, or O) that may be acid/base labile, releasing an aldehyde.

>  <s_lp_Force_Field>  (47) 
OPLS3e

>  <r_lp_Energy>  (47) 
95.9493

>  <b_lp_Chiralities_Consistent>  (47) 
1

>  <s_lp_Variant>  (47) 
18:0-1

>  <s_i_glide_gridfile>  (47) 
pfpi4k_grid

>  <i_i_glide_lignum>  (47) 
22

>  <i_i_glide_rotatable_bonds>  (47) 
0

>  <r_i_docking_score>  (47) 
-2.18504

>  <r_i_glide_ligand_efficiency>  (47) 
-0.0682824

>  <r_i_glide_ligand_efficiency_sa>  (47) 
-0.216783

>  <r_i_glide_ligand_efficiency_ln>  (47) 
-0.48929

>  <r_i_glide_gscore>  (47) 
-2.18504

>  <r_i_glide_lipo>  (47) 
-0.028493

>  <r_i_glide_hbond>  (47) 
-0.16

>  <r_i_glide_metal>  (47) 
-0

>  <r_i_glide_rewards>  (47) 
-0.496601

>  <r_i_glide_evdw>  (47) 
-15.3011

>  <r_i_glide_ecoul>  (47) 
-4.74485

>  <r_i_glide_erotb>  (47) 
0

>  <r_i_glide_esite>  (47) 
-0.0231608

>  <r_i_glide_emodel>  (47) 
-23.3767

>  <r_i_glide_energy>  (47) 
-20.046

>  <r_i_glide_einternal>  (47) 
0

>  <r_i_glide_intrahb_reward>  (47) 
-0

>  <i_i_glide_confnum>  (47) 
2

>  <i_i_glide_posenum>  (47) 
38

>  <r_i_glide_eff_state_penalty>  (47) 
0

>  <ligand_id>  (47) 
18

>  <original_smiles>  (47) 
CC1CC2OC3CC=C4CC(=O)C=CC4(C)C3C3CC4C5CC6OC(O6)C5CCC4(C)C123

>  <smiles>  (47) 
[H]C1=C([H])C2(C([H])([H])[H])C(=C([H])C([H])([H])C3([H])OC4([H])C([H])([H])C([H])(C([H])([H])[H])C45C([H])(C([H])([H])C4([H])C6([H])C([H])([H])C7([H])OC([H])(O7)C6([H])C([H])([H])C([H])([H])C45C([H])([H])[H])C32[H])C([H])([H])C1=O

$$$$
18:0:2
     RDKit          3D

 68 75  0  0  1  0  0  0  0  0999 V2000
    5.9280    0.5428    4.8567 C   0  0  0  0  0  0  0  0  0  0  0  0
    4.7424    1.0345    5.6716 C   0  0  2  0  0  0  0  0  0  0  0  0
    4.4975    0.4355    7.0538 C   0  0  0  0  0  0  0  0  0  0  0  0
    3.0755    0.0807    6.6383 C   0  0  2  0  0  0  0  0  0  0  0  0
    2.8094   -1.3109    6.6867 O   0  0  0  0  0  0  0  0  0  0  0  0
    3.4807   -2.1213    5.7396 C   0  0  1  0  0  0  0  0  0  0  0  0
    3.1427   -3.5713    6.1260 C   0  0  0  0  0  0  0  0  0  0  0  0
    3.2677   -4.5510    4.9757 C   0  0  0  0  0  0  0  0  0  0  0  0
    3.4964   -4.2023    3.6966 C   0  0  0  0  0  0  0  0  0  0  0  0
    3.6572   -5.2854    2.6285 C   0  0  0  0  0  0  0  0  0  0  0  0
    2.9157   -4.9423    1.3362 C   0  0  0  0  0  0  0  0  0  0  0  0
    2.5991   -5.8558    0.5820 O   0  0  0  0  0  0  0  0  0  0  0  0
    2.6209   -3.5371    1.0307 C   0  0  0  0  0  0  0  0  0  0  0  0
    2.9397   -2.5510    1.8928 C   0  0  0  0  0  0  0  0  0  0  0  0
    3.6188   -2.7383    3.2480 C   0  0  2  0  0  0  0  0  0  0  0  0
    5.1263   -2.4786    3.0277 C   0  0  0  0  0  0  0  0  0  0  0  0
    2.9797   -1.7776    4.3286 C   0  0  2  0  0  0  0  0  0  0  0  0
    3.0064   -0.2382    4.0228 C   0  0  1  0  0  0  0  0  0  0  0  0
    1.6724    0.2260    3.3767 C   0  0  0  0  0  0  0  0  0  0  0  0
    1.1385    1.3178    4.3094 C   0  0  2  0  0  0  0  0  0  0  0  0
    0.0839    2.3004    3.7407 C   0  0  1  0  0  0  0  0  0  0  0  0
   -1.2749    1.6050    3.4587 C   0  0  0  0  0  0  0  0  0  0  0  0
   -2.4638    2.5145    3.7840 C   0  0  2  0  0  0  0  0  0  0  0  0
   -2.1925    3.8990    3.4826 O   0  0  0  0  0  0  0  0  0  0  0  0
   -1.5357    3.9944    4.7557 C   0  0  1  0  0  0  0  0  0  0  0  0
   -2.3862    2.9143    5.1614 O   0  0  0  0  0  0  0  0  0  0  0  0
   -0.0725    3.5578    4.6525 C   0  0  1  0  0  0  0  0  0  0  0  0
    0.5521    3.3694    6.0517 C   0  0  0  0  0  0  0  0  0  0  0  0
    2.0466    2.9631    6.0182 C   0  0  0  0  0  0  0  0  0  0  0  0
    2.4096    1.9736    4.8557 C   0  0  2  0  0  0  0  0  0  0  0  0
    3.1047    2.8201    3.7480 C   0  0  0  0  0  0  0  0  0  0  0  0
    3.2756    0.7264    5.2354 C   0  0  2  0  0  0  0  0  0  0  0  0
    5.9347   -0.5394    4.7865 H   0  0  0  0  0  0  0  0  0  0  0  0
    6.8773    0.8381    5.3030 H   0  0  0  0  0  0  0  0  0  0  0  0
    5.9101    0.9404    3.8440 H   0  0  0  0  0  0  0  0  0  0  0  0
    4.8383    2.1108    5.8362 H   0  0  0  0  0  0  0  0  0  0  0  0
    5.1342   -0.4176    7.2795 H   0  0  0  0  0  0  0  0  0  0  0  0
    4.5384    1.1774    7.8563 H   0  0  0  0  0  0  0  0  0  0  0  0
    2.3399    0.5837    7.2637 H   0  0  0  0  0  0  0  0  0  0  0  0
    4.5591   -1.9912    5.8075 H   0  0  0  0  0  0  0  0  0  0  0  0
    3.7954   -3.8924    6.9368 H   0  0  0  0  0  0  0  0  0  0  0  0
    2.1207   -3.6383    6.5004 H   0  0  0  0  0  0  0  0  0  0  0  0
    3.1761   -5.5949    5.2472 H   0  0  0  0  0  0  0  0  0  0  0  0
    4.7093   -5.4245    2.4009 H   0  0  0  0  0  0  0  0  0  0  0  0
    3.2755   -6.2345    3.0030 H   0  0  0  0  0  0  0  0  0  0  0  0
    2.1591   -3.3135    0.0840 H   0  0  0  0  0  0  0  0  0  0  0  0
    2.7043   -1.5374    1.6034 H   0  0  0  0  0  0  0  0  0  0  0  0
    5.5283   -3.1621    2.2772 H   0  0  0  0  0  0  0  0  0  0  0  0
    5.6972   -2.6537    3.9399 H   0  0  0  0  0  0  0  0  0  0  0  0
    5.3323   -1.4703    2.6689 H   0  0  0  0  0  0  0  0  0  0  0  0
    1.9275   -2.0524    4.3784 H   0  0  0  0  0  0  0  0  0  0  0  0
    3.7807   -0.0516    3.2836 H   0  0  0  0  0  0  0  0  0  0  0  0
    1.8652    0.6481    2.3875 H   0  0  0  0  0  0  0  0  0  0  0  0
    0.9316   -0.5560    3.2330 H   0  0  0  0  0  0  0  0  0  0  0  0
    0.6775    0.7991    5.1528 H   0  0  0  0  0  0  0  0  0  0  0  0
    0.4349    2.6723    2.7745 H   0  0  0  0  0  0  0  0  0  0  0  0
   -1.3058    1.3088    2.4070 H   0  0  0  0  0  0  0  0  0  0  0  0
   -1.3535    0.6764    4.0246 H   0  0  0  0  0  0  0  0  0  0  0  0
   -3.4573    2.1801    3.4885 H   0  0  0  0  0  0  0  0  0  0  0  0
   -1.7327    4.9207    5.2860 H   0  0  0  0  0  0  0  0  0  0  0  0
    0.4741    4.3737    4.1731 H   0  0  0  0  0  0  0  0  0  0  0  0
    0.4392    4.2825    6.6368 H   0  0  0  0  0  0  0  0  0  0  0  0
   -0.0061    2.5959    6.5827 H   0  0  0  0  0  0  0  0  0  0  0  0
    2.6359    3.8788    5.9118 H   0  0  0  0  0  0  0  0  0  0  0  0
    2.3359    2.6136    7.0067 H   0  0  0  0  0  0  0  0  0  0  0  0
    4.0098    3.3027    4.1100 H   0  0  0  0  0  0  0  0  0  0  0  0
    2.4753    3.6269    3.3646 H   0  0  0  0  0  0  0  0  0  0  0  0
    3.3964    2.2276    2.8871 H   0  0  0  0  0  0  0  0  0  0  0  0
  1  2  1  0
  1 33  1  0
  1 34  1  0
  1 35  1  0
  2 32  1  0
  2  3  1  0
  2 36  1  1
  3  4  1  0
  3 37  1  0
  3 38  1  0
  4 32  1  0
  4  5  1  0
  4 39  1  1
  5  6  1  0
  6 17  1  0
  6  7  1  0
  6 40  1  6
  7  8  1  0
  7 41  1  0
  7 42  1  0
  8  9  2  0
  8 43  1  0
  9 15  1  0
  9 10  1  0
 10 11  1  0
 10 44  1  0
 10 45  1  0
 11 12  2  0
 11 13  1  0
 13 14  2  0
 13 46  1  0
 14 15  1  0
 14 47  1  0
 15 16  1  6
 15 17  1  0
 16 48  1  0
 16 49  1  0
 16 50  1  0
 17 18  1  0
 17 51  1  1
 18 32  1  0
 18 19  1  0
 18 52  1  6
 19 20  1  0
 19 53  1  0
 19 54  1  0
 20 30  1  0
 20 21  1  0
 20 55  1  1
 21 27  1  0
 21 22  1  0
 21 56  1  6
 22 23  1  0
 22 57  1  0
 22 58  1  0
 23 26  1  0
 23 24  1  0
 23 59  1  6
 24 25  1  0
 25 26  1  0
 25 27  1  0
 25 60  1  1
 27 28  1  0
 27 61  1  6
 28 29  1  0
 28 62  1  0
 28 63  1  0
 29 30  1  0
 29 64  1  0
 29 65  1  0
 30 31  1  6
 32 30  1  6
 31 66  1  0
 31 67  1  0
 31 68  1  0
M  END
>  <i_m_ct_stereo_status>  (48) 
1

>  <s_m_source_file>  (48) 
/var/tmp/pbs.5076255.sched01/tmpoa2zap1w/0_chicbso.sdf

>  <i_m_source_file_index>  (48) 
22

>  <i_lp_mmshare_version>  (48) 
48012

>  <i_f3d_flags>  (48) 
0

>  <s_epik_input>  (48) 
W0NIM11bQ0BASF0xW0NIMl1bQ0BASF0oW0NAQF0xMjMpT1tDQEBIXTRbQ0BIXShbQ0BAXTUoW0NIM10pQyg9W0NIXVtDSDJdNClbQ0gyXUMoPU8pW0NIXT1bQ0hdNSlbQ0BIXTJbQ0gyXVtDQEBIXTZbQ0BASF03W0NAQEhdKFtDQEhdOE9bQ0BIXShPOClbQ0gyXTcpW0NIMl1bQ0gyXVtDQEBdMzZbQ0gzXQ==

>  <s_epik_cmdline>  (48) 
J2VwaWtfcHl0aG9uJywgJy1waHQnLCAnMi4wJywgJy1waCcsICc3LjAnLCAnLXRuJywgJzgnLCAnLW1hJywgJzIwMCcsICctaW1hZScsICc8aW5maWxlLm1hZT4nLCAnLW9tYWUnLCAnPG91dGZpbGUubWFlPic=

>  <r_lp_tautomer_probability>  (48) 
1

>  <r_epik_Ionization_Penalty>  (48) 
2.00553e-11

>  <r_epik_Ionization_Penalty_Charging>  (48) 
0

>  <r_epik_Ionization_Penalty_Neutral>  (48) 
2.00553e-11

>  <r_epik_State_Penalty>  (48) 
-0

>  <r_epik_Charging_Adjusted_Penalty>  (48) 
0

>  <i_epik_Tot_Q>  (48) 
0

>  <i_epik_Tot_abs_Q>  (48) 
0

>  <s_epik_Chemistry_Notes>  (48) 
This compound contains an acetal/aminal-like group ( X-CH(R)-Y where X, Y are N, S, or O) that may be acid/base labile, releasing an aldehyde.

>  <s_lp_Force_Field>  (48) 
OPLS3e

>  <r_lp_Energy>  (48) 
95.9493

>  <b_lp_Chiralities_Consistent>  (48) 
1

>  <s_lp_Variant>  (48) 
18:0-1

>  <s_i_glide_gridfile>  (48) 
pfpi4k_grid

>  <i_i_glide_lignum>  (48) 
22

>  <i_i_glide_rotatable_bonds>  (48) 
0

>  <r_i_docking_score>  (48) 
-2.09445

>  <r_i_glide_ligand_efficiency>  (48) 
-0.0654516

>  <r_i_glide_ligand_efficiency_sa>  (48) 
-0.207796

>  <r_i_glide_ligand_efficiency_ln>  (48) 
-0.469005

>  <r_i_glide_gscore>  (48) 
-2.09445

>  <r_i_glide_lipo>  (48) 
-0.22627

>  <r_i_glide_hbond>  (48) 
0

>  <r_i_glide_metal>  (48) 
-0

>  <r_i_glide_rewards>  (48) 
-0.432388

>  <r_i_glide_evdw>  (48) 
-18.4472

>  <r_i_glide_ecoul>  (48) 
-2.81565

>  <r_i_glide_erotb>  (48) 
0

>  <r_i_glide_esite>  (48) 
-0.0910877

>  <r_i_glide_emodel>  (48) 
-24.4646

>  <r_i_glide_energy>  (48) 
-21.2628

>  <r_i_glide_einternal>  (48) 
0

>  <r_i_glide_intrahb_reward>  (48) 
-0

>  <i_i_glide_confnum>  (48) 
2

>  <i_i_glide_posenum>  (48) 
20

>  <r_i_glide_eff_state_penalty>  (48) 
0

>  <ligand_id>  (48) 
18

>  <original_smiles>  (48) 
CC1CC2OC3CC=C4CC(=O)C=CC4(C)C3C3CC4C5CC6OC(O6)C5CCC4(C)C123

>  <smiles>  (48) 
[H]C1=C([H])C2(C([H])([H])[H])C(=C([H])C([H])([H])C3([H])OC4([H])C([H])([H])C([H])(C([H])([H])[H])C45C([H])(C([H])([H])C4([H])C6([H])C([H])([H])C7([H])OC([H])(O7)C6([H])C([H])([H])C([H])([H])C45C([H])([H])[H])C32[H])C([H])([H])C1=O

$$$$
19:0:0
     RDKit          3D

 24 24  0  0  1  0  0  0  0  0999 V2000
    2.2643   -1.9228    2.1020 C   0  0  0  0  0  0  0  0  0  0  0  0
    3.1896   -2.1019    1.0483 O   0  0  0  0  0  0  0  0  0  0  0  0
    3.8257   -1.0381    0.5217 C   0  0  0  0  0  0  0  0  0  0  0  0
    3.7510    0.1159    0.9519 O   0  0  0  0  0  0  0  0  0  0  0  0
    4.6490   -1.4479   -0.7122 C   0  0  2  0  0  0  0  0  0  0  0  0
    3.8265   -2.2220   -1.6284 N   0  0  0  0  0  0  0  0  0  0  0  0
    3.6324   -1.9789   -2.9259 C   0  0  0  0  0  0  0  0  0  0  0  0
    2.6263   -2.8808   -3.6276 C   0  0  0  0  0  0  0  0  0  0  0  0
    4.2127   -1.0927   -3.5543 O   0  0  0  0  0  0  0  0  0  0  0  0
    5.8166   -2.2976   -0.2784 C   0  0  0  0  0  0  0  0  0  0  0  0
    7.0814   -1.8611   -0.3193 N   0  0  0  0  0  0  0  0  0  0  0  0
    8.0067   -2.8340    0.0810 C   0  0  0  0  0  0  0  0  0  0  0  0
    7.4311   -4.0249    0.4447 C   0  0  0  0  0  0  0  0  0  0  0  0
    5.6993   -3.9829    0.2664 S   0  0  0  0  0  0  0  0  0  0  0  0
    1.8630   -2.8902    2.4060 H   0  0  0  0  0  0  0  0  0  0  0  0
    1.4293   -1.3048    1.7697 H   0  0  0  0  0  0  0  0  0  0  0  0
    2.7302   -1.4575    2.9714 H   0  0  0  0  0  0  0  0  0  0  0  0
    5.0212   -0.5466   -1.2051 H   0  0  0  0  0  0  0  0  0  0  0  0
    3.2734   -2.9523   -1.1990 H   0  0  0  0  0  0  0  0  0  0  0  0
    2.2040   -3.6294   -2.9525 H   0  0  0  0  0  0  0  0  0  0  0  0
    3.1038   -3.3986   -4.4576 H   0  0  0  0  0  0  0  0  0  0  0  0
    1.8097   -2.2750   -4.0178 H   0  0  0  0  0  0  0  0  0  0  0  0
    9.0602   -2.5914    0.0906 H   0  0  0  0  0  0  0  0  0  0  0  0
    7.9094   -4.9265    0.7981 H   0  0  0  0  0  0  0  0  0  0  0  0
  1  2  1  0
  1 15  1  0
  1 16  1  0
  1 17  1  0
  2  3  1  0
  3  4  2  0
  3  5  1  0
  5  6  1  0
  5 10  1  0
  5 18  1  6
  6  7  1  0
  6 19  1  0
  7  8  1  0
  7  9  2  0
  8 20  1  0
  8 21  1  0
  8 22  1  0
 10 14  1  0
 10 11  2  0
 11 12  1  0
 12 13  2  0
 12 23  1  0
 13 14  1  0
 13 24  1  0
M  END
>  <i_m_ct_stereo_status>  (49) 
1

>  <s_m_source_file>  (49) 
/var/tmp/pbs.5076255.sched01/tmpoa2zap1w/0_chicbso.sdf

>  <i_m_source_file_index>  (49) 
23

>  <i_lp_mmshare_version>  (49) 
48012

>  <i_f3d_flags>  (49) 
0

>  <s_epik_input>  (49) 
W0NIM11PQyg9TylbQ0BIXShbTkhdQyg9TylbQ0gzXSljMW5bY0hdW2NIXXMx

>  <s_epik_cmdline>  (49) 
J2VwaWtfcHl0aG9uJywgJy1waHQnLCAnMi4wJywgJy1waCcsICc3LjAnLCAnLXRuJywgJzgnLCAnLW1hJywgJzIwMCcsICctaW1hZScsICc8aW5maWxlLm1hZT4nLCAnLW9tYWUnLCAnPG91dGZpbGUubWFlPic=

>  <r_lp_tautomer_probability>  (49) 
1

>  <r_epik_Ionization_Penalty>  (49) 
7.9044e-07

>  <r_epik_Ionization_Penalty_Charging>  (49) 
0

>  <r_epik_Ionization_Penalty_Neutral>  (49) 
7.9044e-07

>  <r_epik_State_Penalty>  (49) 
-0

>  <r_epik_Charging_Adjusted_Penalty>  (49) 
0

>  <i_epik_Tot_Q>  (49) 
0

>  <i_epik_Tot_abs_Q>  (49) 
0

>  <s_epik_Chemistry_Notes>  (49) 
This compound has an ester and may undergo hydrolysis at high or low pH.

>  <s_lp_Force_Field>  (49) 
OPLS3e

>  <r_lp_Energy>  (49) 
12.2969

>  <b_lp_Chiralities_Consistent>  (49) 
1

>  <s_lp_Variant>  (49) 
19:0-1

>  <s_i_glide_gridfile>  (49) 
pfpi4k_grid

>  <i_i_glide_lignum>  (49) 
23

>  <i_i_glide_rotatable_bonds>  (49) 
5

>  <r_i_docking_score>  (49) 
-4.07238

>  <r_i_glide_ligand_efficiency>  (49) 
-0.290884

>  <r_i_glide_ligand_efficiency_sa>  (49) 
-0.701073

>  <r_i_glide_ligand_efficiency_ln>  (49) 
-1.11908

>  <r_i_glide_gscore>  (49) 
-4.07238

>  <r_i_glide_lipo>  (49) 
-0.646693

>  <r_i_glide_hbond>  (49) 
-0.151342

>  <r_i_glide_metal>  (49) 
-0

>  <r_i_glide_rewards>  (49) 
-1.97719

>  <r_i_glide_evdw>  (49) 
-25.3741

>  <r_i_glide_ecoul>  (49) 
-4.59026

>  <r_i_glide_erotb>  (49) 
0.727822

>  <r_i_glide_esite>  (49) 
-0.0677328

>  <r_i_glide_emodel>  (49) 
-36.9678

>  <r_i_glide_energy>  (49) 
-29.9644

>  <r_i_glide_einternal>  (49) 
1.10922

>  <r_i_glide_intrahb_reward>  (49) 
-0

>  <i_i_glide_confnum>  (49) 
2

>  <i_i_glide_posenum>  (49) 
5

>  <r_i_glide_eff_state_penalty>  (49) 
0

>  <ligand_id>  (49) 
19

>  <original_smiles>  (49) 
COC(=O)C(NC(C)=O)c1nccs1

>  <smiles>  (49) 
[H]c1nc(C([H])(C(=O)OC([H])([H])[H])N([H])C(=O)C([H])([H])[H])sc1[H]

$$$$
19:0:1
     RDKit          3D

 24 24  0  0  1  0  0  0  0  0999 V2000
   -1.5450   -1.4089    5.3413 C   0  0  0  0  0  0  0  0  0  0  0  0
   -1.3266   -0.2669    4.5405 O   0  0  0  0  0  0  0  0  0  0  0  0
   -1.3870    0.9599    5.0809 C   0  0  0  0  0  0  0  0  0  0  0  0
   -1.7376    1.1786    6.2446 O   0  0  0  0  0  0  0  0  0  0  0  0
   -1.0526    2.0665    4.0410 C   0  0  2  0  0  0  0  0  0  0  0  0
   -2.1832    2.2716    3.1503 N   0  0  0  0  0  0  0  0  0  0  0  0
   -2.7723    3.4502    2.9069 C   0  0  0  0  0  0  0  0  0  0  0  0
   -4.1195    3.4136    2.1843 C   0  0  0  0  0  0  0  0  0  0  0  0
   -2.3053    4.5298    3.2760 O   0  0  0  0  0  0  0  0  0  0  0  0
    0.1734    1.7021    3.2275 C   0  0  0  0  0  0  0  0  0  0  0  0
    0.2666    0.6617    2.3786 N   0  0  0  0  0  0  0  0  0  0  0  0
    1.5321    0.5492    1.8008 C   0  0  0  0  0  0  0  0  0  0  0  0
    2.3899    1.5466    2.1702 C   0  0  0  0  0  0  0  0  0  0  0  0
    1.6529    2.6608    3.2812 S   0  0  0  0  0  0  0  0  0  0  0  0
   -1.3786   -2.3058    4.7469 H   0  0  0  0  0  0  0  0  0  0  0  0
   -2.5744   -1.4227    5.7012 H   0  0  0  0  0  0  0  0  0  0  0  0
   -0.8625   -1.4397    6.1930 H   0  0  0  0  0  0  0  0  0  0  0  0
   -0.8399    2.9886    4.5845 H   0  0  0  0  0  0  0  0  0  0  0  0
   -2.6687    1.4428    2.8135 H   0  0  0  0  0  0  0  0  0  0  0  0
   -4.3924    2.4039    1.8890 H   0  0  0  0  0  0  0  0  0  0  0  0
   -4.1202    4.0193    1.2795 H   0  0  0  0  0  0  0  0  0  0  0  0
   -4.9045    3.8030    2.8305 H   0  0  0  0  0  0  0  0  0  0  0  0
    1.7401   -0.2714    1.1338 H   0  0  0  0  0  0  0  0  0  0  0  0
    3.4049    1.7039    1.8506 H   0  0  0  0  0  0  0  0  0  0  0  0
  1  2  1  0
  1 15  1  0
  1 16  1  0
  1 17  1  0
  2  3  1  0
  3  4  2  0
  3  5  1  0
  5  6  1  0
  5 10  1  0
  5 18  1  1
  6  7  1  0
  6 19  1  0
  7  8  1  0
  7  9  2  0
  8 20  1  0
  8 21  1  0
  8 22  1  0
 10 14  1  0
 10 11  2  0
 11 12  1  0
 12 13  2  0
 12 23  1  0
 13 14  1  0
 13 24  1  0
M  END
>  <i_m_ct_stereo_status>  (50) 
1

>  <s_m_source_file>  (50) 
/var/tmp/pbs.5076255.sched01/tmpoa2zap1w/0_chicbso.sdf

>  <i_m_source_file_index>  (50) 
23

>  <i_lp_mmshare_version>  (50) 
48012

>  <i_f3d_flags>  (50) 
0

>  <s_epik_input>  (50) 
W0NIM11PQyg9TylbQ0BIXShbTkhdQyg9TylbQ0gzXSljMW5bY0hdW2NIXXMx

>  <s_epik_cmdline>  (50) 
J2VwaWtfcHl0aG9uJywgJy1waHQnLCAnMi4wJywgJy1waCcsICc3LjAnLCAnLXRuJywgJzgnLCAnLW1hJywgJzIwMCcsICctaW1hZScsICc8aW5maWxlLm1hZT4nLCAnLW9tYWUnLCAnPG91dGZpbGUubWFlPic=

>  <r_lp_tautomer_probability>  (50) 
1

>  <r_epik_Ionization_Penalty>  (50) 
7.9044e-07

>  <r_epik_Ionization_Penalty_Charging>  (50) 
0

>  <r_epik_Ionization_Penalty_Neutral>  (50) 
7.9044e-07

>  <r_epik_State_Penalty>  (50) 
-0

>  <r_epik_Charging_Adjusted_Penalty>  (50) 
0

>  <i_epik_Tot_Q>  (50) 
0

>  <i_epik_Tot_abs_Q>  (50) 
0

>  <s_epik_Chemistry_Notes>  (50) 
This compound has an ester and may undergo hydrolysis at high or low pH.

>  <s_lp_Force_Field>  (50) 
OPLS3e

>  <r_lp_Energy>  (50) 
12.2969

>  <b_lp_Chiralities_Consistent>  (50) 
1

>  <s_lp_Variant>  (50) 
19:0-1

>  <s_i_glide_gridfile>  (50) 
pfpi4k_grid

>  <i_i_glide_lignum>  (50) 
23

>  <i_i_glide_rotatable_bonds>  (50) 
5

>  <r_i_docking_score>  (50) 
-4.03202

>  <r_i_glide_ligand_efficiency>  (50) 
-0.288001

>  <r_i_glide_ligand_efficiency_sa>  (50) 
-0.694124

>  <r_i_glide_ligand_efficiency_ln>  (50) 
-1.10798

>  <r_i_glide_gscore>  (50) 
-4.03202

>  <r_i_glide_lipo>  (50) 
-0.223931

>  <r_i_glide_hbond>  (50) 
-0.48

>  <r_i_glide_metal>  (50) 
-0

>  <r_i_glide_rewards>  (50) 
-1.94835

>  <r_i_glide_evdw>  (50) 
-20.2794

>  <r_i_glide_ecoul>  (50) 
-6.59939

>  <r_i_glide_erotb>  (50) 
0.727822

>  <r_i_glide_esite>  (50) 
-0.103682

>  <r_i_glide_emodel>  (50) 
-33.5034

>  <r_i_glide_energy>  (50) 
-26.8788

>  <r_i_glide_einternal>  (50) 
1.14564

>  <r_i_glide_intrahb_reward>  (50) 
-0

>  <i_i_glide_confnum>  (50) 
2

>  <i_i_glide_posenum>  (50) 
4

>  <r_i_glide_eff_state_penalty>  (50) 
0

>  <ligand_id>  (50) 
19

>  <original_smiles>  (50) 
COC(=O)C(NC(C)=O)c1nccs1

>  <smiles>  (50) 
[H]c1nc(C([H])(C(=O)OC([H])([H])[H])N([H])C(=O)C([H])([H])[H])sc1[H]

$$$$
19:0:2
     RDKit          3D

 24 24  0  0  1  0  0  0  0  0999 V2000
    3.8113   -0.2994   -3.6598 C   0  0  0  0  0  0  0  0  0  0  0  0
    4.2913   -1.0094   -2.5322 O   0  0  0  0  0  0  0  0  0  0  0  0
    4.1610   -2.3499   -2.4838 C   0  0  0  0  0  0  0  0  0  0  0  0
    3.8421   -3.0562   -3.4404 O   0  0  0  0  0  0  0  0  0  0  0  0
    4.4218   -2.8739   -1.0502 C   0  0  2  0  0  0  0  0  0  0  0  0
    3.8514   -1.9540   -0.0696 N   0  0  0  0  0  0  0  0  0  0  0  0
    3.0282   -2.2879    0.9303 C   0  0  0  0  0  0  0  0  0  0  0  0
    2.4471   -1.1362    1.7444 C   0  0  0  0  0  0  0  0  0  0  0  0
    2.7324   -3.4497    1.2039 O   0  0  0  0  0  0  0  0  0  0  0  0
    5.8970   -3.0119   -0.7629 C   0  0  0  0  0  0  0  0  0  0  0  0
    6.8829   -2.2628   -1.2835 N   0  0  0  0  0  0  0  0  0  0  0  0
    8.1474   -2.6582   -0.8332 C   0  0  0  0  0  0  0  0  0  0  0  0
    8.1187   -3.6716    0.0878 C   0  0  0  0  0  0  0  0  0  0  0  0
    6.4931   -4.1974    0.4040 S   0  0  0  0  0  0  0  0  0  0  0  0
    4.0215    0.7642   -3.5304 H   0  0  0  0  0  0  0  0  0  0  0  0
    2.7320   -0.4217   -3.7458 H   0  0  0  0  0  0  0  0  0  0  0  0
    4.2899   -0.6379   -4.5801 H   0  0  0  0  0  0  0  0  0  0  0  0
    3.9641   -3.8612   -0.9514 H   0  0  0  0  0  0  0  0  0  0  0  0
    3.9589   -0.9700   -0.2718 H   0  0  0  0  0  0  0  0  0  0  0  0
    2.7971   -0.1683    1.3799 H   0  0  0  0  0  0  0  0  0  0  0  0
    2.7322   -1.2330    2.7917 H   0  0  0  0  0  0  0  0  0  0  0  0
    1.3575   -1.1398    1.6802 H   0  0  0  0  0  0  0  0  0  0  0  0
    9.0146   -2.1477   -1.2224 H   0  0  0  0  0  0  0  0  0  0  0  0
    8.9423   -4.1397    0.5997 H   0  0  0  0  0  0  0  0  0  0  0  0
  1  2  1  0
  1 15  1  0
  1 16  1  0
  1 17  1  0
  2  3  1  0
  3  4  2  0
  3  5  1  0
  5  6  1  0
  5 10  1  0
  5 18  1  6
  6  7  1  0
  6 19  1  0
  7  8  1  0
  7  9  2  0
  8 20  1  0
  8 21  1  0
  8 22  1  0
 10 14  1  0
 10 11  2  0
 11 12  1  0
 12 13  2  0
 12 23  1  0
 13 14  1  0
 13 24  1  0
M  END
>  <i_m_ct_stereo_status>  (51) 
1

>  <s_m_source_file>  (51) 
/var/tmp/pbs.5076255.sched01/tmpoa2zap1w/0_chicbso.sdf

>  <i_m_source_file_index>  (51) 
23

>  <i_lp_mmshare_version>  (51) 
48012

>  <i_f3d_flags>  (51) 
0

>  <s_epik_input>  (51) 
W0NIM11PQyg9TylbQ0BIXShbTkhdQyg9TylbQ0gzXSljMW5bY0hdW2NIXXMx

>  <s_epik_cmdline>  (51) 
J2VwaWtfcHl0aG9uJywgJy1waHQnLCAnMi4wJywgJy1waCcsICc3LjAnLCAnLXRuJywgJzgnLCAnLW1hJywgJzIwMCcsICctaW1hZScsICc8aW5maWxlLm1hZT4nLCAnLW9tYWUnLCAnPG91dGZpbGUubWFlPic=

>  <r_lp_tautomer_probability>  (51) 
1

>  <r_epik_Ionization_Penalty>  (51) 
7.9044e-07

>  <r_epik_Ionization_Penalty_Charging>  (51) 
0

>  <r_epik_Ionization_Penalty_Neutral>  (51) 
7.9044e-07

>  <r_epik_State_Penalty>  (51) 
-0

>  <r_epik_Charging_Adjusted_Penalty>  (51) 
0

>  <i_epik_Tot_Q>  (51) 
0

>  <i_epik_Tot_abs_Q>  (51) 
0

>  <s_epik_Chemistry_Notes>  (51) 
This compound has an ester and may undergo hydrolysis at high or low pH.

>  <s_lp_Force_Field>  (51) 
OPLS3e

>  <r_lp_Energy>  (51) 
12.2969

>  <b_lp_Chiralities_Consistent>  (51) 
1

>  <s_lp_Variant>  (51) 
19:0-1

>  <s_i_glide_gridfile>  (51) 
pfpi4k_grid

>  <i_i_glide_lignum>  (51) 
23

>  <i_i_glide_rotatable_bonds>  (51) 
5

>  <r_i_docking_score>  (51) 
-3.7918

>  <r_i_glide_ligand_efficiency>  (51) 
-0.270843

>  <r_i_glide_ligand_efficiency_sa>  (51) 
-0.65277

>  <r_i_glide_ligand_efficiency_ln>  (51) 
-1.04197

>  <r_i_glide_gscore>  (51) 
-3.7918

>  <r_i_glide_lipo>  (51) 
-0.591068

>  <r_i_glide_hbond>  (51) 
-0.16

>  <r_i_glide_metal>  (51) 
-0

>  <r_i_glide_rewards>  (51) 
-2.07179

>  <r_i_glide_evdw>  (51) 
-24.5396

>  <r_i_glide_ecoul>  (51) 
-2.61661

>  <r_i_glide_erotb>  (51) 
0.727822

>  <r_i_glide_esite>  (51) 
-0.0772941

>  <r_i_glide_emodel>  (51) 
-31.9794

>  <r_i_glide_energy>  (51) 
-27.1562

>  <r_i_glide_einternal>  (51) 
4.19048

>  <r_i_glide_intrahb_reward>  (51) 
-0

>  <i_i_glide_confnum>  (51) 
4

>  <i_i_glide_posenum>  (51) 
2

>  <r_i_glide_eff_state_penalty>  (51) 
0

>  <ligand_id>  (51) 
19

>  <original_smiles>  (51) 
COC(=O)C(NC(C)=O)c1nccs1

>  <smiles>  (51) 
[H]c1nc(C([H])(C(=O)OC([H])([H])[H])N([H])C(=O)C([H])([H])[H])sc1[H]

$$$$
21:0:0
     RDKit          3D

 25 26  0  0  1  0  0  0  0  0999 V2000
    8.3104   -2.5596   -1.2032 C   0  0  0  0  0  0  0  0  0  0  0  0
    6.9401   -2.2471   -0.7833 N   0  0  0  0  0  0  0  0  0  0  0  0
    6.9928   -2.0946    0.6702 C   0  0  0  0  0  0  0  0  0  0  0  0
    6.0149   -3.3164   -1.2236 C   0  0  2  0  0  0  0  0  0  0  0  0
    5.7468   -3.1866   -2.7589 C   0  0  0  0  0  0  0  0  0  0  0  0
    4.4916   -2.3586   -3.1300 C   0  0  0  0  0  0  0  0  0  0  0  0
    3.2326   -2.9110   -2.4465 C   0  0  0  0  0  0  0  0  0  0  0  0
    3.5244   -3.2237   -1.0697 N   0  0  0  0  0  0  0  0  0  0  0  0
    2.5552   -3.4694   -0.1676 N   0  0  0  0  0  0  0  0  0  0  0  0
    3.1506   -3.8101    0.9350 N   0  0  0  0  0  0  0  0  0  0  0  0
    4.5210   -3.8283    0.7733 N   0  0  0  0  0  0  0  0  0  0  0  0
    4.7023   -3.4335   -0.4806 C   0  0  0  0  0  0  0  0  0  0  0  0
    8.4197   -2.6799   -2.2804 H   0  0  0  0  0  0  0  0  0  0  0  0
    8.6708   -3.4731   -0.7305 H   0  0  0  0  0  0  0  0  0  0  0  0
    8.9962   -1.7664   -0.9042 H   0  0  0  0  0  0  0  0  0  0  0  0
    6.0463   -1.7050    1.0504 H   0  0  0  0  0  0  0  0  0  0  0  0
    7.7620   -1.3801    0.9618 H   0  0  0  0  0  0  0  0  0  0  0  0
    7.1998   -3.0438    1.1697 H   0  0  0  0  0  0  0  0  0  0  0  0
    6.5166   -4.2549   -1.0263 H   0  0  0  0  0  0  0  0  0  0  0  0
    6.6072   -2.8247   -3.3107 H   0  0  0  0  0  0  0  0  0  0  0  0
    5.5622   -4.1901   -3.1428 H   0  0  0  0  0  0  0  0  0  0  0  0
    4.6378   -1.3236   -2.8133 H   0  0  0  0  0  0  0  0  0  0  0  0
    4.3371   -2.3409   -4.2117 H   0  0  0  0  0  0  0  0  0  0  0  0
    2.4079   -2.2023   -2.4811 H   0  0  0  0  0  0  0  0  0  0  0  0
    2.8981   -3.8281   -2.9356 H   0  0  0  0  0  0  0  0  0  0  0  0
  1  2  1  0
  1 13  1  0
  1 14  1  0
  1 15  1  0
  2  3  1  0
  2  4  1  0
  3 16  1  0
  3 17  1  0
  3 18  1  0
  4 12  1  0
  4  5  1  0
  4 19  1  6
  5  6  1  0
  5 20  1  0
  5 21  1  0
  6  7  1  0
  6 22  1  0
  6 23  1  0
  7  8  1  0
  7 24  1  0
  7 25  1  0
  8 12  1  0
  8  9  1  0
  9 10  2  0
 10 11  1  0
 11 12  2  0
M  END
>  <i_m_ct_stereo_status>  (52) 
1

>  <s_m_source_file>  (52) 
/var/tmp/pbs.5076255.sched01/tmpoa2zap1w/0_chicbso.sdf

>  <i_m_source_file_index>  (52) 
25

>  <i_lp_mmshare_version>  (52) 
48012

>  <i_f3d_flags>  (52) 
0

>  <s_epik_input>  (52) 
W0NIMl0xW0NIMl1bQ0gyXVtDQEBIXShOKFtDSDNdKVtDSDNdKWMobjEyKW5ubjI=

>  <s_epik_cmdline>  (52) 
J2VwaWtfcHl0aG9uJywgJy1waHQnLCAnMi4wJywgJy1waCcsICc3LjAnLCAnLXRuJywgJzgnLCAnLW1hJywgJzIwMCcsICctaW1hZScsICc8aW5maWxlLm1hZT4nLCAnLW9tYWUnLCAnPG91dGZpbGUubWFlPic=

>  <r_lp_tautomer_probability>  (52) 
1

>  <r_epik_Ionization_Penalty>  (52) 
0.15999

>  <r_epik_Ionization_Penalty_Charging>  (52) 
0

>  <r_epik_Ionization_Penalty_Neutral>  (52) 
0.15999

>  <r_epik_State_Penalty>  (52) 
0.1493

>  <r_epik_Charging_Adjusted_Penalty>  (52) 
0.1493

>  <i_epik_Tot_Q>  (52) 
0

>  <i_epik_Tot_abs_Q>  (52) 
0

>  <s_lp_Force_Field>  (52) 
OPLS3e

>  <r_lp_Energy>  (52) 
18.757

>  <b_lp_Chiralities_Consistent>  (52) 
1

>  <s_lp_Variant>  (52) 
21:0-1

>  <s_i_glide_gridfile>  (52) 
pfpi4k_grid

>  <i_i_glide_lignum>  (52) 
25

>  <i_i_glide_rotatable_bonds>  (52) 
1

>  <r_i_docking_score>  (52) 
-4.24603

>  <r_i_glide_ligand_efficiency>  (52) 
-0.353836

>  <r_i_glide_ligand_efficiency_sa>  (52) 
-0.810082

>  <r_i_glide_ligand_efficiency_ln>  (52) 
-1.21841

>  <r_i_glide_gscore>  (52) 
-4.24603

>  <r_i_glide_lipo>  (52) 
-0.506541

>  <r_i_glide_hbond>  (52) 
-0.157292

>  <r_i_glide_metal>  (52) 
-0

>  <r_i_glide_rewards>  (52) 
-2.3487

>  <r_i_glide_evdw>  (52) 
-15.5372

>  <r_i_glide_ecoul>  (52) 
-2.78917

>  <r_i_glide_erotb>  (52) 
0

>  <r_i_glide_esite>  (52) 
-0.0382597

>  <r_i_glide_emodel>  (52) 
-22.0421

>  <r_i_glide_energy>  (52) 
-18.3263

>  <r_i_glide_einternal>  (52) 
3.0666

>  <r_i_glide_intrahb_reward>  (52) 
-0

>  <i_i_glide_confnum>  (52) 
2

>  <i_i_glide_posenum>  (52) 
38

>  <r_i_glide_eff_state_penalty>  (52) 
0

>  <ligand_id>  (52) 
21

>  <original_smiles>  (52) 
CN(C)C1CCCn2nnnc21

>  <smiles>  (52) 
[H]C([H])([H])N(C([H])([H])[H])C1([H])c2nnnn2C([H])([H])C([H])([H])C1([H])[H]

$$$$
21:0:1
     RDKit          3D

 25 26  0  0  1  0  0  0  0  0999 V2000
    7.2027   -2.2752   -0.1096 C   0  0  0  0  0  0  0  0  0  0  0  0
    6.1486   -1.8684   -1.0375 N   0  0  0  0  0  0  0  0  0  0  0  0
    5.3351   -0.8235   -0.4207 C   0  0  0  0  0  0  0  0  0  0  0  0
    5.3670   -3.0183   -1.5454 C   0  0  2  0  0  0  0  0  0  0  0  0
    4.5877   -2.6493   -2.8400 C   0  0  0  0  0  0  0  0  0  0  0  0
    3.0974   -2.2919   -2.6165 C   0  0  0  0  0  0  0  0  0  0  0  0
    2.3585   -3.3910   -1.8371 C   0  0  0  0  0  0  0  0  0  0  0  0
    3.1720   -3.8568   -0.7341 N   0  0  0  0  0  0  0  0  0  0  0  0
    2.6692   -4.6166    0.2688 N   0  0  0  0  0  0  0  0  0  0  0  0
    3.6802   -4.9471    1.0175 N   0  0  0  0  0  0  0  0  0  0  0  0
    4.8645   -4.4216    0.5284 N   0  0  0  0  0  0  0  0  0  0  0  0
    4.4908   -3.7518   -0.5569 C   0  0  0  0  0  0  0  0  0  0  0  0
    7.8480   -3.0321   -0.5588 H   0  0  0  0  0  0  0  0  0  0  0  0
    6.8018   -2.6706    0.8251 H   0  0  0  0  0  0  0  0  0  0  0  0
    7.8332   -1.4224    0.1439 H   0  0  0  0  0  0  0  0  0  0  0  0
    4.6823   -0.3490   -1.1542 H   0  0  0  0  0  0  0  0  0  0  0  0
    5.9774   -0.0408   -0.0135 H   0  0  0  0  0  0  0  0  0  0  0  0
    4.7266   -1.2043    0.4027 H   0  0  0  0  0  0  0  0  0  0  0  0
    6.1131   -3.7495   -1.8624 H   0  0  0  0  0  0  0  0  0  0  0  0
    5.0951   -1.8825   -3.4217 H   0  0  0  0  0  0  0  0  0  0  0  0
    4.5859   -3.5401   -3.4712 H   0  0  0  0  0  0  0  0  0  0  0  0
    3.0193   -1.3670   -2.0462 H   0  0  0  0  0  0  0  0  0  0  0  0
    2.5926   -2.1039   -3.5682 H   0  0  0  0  0  0  0  0  0  0  0  0
    1.3987   -3.0566   -1.4615 H   0  0  0  0  0  0  0  0  0  0  0  0
    2.1369   -4.2297   -2.4918 H   0  0  0  0  0  0  0  0  0  0  0  0
  1  2  1  0
  1 13  1  0
  1 14  1  0
  1 15  1  0
  2  3  1  0
  2  4  1  0
  3 16  1  0
  3 17  1  0
  3 18  1  0
  4 12  1  0
  4  5  1  0
  4 19  1  6
  5  6  1  0
  5 20  1  0
  5 21  1  0
  6  7  1  0
  6 22  1  0
  6 23  1  0
  7  8  1  0
  7 24  1  0
  7 25  1  0
  8 12  1  0
  8  9  1  0
  9 10  2  0
 10 11  1  0
 11 12  2  0
M  END
>  <i_m_ct_stereo_status>  (53) 
1

>  <s_m_source_file>  (53) 
/var/tmp/pbs.5076255.sched01/tmpoa2zap1w/0_chicbso.sdf

>  <i_m_source_file_index>  (53) 
25

>  <i_lp_mmshare_version>  (53) 
48012

>  <i_f3d_flags>  (53) 
0

>  <s_epik_input>  (53) 
W0NIMl0xW0NIMl1bQ0gyXVtDQEBIXShOKFtDSDNdKVtDSDNdKWMobjEyKW5ubjI=

>  <s_epik_cmdline>  (53) 
J2VwaWtfcHl0aG9uJywgJy1waHQnLCAnMi4wJywgJy1waCcsICc3LjAnLCAnLXRuJywgJzgnLCAnLW1hJywgJzIwMCcsICctaW1hZScsICc8aW5maWxlLm1hZT4nLCAnLW9tYWUnLCAnPG91dGZpbGUubWFlPic=

>  <r_lp_tautomer_probability>  (53) 
1

>  <r_epik_Ionization_Penalty>  (53) 
0.15999

>  <r_epik_Ionization_Penalty_Charging>  (53) 
0

>  <r_epik_Ionization_Penalty_Neutral>  (53) 
0.15999

>  <r_epik_State_Penalty>  (53) 
0.1493

>  <r_epik_Charging_Adjusted_Penalty>  (53) 
0.1493

>  <i_epik_Tot_Q>  (53) 
0

>  <i_epik_Tot_abs_Q>  (53) 
0

>  <s_lp_Force_Field>  (53) 
OPLS3e

>  <r_lp_Energy>  (53) 
18.757

>  <b_lp_Chiralities_Consistent>  (53) 
1

>  <s_lp_Variant>  (53) 
21:0-1

>  <s_i_glide_gridfile>  (53) 
pfpi4k_grid

>  <i_i_glide_lignum>  (53) 
25

>  <i_i_glide_rotatable_bonds>  (53) 
1

>  <r_i_docking_score>  (53) 
-4.08253

>  <r_i_glide_ligand_efficiency>  (53) 
-0.34021

>  <r_i_glide_ligand_efficiency_sa>  (53) 
-0.778888

>  <r_i_glide_ligand_efficiency_ln>  (53) 
-1.17149

>  <r_i_glide_gscore>  (53) 
-4.08253

>  <r_i_glide_lipo>  (53) 
-0.321144

>  <r_i_glide_hbond>  (53) 
-0.105273

>  <r_i_glide_metal>  (53) 
-0

>  <r_i_glide_rewards>  (53) 
-2.27233

>  <r_i_glide_evdw>  (53) 
-15.1237

>  <r_i_glide_ecoul>  (53) 
-3.84995

>  <r_i_glide_erotb>  (53) 
0

>  <r_i_glide_esite>  (53) 
-0.0501025

>  <r_i_glide_emodel>  (53) 
-24.1897

>  <r_i_glide_energy>  (53) 
-18.9737

>  <r_i_glide_einternal>  (53) 
0.0670478

>  <r_i_glide_intrahb_reward>  (53) 
-0

>  <i_i_glide_confnum>  (53) 
2

>  <i_i_glide_posenum>  (53) 
19

>  <r_i_glide_eff_state_penalty>  (53) 
0

>  <ligand_id>  (53) 
21

>  <original_smiles>  (53) 
CN(C)C1CCCn2nnnc21

>  <smiles>  (53) 
[H]C([H])([H])N(C([H])([H])[H])C1([H])c2nnnn2C([H])([H])C([H])([H])C1([H])[H]

$$$$
21:0:2
     RDKit          3D

 25 26  0  0  1  0  0  0  0  0999 V2000
    6.0167   -1.1528    0.4071 C   0  0  0  0  0  0  0  0  0  0  0  0
    6.5613   -2.4986    0.2635 N   0  0  0  0  0  0  0  0  0  0  0  0
    8.0155   -2.4377    0.0867 C   0  0  0  0  0  0  0  0  0  0  0  0
    5.8737   -3.3293   -0.7460 C   0  0  2  0  0  0  0  0  0  0  0  0
    5.9872   -2.7704   -2.1967 C   0  0  0  0  0  0  0  0  0  0  0  0
    4.7780   -1.9052   -2.6379 C   0  0  0  0  0  0  0  0  0  0  0  0
    3.4516   -2.6606   -2.4724 C   0  0  0  0  0  0  0  0  0  0  0  0
    3.4301   -3.3482   -1.2038 N   0  0  0  0  0  0  0  0  0  0  0  0
    2.2954   -3.8635   -0.6832 N   0  0  0  0  0  0  0  0  0  0  0  0
    2.6436   -4.4858    0.4095 N   0  0  0  0  0  0  0  0  0  0  0  0
    4.0131   -4.3950    0.6271 N   0  0  0  0  0  0  0  0  0  0  0  0
    4.4488   -3.6856   -0.4076 C   0  0  0  0  0  0  0  0  0  0  0  0
    4.9406   -1.1777    0.5908 H   0  0  0  0  0  0  0  0  0  0  0  0
    6.2094   -0.5473   -0.4762 H   0  0  0  0  0  0  0  0  0  0  0  0
    6.4866   -0.6573    1.2563 H   0  0  0  0  0  0  0  0  0  0  0  0
    8.4548   -3.4332    0.1843 H   0  0  0  0  0  0  0  0  0  0  0  0
    8.4554   -1.7993    0.8541 H   0  0  0  0  0  0  0  0  0  0  0  0
    8.3338   -2.0267   -0.8711 H   0  0  0  0  0  0  0  0  0  0  0  0
    6.4027   -4.2835   -0.7228 H   0  0  0  0  0  0  0  0  0  0  0  0
    6.9235   -2.2573   -2.3830 H   0  0  0  0  0  0  0  0  0  0  0  0
    6.0055   -3.6290   -2.8707 H   0  0  0  0  0  0  0  0  0  0  0  0
    4.7225   -0.9976   -2.0325 H   0  0  0  0  0  0  0  0  0  0  0  0
    4.8926   -1.5721   -3.6725 H   0  0  0  0  0  0  0  0  0  0  0  0
    2.5998   -1.9847   -2.5245 H   0  0  0  0  0  0  0  0  0  0  0  0
    3.3383   -3.4073   -3.2591 H   0  0  0  0  0  0  0  0  0  0  0  0
  1  2  1  0
  1 13  1  0
  1 14  1  0
  1 15  1  0
  2  3  1  0
  2  4  1  0
  3 16  1  0
  3 17  1  0
  3 18  1  0
  4 12  1  0
  4  5  1  0
  4 19  1  6
  5  6  1  0
  5 20  1  0
  5 21  1  0
  6  7  1  0
  6 22  1  0
  6 23  1  0
  7  8  1  0
  7 24  1  0
  7 25  1  0
  8 12  1  0
  8  9  1  0
  9 10  2  0
 10 11  1  0
 11 12  2  0
M  END
>  <i_m_ct_stereo_status>  (54) 
1

>  <s_m_source_file>  (54) 
/var/tmp/pbs.5076255.sched01/tmpoa2zap1w/0_chicbso.sdf

>  <i_m_source_file_index>  (54) 
25

>  <i_lp_mmshare_version>  (54) 
48012

>  <i_f3d_flags>  (54) 
0

>  <s_epik_input>  (54) 
W0NIMl0xW0NIMl1bQ0gyXVtDQEBIXShOKFtDSDNdKVtDSDNdKWMobjEyKW5ubjI=

>  <s_epik_cmdline>  (54) 
J2VwaWtfcHl0aG9uJywgJy1waHQnLCAnMi4wJywgJy1waCcsICc3LjAnLCAnLXRuJywgJzgnLCAnLW1hJywgJzIwMCcsICctaW1hZScsICc8aW5maWxlLm1hZT4nLCAnLW9tYWUnLCAnPG91dGZpbGUubWFlPic=

>  <r_lp_tautomer_probability>  (54) 
1

>  <r_epik_Ionization_Penalty>  (54) 
0.15999

>  <r_epik_Ionization_Penalty_Charging>  (54) 
0

>  <r_epik_Ionization_Penalty_Neutral>  (54) 
0.15999

>  <r_epik_State_Penalty>  (54) 
0.1493

>  <r_epik_Charging_Adjusted_Penalty>  (54) 
0.1493

>  <i_epik_Tot_Q>  (54) 
0

>  <i_epik_Tot_abs_Q>  (54) 
0

>  <s_lp_Force_Field>  (54) 
OPLS3e

>  <r_lp_Energy>  (54) 
18.757

>  <b_lp_Chiralities_Consistent>  (54) 
1

>  <s_lp_Variant>  (54) 
21:0-1

>  <s_i_glide_gridfile>  (54) 
pfpi4k_grid

>  <i_i_glide_lignum>  (54) 
25

>  <i_i_glide_rotatable_bonds>  (54) 
1

>  <r_i_docking_score>  (54) 
-3.66465

>  <r_i_glide_ligand_efficiency>  (54) 
-0.305388

>  <r_i_glide_ligand_efficiency_sa>  (54) 
-0.699163

>  <r_i_glide_ligand_efficiency_ln>  (54) 
-1.05158

>  <r_i_glide_gscore>  (54) 
-3.66465

>  <r_i_glide_lipo>  (54) 
-0.397

>  <r_i_glide_hbond>  (54) 
0

>  <r_i_glide_metal>  (54) 
-0

>  <r_i_glide_rewards>  (54) 
-2.37037

>  <r_i_glide_evdw>  (54) 
-16.6345

>  <r_i_glide_ecoul>  (54) 
0.18908

>  <r_i_glide_erotb>  (54) 
0

>  <r_i_glide_esite>  (54) 
-0.0939217

>  <r_i_glide_emodel>  (54) 
-20.8111

>  <r_i_glide_energy>  (54) 
-16.4454

>  <r_i_glide_einternal>  (54) 
0.383544

>  <r_i_glide_intrahb_reward>  (54) 
-0

>  <i_i_glide_confnum>  (54) 
2

>  <i_i_glide_posenum>  (54) 
24

>  <r_i_glide_eff_state_penalty>  (54) 
0

>  <ligand_id>  (54) 
21

>  <original_smiles>  (54) 
CN(C)C1CCCn2nnnc21

>  <smiles>  (54) 
[H]C([H])([H])N(C([H])([H])[H])C1([H])c2nnnn2C([H])([H])C([H])([H])C1([H])[H]

$$$$
21:1:0
     RDKit          3D

 26 27  0  0  1  0  0  0  0  0999 V2000
    2.2714   -0.9244    1.7008 C   0  0  0  0  0  0  0  0  0  0  0  0
    3.0568   -1.0713    0.4502 N   0  0  0  0  0  0  0  0  0  0  0  0
    4.2530   -0.1881    0.4616 C   0  0  0  0  0  0  0  0  0  0  0  0
    3.3365   -2.4958    0.0785 C   0  0  2  0  0  0  0  0  0  0  0  0
    4.2805   -3.2331    1.0739 C   0  0  0  0  0  0  0  0  0  0  0  0
    5.7741   -3.2172    0.6752 C   0  0  0  0  0  0  0  0  0  0  0  0
    5.9685   -3.7335   -0.7529 C   0  0  0  0  0  0  0  0  0  0  0  0
    5.0250   -3.0927   -1.6376 N   0  0  0  0  0  0  0  0  0  0  0  0
    5.2054   -3.0510   -2.9765 N   0  0  0  0  0  0  0  0  0  0  0  0
    4.1618   -2.4548   -3.4670 N   0  0  0  0  0  0  0  0  0  0  0  0
    3.2797   -2.0838   -2.4553 N   0  0  0  0  0  0  0  0  0  0  0  0
    3.8575   -2.5168   -1.3418 C   0  0  0  0  0  0  0  0  0  0  0  0
    2.7753   -1.3455    2.5782 H   0  0  0  0  0  0  0  0  0  0  0  0
    1.2833   -1.3963    1.6161 H   0  0  0  0  0  0  0  0  0  0  0  0
    2.1177    0.1370    1.9184 H   0  0  0  0  0  0  0  0  0  0  0  0
    4.9233   -0.4629    1.2770 H   0  0  0  0  0  0  0  0  0  0  0  0
    3.9640    0.8481    0.6419 H   0  0  0  0  0  0  0  0  0  0  0  0
    4.8102   -0.2296   -0.4770 H   0  0  0  0  0  0  0  0  0  0  0  0
    2.3692   -3.0058    0.0437 H   0  0  0  0  0  0  0  0  0  0  0  0
    4.1823   -2.8914    2.1016 H   0  0  0  0  0  0  0  0  0  0  0  0
    3.9749   -4.2783    1.0858 H   0  0  0  0  0  0  0  0  0  0  0  0
    6.1701   -2.2012    0.7115 H   0  0  0  0  0  0  0  0  0  0  0  0
    6.3718   -3.8021    1.3799 H   0  0  0  0  0  0  0  0  0  0  0  0
    6.9788   -3.5362   -1.1089 H   0  0  0  0  0  0  0  0  0  0  0  0
    5.7903   -4.8102   -0.7875 H   0  0  0  0  0  0  0  0  0  0  0  0
    2.4071   -0.7566   -0.2831 H   0  0  0  0  0  0  0  0  0  0  0  0
  1  2  1  0
  1 13  1  0
  1 14  1  0
  1 15  1  0
  2  3  1  0
  2  4  1  0
  2 26  1  0
  3 16  1  0
  3 17  1  0
  3 18  1  0
  4 12  1  0
  4  5  1  0
  4 19  1  6
  5  6  1  0
  5 20  1  0
  5 21  1  0
  6  7  1  0
  6 22  1  0
  6 23  1  0
  7  8  1  0
  7 24  1  0
  7 25  1  0
  8 12  1  0
  8  9  1  0
  9 10  2  0
 10 11  1  0
 11 12  2  0
M  CHG  1   2   1
M  END
>  <i_m_ct_stereo_status>  (55) 
1

>  <s_m_source_file>  (55) 
/var/tmp/pbs.5076255.sched01/tmpoa2zap1w/0_chicbso.sdf

>  <i_m_source_file_index>  (55) 
26

>  <i_lp_mmshare_version>  (55) 
48012

>  <i_f3d_flags>  (55) 
0

>  <s_epik_input>  (55) 
W0NIMl0xW0NIMl1bQ0gyXVtDQEBIXShOKFtDSDNdKVtDSDNdKWMobjEyKW5ubjI=

>  <s_epik_cmdline>  (55) 
J2VwaWtfcHl0aG9uJywgJy1waHQnLCAnMi4wJywgJy1waCcsICc3LjAnLCAnLXRuJywgJzgnLCAnLW1hJywgJzIwMCcsICctaW1hZScsICc8aW5maWxlLm1hZT4nLCAnLW9tYWUnLCAnPG91dGZpbGUubWFlPic=

>  <r_lp_tautomer_probability>  (55) 
1

>  <r_epik_Ionization_Penalty>  (55) 
0.853889

>  <r_epik_Ionization_Penalty_Charging>  (55) 
0.853889

>  <r_epik_Ionization_Penalty_Neutral>  (55) 
2.03523e-11

>  <r_epik_State_Penalty>  (55) 
0.889746

>  <r_epik_Charging_Adjusted_Penalty>  (55) 
1.74363

>  <i_epik_Tot_Q>  (55) 
1

>  <i_epik_Tot_abs_Q>  (55) 
1

>  <s_lp_Force_Field>  (55) 
OPLS3e

>  <r_lp_Energy>  (55) 
20.0085

>  <b_lp_Chiralities_Consistent>  (55) 
1

>  <s_lp_Variant>  (55) 
21:0-2

>  <s_i_glide_gridfile>  (55) 
pfpi4k_grid

>  <i_i_glide_lignum>  (55) 
26

>  <i_i_glide_rotatable_bonds>  (55) 
1

>  <r_i_docking_score>  (55) 
-4.59767

>  <r_i_glide_ligand_efficiency>  (55) 
-0.383139

>  <r_i_glide_ligand_efficiency_sa>  (55) 
-0.87717

>  <r_i_glide_ligand_efficiency_ln>  (55) 
-1.31931

>  <r_i_glide_gscore>  (55) 
-4.59767

>  <r_i_glide_lipo>  (55) 
-0.261738

>  <r_i_glide_hbond>  (55) 
-0.161941

>  <r_i_glide_metal>  (55) 
-0

>  <r_i_glide_rewards>  (55) 
-2.30718

>  <r_i_glide_evdw>  (55) 
-16.626

>  <r_i_glide_ecoul>  (55) 
-5.8261

>  <r_i_glide_erotb>  (55) 
0

>  <r_i_glide_esite>  (55) 
-0.161598

>  <r_i_glide_emodel>  (55) 
-28.8199

>  <r_i_glide_energy>  (55) 
-22.4521

>  <r_i_glide_einternal>  (55) 
1.38995

>  <r_i_glide_intrahb_reward>  (55) 
-0

>  <i_i_glide_confnum>  (55) 
1

>  <i_i_glide_posenum>  (55) 
2

>  <r_i_glide_eff_state_penalty>  (55) 
0

>  <ligand_id>  (55) 
21

>  <original_smiles>  (55) 
CN(C)C1CCCn2nnnc21

>  <smiles>  (55) 
[H]C1([H])n2nnnc2C([H])([N+]([H])(C([H])([H])[H])C([H])([H])[H])C([H])([H])C1([H])[H]

$$$$
21:1:1
     RDKit          3D

 26 27  0  0  1  0  0  0  0  0999 V2000
    5.9840   -2.9868   -0.4276 C   0  0  0  0  0  0  0  0  0  0  0  0
    5.1669   -1.9789    0.2974 N   0  0  0  0  0  0  0  0  0  0  0  0
    5.9286   -0.7376    0.5791 C   0  0  0  0  0  0  0  0  0  0  0  0
    3.7647   -1.7529   -0.1935 C   0  0  2  0  0  0  0  0  0  0  0  0
    2.7998   -2.8664    0.2954 C   0  0  0  0  0  0  0  0  0  0  0  0
    2.5416   -3.9913   -0.7345 C   0  0  0  0  0  0  0  0  0  0  0  0
    2.1286   -3.4323   -2.1097 C   0  0  0  0  0  0  0  0  0  0  0  0
    3.0267   -2.3600   -2.4796 N   0  0  0  0  0  0  0  0  0  0  0  0
    3.1896   -1.9529   -3.7599 N   0  0  0  0  0  0  0  0  0  0  0  0
    4.0107   -0.9444   -3.7200 N   0  0  0  0  0  0  0  0  0  0  0  0
    4.4234   -0.6823   -2.4213 N   0  0  0  0  0  0  0  0  0  0  0  0
    3.7775   -1.5841   -1.6956 C   0  0  0  0  0  0  0  0  0  0  0  0
    6.1767   -2.6984   -1.4619 H   0  0  0  0  0  0  0  0  0  0  0  0
    5.5149   -3.9720   -0.4066 H   0  0  0  0  0  0  0  0  0  0  0  0
    6.9538   -3.0919    0.0634 H   0  0  0  0  0  0  0  0  0  0  0  0
    6.2089   -0.2301   -0.3407 H   0  0  0  0  0  0  0  0  0  0  0  0
    6.8482   -0.9799    1.1178 H   0  0  0  0  0  0  0  0  0  0  0  0
    5.3631   -0.0441    1.2075 H   0  0  0  0  0  0  0  0  0  0  0  0
    3.4028   -0.8144    0.2276 H   0  0  0  0  0  0  0  0  0  0  0  0
    3.1094   -3.2740    1.2580 H   0  0  0  0  0  0  0  0  0  0  0  0
    1.8366   -2.3943    0.4873 H   0  0  0  0  0  0  0  0  0  0  0  0
    3.4544   -4.5713   -0.8633 H   0  0  0  0  0  0  0  0  0  0  0  0
    1.7887   -4.6930   -0.3743 H   0  0  0  0  0  0  0  0  0  0  0  0
    2.1375   -4.1884   -2.8920 H   0  0  0  0  0  0  0  0  0  0  0  0
    1.1096   -3.0486   -2.0734 H   0  0  0  0  0  0  0  0  0  0  0  0
    5.0239   -2.3722    1.2160 H   0  0  0  0  0  0  0  0  0  0  0  0
  1  2  1  0
  1 13  1  0
  1 14  1  0
  1 15  1  0
  2  3  1  0
  2  4  1  0
  2 26  1  0
  3 16  1  0
  3 17  1  0
  3 18  1  0
  4 12  1  0
  4  5  1  0
  4 19  1  1
  5  6  1  0
  5 20  1  0
  5 21  1  0
  6  7  1  0
  6 22  1  0
  6 23  1  0
  7  8  1  0
  7 24  1  0
  7 25  1  0
  8 12  1  0
  8  9  1  0
  9 10  2  0
 10 11  1  0
 11 12  2  0
M  CHG  1   2   1
M  END
>  <i_m_ct_stereo_status>  (56) 
1

>  <s_m_source_file>  (56) 
/var/tmp/pbs.5076255.sched01/tmpoa2zap1w/0_chicbso.sdf

>  <i_m_source_file_index>  (56) 
26

>  <i_lp_mmshare_version>  (56) 
48012

>  <i_f3d_flags>  (56) 
0

>  <s_epik_input>  (56) 
W0NIMl0xW0NIMl1bQ0gyXVtDQEBIXShOKFtDSDNdKVtDSDNdKWMobjEyKW5ubjI=

>  <s_epik_cmdline>  (56) 
J2VwaWtfcHl0aG9uJywgJy1waHQnLCAnMi4wJywgJy1waCcsICc3LjAnLCAnLXRuJywgJzgnLCAnLW1hJywgJzIwMCcsICctaW1hZScsICc8aW5maWxlLm1hZT4nLCAnLW9tYWUnLCAnPG91dGZpbGUubWFlPic=

>  <r_lp_tautomer_probability>  (56) 
1

>  <r_epik_Ionization_Penalty>  (56) 
0.853889

>  <r_epik_Ionization_Penalty_Charging>  (56) 
0.853889

>  <r_epik_Ionization_Penalty_Neutral>  (56) 
2.03523e-11

>  <r_epik_State_Penalty>  (56) 
0.889746

>  <r_epik_Charging_Adjusted_Penalty>  (56) 
1.74363

>  <i_epik_Tot_Q>  (56) 
1

>  <i_epik_Tot_abs_Q>  (56) 
1

>  <s_lp_Force_Field>  (56) 
OPLS3e

>  <r_lp_Energy>  (56) 
20.0085

>  <b_lp_Chiralities_Consistent>  (56) 
1

>  <s_lp_Variant>  (56) 
21:0-2

>  <s_i_glide_gridfile>  (56) 
pfpi4k_grid

>  <i_i_glide_lignum>  (56) 
26

>  <i_i_glide_rotatable_bonds>  (56) 
1

>  <r_i_docking_score>  (56) 
-4.45637

>  <r_i_glide_ligand_efficiency>  (56) 
-0.371365

>  <r_i_glide_ligand_efficiency_sa>  (56) 
-0.850213

>  <r_i_glide_ligand_efficiency_ln>  (56) 
-1.27876

>  <r_i_glide_gscore>  (56) 
-4.45637

>  <r_i_glide_lipo>  (56) 
-0.367103

>  <r_i_glide_hbond>  (56) 
0

>  <r_i_glide_metal>  (56) 
-0

>  <r_i_glide_rewards>  (56) 
-2.25

>  <r_i_glide_evdw>  (56) 
-18.7328

>  <r_i_glide_ecoul>  (56) 
-5.2526

>  <r_i_glide_erotb>  (56) 
0

>  <r_i_glide_esite>  (56) 
-0.11474

>  <r_i_glide_emodel>  (56) 
-30.974

>  <r_i_glide_energy>  (56) 
-23.9854

>  <r_i_glide_einternal>  (56) 
0.223832

>  <r_i_glide_intrahb_reward>  (56) 
-0

>  <i_i_glide_confnum>  (56) 
2

>  <i_i_glide_posenum>  (56) 
36

>  <r_i_glide_eff_state_penalty>  (56) 
0

>  <ligand_id>  (56) 
21

>  <original_smiles>  (56) 
CN(C)C1CCCn2nnnc21

>  <smiles>  (56) 
[H]C1([H])n2nnnc2C([H])([N+]([H])(C([H])([H])[H])C([H])([H])[H])C([H])([H])C1([H])[H]

$$$$
21:1:2
     RDKit          3D

 26 27  0  0  1  0  0  0  0  0999 V2000
    3.0359   -0.7779   -3.5171 C   0  0  0  0  0  0  0  0  0  0  0  0
    2.8719   -1.8460   -2.4865 N   0  0  0  0  0  0  0  0  0  0  0  0
    2.5242   -3.1306   -3.1281 C   0  0  0  0  0  0  0  0  0  0  0  0
    3.9963   -1.9005   -1.4906 C   0  0  2  0  0  0  0  0  0  0  0  0
    5.3760   -2.2308   -2.1202 C   0  0  0  0  0  0  0  0  0  0  0  0
    5.7529   -3.7249   -2.1089 C   0  0  0  0  0  0  0  0  0  0  0  0
    5.6526   -4.3211   -0.7016 C   0  0  0  0  0  0  0  0  0  0  0  0
    4.3985   -3.9312   -0.1152 N   0  0  0  0  0  0  0  0  0  0  0  0
    3.8586   -4.6024    0.9275 N   0  0  0  0  0  0  0  0  0  0  0  0
    2.7909   -3.9435    1.2624 N   0  0  0  0  0  0  0  0  0  0  0  0
    2.6181   -2.8290    0.4575 N   0  0  0  0  0  0  0  0  0  0  0  0
    3.6296   -2.8805   -0.3953 C   0  0  0  0  0  0  0  0  0  0  0  0
    3.9252   -0.8937   -4.1393 H   0  0  0  0  0  0  0  0  0  0  0  0
    3.0792    0.2147   -3.0688 H   0  0  0  0  0  0  0  0  0  0  0  0
    2.2060   -0.7893   -4.2289 H   0  0  0  0  0  0  0  0  0  0  0  0
    3.3346   -3.4772   -3.7748 H   0  0  0  0  0  0  0  0  0  0  0  0
    1.6423   -3.0226   -3.7639 H   0  0  0  0  0  0  0  0  0  0  0  0
    2.2948   -3.8907   -2.3859 H   0  0  0  0  0  0  0  0  0  0  0  0
    4.0435   -0.9199   -1.0151 H   0  0  0  0  0  0  0  0  0  0  0  0
    5.4679   -1.8594   -3.1282 H   0  0  0  0  0  0  0  0  0  0  0  0
    6.1336   -1.7120   -1.5306 H   0  0  0  0  0  0  0  0  0  0  0  0
    5.0790   -4.2977   -2.7472 H   0  0  0  0  0  0  0  0  0  0  0  0
    6.7560   -3.8508   -2.5197 H   0  0  0  0  0  0  0  0  0  0  0  0
    5.7066   -5.4062   -0.7151 H   0  0  0  0  0  0  0  0  0  0  0  0
    6.4578   -3.9465   -0.0675 H   0  0  0  0  0  0  0  0  0  0  0  0
    2.0536   -1.5703   -1.9263 H   0  0  0  0  0  0  0  0  0  0  0  0
  1  2  1  0
  1 13  1  0
  1 14  1  0
  1 15  1  0
  2  3  1  0
  2  4  1  0
  2 26  1  0
  3 16  1  0
  3 17  1  0
  3 18  1  0
  4 12  1  0
  4  5  1  0
  4 19  1  1
  5  6  1  0
  5 20  1  0
  5 21  1  0
  6  7  1  0
  6 22  1  0
  6 23  1  0
  7  8  1  0
  7 24  1  0
  7 25  1  0
  8 12  1  0
  8  9  1  0
  9 10  2  0
 10 11  1  0
 11 12  2  0
M  CHG  1   2   1
M  END
>  <i_m_ct_stereo_status>  (57) 
1

>  <s_m_source_file>  (57) 
/var/tmp/pbs.5076255.sched01/tmpoa2zap1w/0_chicbso.sdf

>  <i_m_source_file_index>  (57) 
26

>  <i_lp_mmshare_version>  (57) 
48012

>  <i_f3d_flags>  (57) 
0

>  <s_epik_input>  (57) 
W0NIMl0xW0NIMl1bQ0gyXVtDQEBIXShOKFtDSDNdKVtDSDNdKWMobjEyKW5ubjI=

>  <s_epik_cmdline>  (57) 
J2VwaWtfcHl0aG9uJywgJy1waHQnLCAnMi4wJywgJy1waCcsICc3LjAnLCAnLXRuJywgJzgnLCAnLW1hJywgJzIwMCcsICctaW1hZScsICc8aW5maWxlLm1hZT4nLCAnLW9tYWUnLCAnPG91dGZpbGUubWFlPic=

>  <r_lp_tautomer_probability>  (57) 
1

>  <r_epik_Ionization_Penalty>  (57) 
0.853889

>  <r_epik_Ionization_Penalty_Charging>  (57) 
0.853889

>  <r_epik_Ionization_Penalty_Neutral>  (57) 
2.03523e-11

>  <r_epik_State_Penalty>  (57) 
0.889746

>  <r_epik_Charging_Adjusted_Penalty>  (57) 
1.74363

>  <i_epik_Tot_Q>  (57) 
1

>  <i_epik_Tot_abs_Q>  (57) 
1

>  <s_lp_Force_Field>  (57) 
OPLS3e

>  <r_lp_Energy>  (57) 
20.0085

>  <b_lp_Chiralities_Consistent>  (57) 
1

>  <s_lp_Variant>  (57) 
21:0-2

>  <s_i_glide_gridfile>  (57) 
pfpi4k_grid

>  <i_i_glide_lignum>  (57) 
26

>  <i_i_glide_rotatable_bonds>  (57) 
1

>  <r_i_docking_score>  (57) 
-4.42272

>  <r_i_glide_ligand_efficiency>  (57) 
-0.36856

>  <r_i_glide_ligand_efficiency_sa>  (57) 
-0.843792

>  <r_i_glide_ligand_efficiency_ln>  (57) 
-1.26911

>  <r_i_glide_gscore>  (57) 
-4.42272

>  <r_i_glide_lipo>  (57) 
-0.480214

>  <r_i_glide_hbond>  (57) 
-0.2

>  <r_i_glide_metal>  (57) 
-0

>  <r_i_glide_rewards>  (57) 
-2.2644

>  <r_i_glide_evdw>  (57) 
-13.8447

>  <r_i_glide_ecoul>  (57) 
-4.26468

>  <r_i_glide_erotb>  (57) 
0

>  <r_i_glide_esite>  (57) 
-0.146169

>  <r_i_glide_emodel>  (57) 
-23.8366

>  <r_i_glide_energy>  (57) 
-18.1094

>  <r_i_glide_einternal>  (57) 
1.96176

>  <r_i_glide_intrahb_reward>  (57) 
-0

>  <i_i_glide_confnum>  (57) 
2

>  <i_i_glide_posenum>  (57) 
8

>  <r_i_glide_eff_state_penalty>  (57) 
0

>  <ligand_id>  (57) 
21

>  <original_smiles>  (57) 
CN(C)C1CCCn2nnnc21

>  <smiles>  (57) 
[H]C1([H])n2nnnc2C([H])([N+]([H])(C([H])([H])[H])C([H])([H])[H])C([H])([H])C1([H])[H]

$$$$
23:0:0
     RDKit          3D

 59 62  0  0  1  0  0  0  0  0999 V2000
    0.8237  -10.8423    5.3074 C   0  0  0  0  0  0  0  0  0  0  0  0
    0.2698  -10.0879    4.1519 N   0  0  0  0  0  0  0  0  0  0  0  0
    0.4974  -10.7695    2.8443 C   0  0  0  0  0  0  0  0  0  0  0  0
    0.5013   -8.5947    4.1869 C   0  0  2  0  0  0  0  0  0  0  0  0
   -0.5518   -7.8222    3.3564 C   0  0  0  0  0  0  0  0  0  0  0  0
    0.1162   -7.4635    2.0147 C   0  0  0  0  0  0  0  0  0  0  0  0
    1.6228   -7.7670    2.1591 C   0  0  1  0  0  0  0  0  0  0  0  0
    2.5291   -6.7183    1.4518 C   0  0  2  0  0  0  0  0  0  0  0  0
    3.9163   -7.2736    1.0670 C   0  0  0  0  0  0  0  0  0  0  0  0
    4.7429   -6.2399    0.2944 C   0  0  0  0  0  0  0  0  0  0  0  0
    4.9087   -4.9092    1.0552 C   0  0  1  0  0  0  0  0  0  0  0  0
    5.7462   -3.9096    0.2222 C   0  0  0  0  0  0  0  0  0  0  0  0
    4.9720   -3.2696   -0.9334 C   0  0  0  0  0  0  0  0  0  0  0  0
    5.4703   -3.1202   -2.0398 O   0  0  0  0  0  0  0  0  0  0  0  0
    3.5548   -2.7811   -0.6146 C   0  0  0  0  0  0  0  0  0  0  0  0
    2.7788   -3.8033    0.2333 C   0  0  0  0  0  0  0  0  0  0  0  0
    3.5341   -4.3136    1.5003 C   0  0  2  0  0  0  0  0  0  0  0  0
    3.7545   -3.0982    2.4386 C   0  0  0  0  0  0  0  0  0  0  0  0
    2.6777   -5.3961    2.2503 C   0  0  2  0  0  0  0  0  0  0  0  0
    3.1358   -5.7426    3.6897 C   0  0  0  0  0  0  0  0  0  0  0  0
    2.1198   -6.6634    4.3902 C   0  0  0  0  0  0  0  0  0  0  0  0
    1.8736   -8.0238    3.6748 C   0  0  1  0  0  0  0  0  0  0  0  0
    3.1212   -8.9098    3.9797 C   0  0  0  0  0  0  0  0  0  0  0  0
    1.9055  -10.8705    5.3291 H   0  0  0  0  0  0  0  0  0  0  0  0
    0.3946  -11.8681    5.2727 H   0  0  0  0  0  0  0  0  0  0  0  0
    0.4327  -10.4087    6.2495 H   0  0  0  0  0  0  0  0  0  0  0  0
    1.5152  -10.7981    2.5325 H   0  0  0  0  0  0  0  0  0  0  0  0
   -0.1561  -10.3483    2.0688 H   0  0  0  0  0  0  0  0  0  0  0  0
    0.2315  -11.8190    2.9486 H   0  0  0  0  0  0  0  0  0  0  0  0
    0.3324   -8.2820    5.2108 H   0  0  0  0  0  0  0  0  0  0  0  0
   -1.5090   -8.3384    3.2287 H   0  0  0  0  0  0  0  0  0  0  0  0
   -0.7988   -6.8787    3.8504 H   0  0  0  0  0  0  0  0  0  0  0  0
   -0.3284   -8.0640    1.2129 H   0  0  0  0  0  0  0  0  0  0  0  0
   -0.0879   -6.4174    1.7465 H   0  0  0  0  0  0  0  0  0  0  0  0
    1.7620   -8.7070    1.6261 H   0  0  0  0  0  0  0  0  0  0  0  0
    2.0319   -6.4960    0.5063 H   0  0  0  0  0  0  0  0  0  0  0  0
    4.4928   -7.5589    1.9362 H   0  0  0  0  0  0  0  0  0  0  0  0
    3.8140   -8.1853    0.4800 H   0  0  0  0  0  0  0  0  0  0  0  0
    5.7337   -6.6500    0.1137 H   0  0  0  0  0  0  0  0  0  0  0  0
    4.2922   -6.0904   -0.6854 H   0  0  0  0  0  0  0  0  0  0  0  0
    5.4899   -5.1258    1.9548 H   0  0  0  0  0  0  0  0  0  0  0  0
    6.1012   -3.1016    0.8566 H   0  0  0  0  0  0  0  0  0  0  0  0
    6.6337   -4.4006   -0.1774 H   0  0  0  0  0  0  0  0  0  0  0  0
    3.6275   -1.8302   -0.0872 H   0  0  0  0  0  0  0  0  0  0  0  0
    3.0156   -2.5718   -1.5397 H   0  0  0  0  0  0  0  0  0  0  0  0
    1.8380   -3.3500    0.5254 H   0  0  0  0  0  0  0  0  0  0  0  0
    2.5365   -4.6330   -0.4349 H   0  0  0  0  0  0  0  0  0  0  0  0
    2.8028   -2.7403    2.8381 H   0  0  0  0  0  0  0  0  0  0  0  0
    4.2217   -2.2550    1.9293 H   0  0  0  0  0  0  0  0  0  0  0  0
    4.4084   -3.3396    3.2761 H   0  0  0  0  0  0  0  0  0  0  0  0
    1.6849   -4.9637    2.3692 H   0  0  0  0  0  0  0  0  0  0  0  0
    4.1285   -6.1936    3.6924 H   0  0  0  0  0  0  0  0  0  0  0  0
    3.2263   -4.8506    4.3103 H   0  0  0  0  0  0  0  0  0  0  0  0
    2.4843   -6.8686    5.3983 H   0  0  0  0  0  0  0  0  0  0  0  0
    1.1998   -6.1023    4.5262 H   0  0  0  0  0  0  0  0  0  0  0  0
    4.0638   -8.3598    3.7895 H   0  0  0  0  0  0  0  0  0  0  0  0
    3.1494   -9.8230    3.4066 H   0  0  0  0  0  0  0  0  0  0  0  0
    3.1500   -9.1649    5.0320 H   0  0  0  0  0  0  0  0  0  0  0  0
   -0.7405  -10.1708    4.3307 H   0  0  0  0  0  0  0  0  0  0  0  0
  1  2  1  0
  1 24  1  0
  1 25  1  0
  1 26  1  0
  2  3  1  0
  2  4  1  0
  2 59  1  0
  3 27  1  0
  3 28  1  0
  3 29  1  0
  4 22  1  0
  4  5  1  0
  4 30  1  1
  5  6  1  0
  5 31  1  0
  5 32  1  0
  6  7  1  0
  6 33  1  0
  6 34  1  0
  7 22  1  0
  7  8  1  0
  7 35  1  6
  8 19  1  0
  8  9  1  0
  8 36  1  6
  9 10  1  0
  9 37  1  0
  9 38  1  0
 10 11  1  0
 10 39  1  0
 10 40  1  0
 11 17  1  0
 11 12  1  0
 11 41  1  1
 12 13  1  0
 12 42  1  0
 12 43  1  0
 13 14  2  0
 13 15  1  0
 15 16  1  0
 15 44  1  0
 15 45  1  0
 16 17  1  0
 16 46  1  0
 16 47  1  0
 17 18  1  1
 17 19  1  0
 18 48  1  0
 18 49  1  0
 18 50  1  0
 19 20  1  0
 19 51  1  1
 20 21  1  0
 20 52  1  0
 20 53  1  0
 21 22  1  0
 21 54  1  0
 21 55  1  0
 22 23  1  6
 23 56  1  0
 23 57  1  0
 23 58  1  0
M  CHG  1   2   1
M  END
>  <i_m_ct_stereo_status>  (58) 
1

>  <s_m_source_file>  (58) 
/var/tmp/pbs.5076255.sched01/tmpoa2zap1w/0_chicbso.sdf

>  <i_m_source_file_index>  (58) 
28

>  <i_lp_mmshare_version>  (58) 
48012

>  <i_f3d_flags>  (58) 
0

>  <s_epik_input>  (58) 
W0NIM11OKFtDSDNdKVtDQEhdKFtDSDJdW0NIMl0xKVtDQF0oW0NIM10pKFtDSDJdW0NIMl1bQ0BIXTIzKVtDQEBIXTFbQ0BASF0yW0NIMl1bQ0gyXVtDQEhdKFtDQF0zNFtDSDNdKVtDSDJdQyg9TylbQ0gyXVtDSDJdNA==

>  <s_epik_cmdline>  (58) 
J2VwaWtfcHl0aG9uJywgJy1waHQnLCAnMi4wJywgJy1waCcsICc3LjAnLCAnLXRuJywgJzgnLCAnLW1hJywgJzIwMCcsICctaW1hZScsICc8aW5maWxlLm1hZT4nLCAnLW9tYWUnLCAnPG91dGZpbGUubWFlPic=

>  <r_lp_tautomer_probability>  (58) 
1

>  <r_epik_Ionization_Penalty>  (58) 
0.00042019

>  <r_epik_Ionization_Penalty_Charging>  (58) 
0.00042019

>  <r_epik_Ionization_Penalty_Neutral>  (58) 
1.28138e-13

>  <r_epik_State_Penalty>  (58) 
0.000258383

>  <r_epik_Charging_Adjusted_Penalty>  (58) 
0.000678573

>  <i_epik_Tot_Q>  (58) 
1

>  <i_epik_Tot_abs_Q>  (58) 
1

>  <s_lp_Force_Field>  (58) 
OPLS3e

>  <r_lp_Energy>  (58) 
55.8883

>  <b_lp_Chiralities_Consistent>  (58) 
1

>  <s_lp_Variant>  (58) 
23:0-1

>  <s_i_glide_gridfile>  (58) 
pfpi4k_grid

>  <i_i_glide_lignum>  (58) 
28

>  <i_i_glide_rotatable_bonds>  (58) 
1

>  <r_i_docking_score>  (58) 
-3.80972

>  <r_i_glide_ligand_efficiency>  (58) 
-0.16564

>  <r_i_glide_ligand_efficiency_sa>  (58) 
-0.471059

>  <r_i_glide_ligand_efficiency_ln>  (58) 
-0.921226

>  <r_i_glide_gscore>  (58) 
-3.80972

>  <r_i_glide_lipo>  (58) 
-0.446694

>  <r_i_glide_hbond>  (58) 
-0.2

>  <r_i_glide_metal>  (58) 
-0

>  <r_i_glide_rewards>  (58) 
-1.30218

>  <r_i_glide_evdw>  (58) 
-19.9633

>  <r_i_glide_ecoul>  (58) 
-5.29419

>  <r_i_glide_erotb>  (58) 
0

>  <r_i_glide_esite>  (58) 
-0.0685536

>  <r_i_glide_emodel>  (58) 
-32.275

>  <r_i_glide_energy>  (58) 
-25.2575

>  <r_i_glide_einternal>  (58) 
2.6459

>  <r_i_glide_intrahb_reward>  (58) 
-0

>  <i_i_glide_confnum>  (58) 
2

>  <i_i_glide_posenum>  (58) 
17

>  <r_i_glide_eff_state_penalty>  (58) 
0

>  <ligand_id>  (58) 
23

>  <original_smiles>  (58) 
CN(C)C1CCC2C3CCC4CC(=O)CCC4(C)C3CCC21C

>  <smiles>  (58) 
[H]C([H])([H])C12C([H])([H])C([H])([H])C(=O)C([H])([H])C1([H])C([H])([H])C([H])([H])C1([H])C2([H])C([H])([H])C([H])([H])C2(C([H])([H])[H])C1([H])C([H])([H])C([H])([H])C2([H])[N+]([H])(C([H])([H])[H])C([H])([H])[H]

$$$$
23:0:1
     RDKit          3D

 59 62  0  0  1  0  0  0  0  0999 V2000
    0.9419  -11.3985    4.5767 C   0  0  0  0  0  0  0  0  0  0  0  0
    0.2722  -10.2466    3.9102 N   0  0  0  0  0  0  0  0  0  0  0  0
    0.1756  -10.3807    2.4308 C   0  0  0  0  0  0  0  0  0  0  0  0
    0.6390   -8.8756    4.4295 C   0  0  2  0  0  0  0  0  0  0  0  0
   -0.4615   -7.8192    4.1296 C   0  0  0  0  0  0  0  0  0  0  0  0
    0.0026   -7.0200    2.9007 C   0  0  0  0  0  0  0  0  0  0  0  0
    1.4777   -7.3992    2.6362 C   0  0  1  0  0  0  0  0  0  0  0  0
    2.3531   -6.1925    2.1863 C   0  0  2  0  0  0  0  0  0  0  0  0
    3.5939   -6.6074    1.3663 C   0  0  0  0  0  0  0  0  0  0  0  0
    4.3757   -5.3930    0.8621 C   0  0  0  0  0  0  0  0  0  0  0  0
    4.7914   -4.4363    2.0041 C   0  0  1  0  0  0  0  0  0  0  0  0
    5.5747   -3.2254    1.4366 C   0  0  0  0  0  0  0  0  0  0  0  0
    4.6766   -2.1867    0.7698 C   0  0  0  0  0  0  0  0  0  0  0  0
    5.0013   -1.6534   -0.2966 O   0  0  0  0  0  0  0  0  0  0  0  0
    3.3920   -1.8019    1.5007 C   0  0  0  0  0  0  0  0  0  0  0  0
    2.6653   -3.0413    2.0671 C   0  0  0  0  0  0  0  0  0  0  0  0
    3.5816   -4.0033    2.8901 C   0  0  2  0  0  0  0  0  0  0  0  0
    4.0805   -3.2261    4.1370 C   0  0  0  0  0  0  0  0  0  0  0  0
    2.7637   -5.2639    3.3592 C   0  0  2  0  0  0  0  0  0  0  0  0
    3.4275   -6.1288    4.4612 C   0  0  0  0  0  0  0  0  0  0  0  0
    2.4614   -7.2094    4.9708 C   0  0  0  0  0  0  0  0  0  0  0  0
    1.9619   -8.2034    3.8831 C   0  0  1  0  0  0  0  0  0  0  0  0
    3.1385   -9.1897    3.5955 C   0  0  0  0  0  0  0  0  0  0  0  0
    1.9929  -11.4611    4.3449 H   0  0  0  0  0  0  0  0  0  0  0  0
    0.4259  -12.3310    4.2627 H   0  0  0  0  0  0  0  0  0  0  0  0
    0.7906  -11.3323    5.6701 H   0  0  0  0  0  0  0  0  0  0  0  0
    1.1140  -10.2820    1.9317 H   0  0  0  0  0  0  0  0  0  0  0  0
   -0.5700   -9.6717    2.0175 H   0  0  0  0  0  0  0  0  0  0  0  0
   -0.1628  -11.3922    2.1571 H   0  0  0  0  0  0  0  0  0  0  0  0
    0.6828   -8.9589    5.5148 H   0  0  0  0  0  0  0  0  0  0  0  0
   -1.4705   -8.2231    4.0301 H   0  0  0  0  0  0  0  0  0  0  0  0
   -0.5157   -7.1204    4.9618 H   0  0  0  0  0  0  0  0  0  0  0  0
   -0.6168   -7.2623    2.0320 H   0  0  0  0  0  0  0  0  0  0  0  0
   -0.1251   -5.9503    3.0821 H   0  0  0  0  0  0  0  0  0  0  0  0
    1.4335   -8.0791    1.7861 H   0  0  0  0  0  0  0  0  0  0  0  0
    1.7307   -5.6227    1.4977 H   0  0  0  0  0  0  0  0  0  0  0  0
    4.2765   -7.2142    1.9480 H   0  0  0  0  0  0  0  0  0  0  0  0
    3.3030   -7.2173    0.5161 H   0  0  0  0  0  0  0  0  0  0  0  0
    5.2681   -5.7476    0.3442 H   0  0  0  0  0  0  0  0  0  0  0  0
    3.7754   -4.8778    0.1137 H   0  0  0  0  0  0  0  0  0  0  0  0
    5.4958   -4.9842    2.6344 H   0  0  0  0  0  0  0  0  0  0  0  0
    6.1180   -2.7202    2.2327 H   0  0  0  0  0  0  0  0  0  0  0  0
    6.3259   -3.5617    0.7206 H   0  0  0  0  0  0  0  0  0  0  0  0
    3.6534   -1.1138    2.3044 H   0  0  0  0  0  0  0  0  0  0  0  0
    2.7354   -1.2476    0.8297 H   0  0  0  0  0  0  0  0  0  0  0  0
    1.8067   -2.7244    2.6591 H   0  0  0  0  0  0  0  0  0  0  0  0
    2.2490   -3.5565    1.2018 H   0  0  0  0  0  0  0  0  0  0  0  0
    3.2558   -3.0133    4.8176 H   0  0  0  0  0  0  0  0  0  0  0  0
    4.5385   -2.2730    3.8821 H   0  0  0  0  0  0  0  0  0  0  0  0
    4.8424   -3.7812    4.6848 H   0  0  0  0  0  0  0  0  0  0  0  0
    1.8529   -4.8761    3.8121 H   0  0  0  0  0  0  0  0  0  0  0  0
    4.3543   -6.5791    4.1085 H   0  0  0  0  0  0  0  0  0  0  0  0
    3.7057   -5.5322    5.3265 H   0  0  0  0  0  0  0  0  0  0  0  0
    2.9674   -7.7860    5.7448 H   0  0  0  0  0  0  0  0  0  0  0  0
    1.6363   -6.7128    5.4762 H   0  0  0  0  0  0  0  0  0  0  0  0
    4.0802   -8.6427    3.4219 H   0  0  0  0  0  0  0  0  0  0  0  0
    2.9594   -9.8264    2.7420 H   0  0  0  0  0  0  0  0  0  0  0  0
    3.3094   -9.8102    4.4705 H   0  0  0  0  0  0  0  0  0  0  0  0
   -0.7071  -10.3452    4.2613 H   0  0  0  0  0  0  0  0  0  0  0  0
  1  2  1  0
  1 24  1  0
  1 25  1  0
  1 26  1  0
  2  3  1  0
  2  4  1  0
  2 59  1  0
  3 27  1  0
  3 28  1  0
  3 29  1  0
  4 22  1  0
  4  5  1  0
  4 30  1  1
  5  6  1  0
  5 31  1  0
  5 32  1  0
  6  7  1  0
  6 33  1  0
  6 34  1  0
  7 22  1  0
  7  8  1  0
  7 35  1  6
  8 19  1  0
  8  9  1  0
  8 36  1  6
  9 10  1  0
  9 37  1  0
  9 38  1  0
 10 11  1  0
 10 39  1  0
 10 40  1  0
 11 17  1  0
 11 12  1  0
 11 41  1  1
 12 13  1  0
 12 42  1  0
 12 43  1  0
 13 14  2  0
 13 15  1  0
 15 16  1  0
 15 44  1  0
 15 45  1  0
 16 17  1  0
 16 46  1  0
 16 47  1  0
 17 18  1  1
 17 19  1  0
 18 48  1  0
 18 49  1  0
 18 50  1  0
 19 20  1  0
 19 51  1  1
 20 21  1  0
 20 52  1  0
 20 53  1  0
 21 22  1  0
 21 54  1  0
 21 55  1  0
 22 23  1  6
 23 56  1  0
 23 57  1  0
 23 58  1  0
M  CHG  1   2   1
M  END
>  <i_m_ct_stereo_status>  (59) 
1

>  <s_m_source_file>  (59) 
/var/tmp/pbs.5076255.sched01/tmpoa2zap1w/0_chicbso.sdf

>  <i_m_source_file_index>  (59) 
28

>  <i_lp_mmshare_version>  (59) 
48012

>  <i_f3d_flags>  (59) 
0

>  <s_epik_input>  (59) 
W0NIM11OKFtDSDNdKVtDQEhdKFtDSDJdW0NIMl0xKVtDQF0oW0NIM10pKFtDSDJdW0NIMl1bQ0BIXTIzKVtDQEBIXTFbQ0BASF0yW0NIMl1bQ0gyXVtDQEhdKFtDQF0zNFtDSDNdKVtDSDJdQyg9TylbQ0gyXVtDSDJdNA==

>  <s_epik_cmdline>  (59) 
J2VwaWtfcHl0aG9uJywgJy1waHQnLCAnMi4wJywgJy1waCcsICc3LjAnLCAnLXRuJywgJzgnLCAnLW1hJywgJzIwMCcsICctaW1hZScsICc8aW5maWxlLm1hZT4nLCAnLW9tYWUnLCAnPG91dGZpbGUubWFlPic=

>  <r_lp_tautomer_probability>  (59) 
1

>  <r_epik_Ionization_Penalty>  (59) 
0.00042019

>  <r_epik_Ionization_Penalty_Charging>  (59) 
0.00042019

>  <r_epik_Ionization_Penalty_Neutral>  (59) 
1.28138e-13

>  <r_epik_State_Penalty>  (59) 
0.000258383

>  <r_epik_Charging_Adjusted_Penalty>  (59) 
0.000678573

>  <i_epik_Tot_Q>  (59) 
1

>  <i_epik_Tot_abs_Q>  (59) 
1

>  <s_lp_Force_Field>  (59) 
OPLS3e

>  <r_lp_Energy>  (59) 
55.8883

>  <b_lp_Chiralities_Consistent>  (59) 
1

>  <s_lp_Variant>  (59) 
23:0-1

>  <s_i_glide_gridfile>  (59) 
pfpi4k_grid

>  <i_i_glide_lignum>  (59) 
28

>  <i_i_glide_rotatable_bonds>  (59) 
1

>  <r_i_docking_score>  (59) 
-3.54193

>  <r_i_glide_ligand_efficiency>  (59) 
-0.153997

>  <r_i_glide_ligand_efficiency_sa>  (59) 
-0.437947

>  <r_i_glide_ligand_efficiency_ln>  (59) 
-0.856471

>  <r_i_glide_gscore>  (59) 
-3.54193

>  <r_i_glide_lipo>  (59) 
-0.441966

>  <r_i_glide_hbond>  (59) 
-0.2

>  <r_i_glide_metal>  (59) 
-0

>  <r_i_glide_rewards>  (59) 
-1.25081

>  <r_i_glide_evdw>  (59) 
-16.5574

>  <r_i_glide_ecoul>  (59) 
-5.08494

>  <r_i_glide_erotb>  (59) 
0

>  <r_i_glide_esite>  (59) 
-0.0585433

>  <r_i_glide_emodel>  (59) 
-28.0156

>  <r_i_glide_energy>  (59) 
-21.6423

>  <r_i_glide_einternal>  (59) 
2.69404

>  <r_i_glide_intrahb_reward>  (59) 
-0

>  <i_i_glide_confnum>  (59) 
1

>  <i_i_glide_posenum>  (59) 
22

>  <r_i_glide_eff_state_penalty>  (59) 
0

>  <ligand_id>  (59) 
23

>  <original_smiles>  (59) 
CN(C)C1CCC2C3CCC4CC(=O)CCC4(C)C3CCC21C

>  <smiles>  (59) 
[H]C([H])([H])C12C([H])([H])C([H])([H])C(=O)C([H])([H])C1([H])C([H])([H])C([H])([H])C1([H])C2([H])C([H])([H])C([H])([H])C2(C([H])([H])[H])C1([H])C([H])([H])C([H])([H])C2([H])[N+]([H])(C([H])([H])[H])C([H])([H])[H]

$$$$
23:0:2
     RDKit          3D

 59 62  0  0  1  0  0  0  0  0999 V2000
    3.0312  -11.6383    3.3535 C   0  0  0  0  0  0  0  0  0  0  0  0
    2.0732  -10.9673    4.2359 N   0  0  0  0  0  0  0  0  0  0  0  0
    0.9194  -11.8283    4.5118 C   0  0  0  0  0  0  0  0  0  0  0  0
    1.6822   -9.5677    3.9066 C   0  0  2  0  0  0  0  0  0  0  0  0
    0.9422   -9.4422    2.5491 C   0  0  0  0  0  0  0  0  0  0  0  0
    1.9747   -8.9341    1.5396 C   0  0  0  0  0  0  0  0  0  0  0  0
    3.2222   -8.4677    2.3217 C   0  0  1  0  0  0  0  0  0  0  0  0
    3.8575   -7.1700    1.7364 C   0  0  2  0  0  0  0  0  0  0  0  0
    5.3573   -7.0196    2.0667 C   0  0  0  0  0  0  0  0  0  0  0  0
    5.9653   -5.7847    1.3849 C   0  0  0  0  0  0  0  0  0  0  0  0
    5.2130   -4.4779    1.7260 C   0  0  1  0  0  0  0  0  0  0  0  0
    5.8675   -3.2675    1.0092 C   0  0  0  0  0  0  0  0  0  0  0  0
    5.5161   -3.1858   -0.4750 C   0  0  0  0  0  0  0  0  0  0  0  0
    6.3705   -2.8936   -1.3204 O   0  0  0  0  0  0  0  0  0  0  0  0
    4.0597   -3.4138   -0.8585 C   0  0  0  0  0  0  0  0  0  0  0  0
    3.4527   -4.6144   -0.0967 C   0  0  0  0  0  0  0  0  0  0  0  0
    3.6837   -4.5842    1.4482 C   0  0  2  0  0  0  0  0  0  0  0  0
    2.9435   -3.3373    2.0029 C   0  0  0  0  0  0  0  0  0  0  0  0
    3.0833   -5.8834    2.1113 C   0  0  2  0  0  0  0  0  0  0  0  0
    2.9298   -5.8456    3.6561 C   0  0  0  0  0  0  0  0  0  0  0  0
    2.1725   -7.0864    4.1754 C   0  0  0  0  0  0  0  0  0  0  0  0
    2.8076   -8.4665    3.8187 C   0  0  1  0  0  0  0  0  0  0  0  0
    3.9743   -8.7337    4.7994 C   0  0  0  0  0  0  0  0  0  0  0  0
    2.6272  -11.7804    2.3494 H   0  0  0  0  0  0  0  0  0  0  0  0
    3.2660  -12.6349    3.7436 H   0  0  0  0  0  0  0  0  0  0  0  0
    4.0020  -11.1494    3.2409 H   0  0  0  0  0  0  0  0  0  0  0  0
    0.3449  -12.0592    3.6051 H   0  0  0  0  0  0  0  0  0  0  0  0
    0.2225  -11.4031    5.2491 H   0  0  0  0  0  0  0  0  0  0  0  0
    1.2469  -12.7938    4.9033 H   0  0  0  0  0  0  0  0  0  0  0  0
    0.9785   -9.2546    4.6845 H   0  0  0  0  0  0  0  0  0  0  0  0
    0.4393  -10.3404    2.2063 H   0  0  0  0  0  0  0  0  0  0  0  0
    0.1590   -8.6835    2.6414 H   0  0  0  0  0  0  0  0  0  0  0  0
    2.2514   -9.7405    0.8521 H   0  0  0  0  0  0  0  0  0  0  0  0
    1.5301   -8.1368    0.9441 H   0  0  0  0  0  0  0  0  0  0  0  0
    3.9564   -9.2587    2.1713 H   0  0  0  0  0  0  0  0  0  0  0  0
    3.8100   -7.2959    0.6554 H   0  0  0  0  0  0  0  0  0  0  0  0
    5.5191   -6.9312    3.1384 H   0  0  0  0  0  0  0  0  0  0  0  0
    5.9007   -7.9090    1.7495 H   0  0  0  0  0  0  0  0  0  0  0  0
    7.0052   -5.6928    1.6975 H   0  0  0  0  0  0  0  0  0  0  0  0
    5.9890   -5.9511    0.3092 H   0  0  0  0  0  0  0  0  0  0  0  0
    5.3480   -4.3081    2.7969 H   0  0  0  0  0  0  0  0  0  0  0  0
    5.5424   -2.3378    1.4725 H   0  0  0  0  0  0  0  0  0  0  0  0
    6.9504   -3.3042    1.1228 H   0  0  0  0  0  0  0  0  0  0  0  0
    3.4974   -2.5017   -0.6455 H   0  0  0  0  0  0  0  0  0  0  0  0
    3.9802   -3.5751   -1.9349 H   0  0  0  0  0  0  0  0  0  0  0  0
    2.3927   -4.6947   -0.3321 H   0  0  0  0  0  0  0  0  0  0  0  0
    3.9121   -5.5037   -0.5298 H   0  0  0  0  0  0  0  0  0  0  0  0
    1.8615   -3.4436    1.9111 H   0  0  0  0  0  0  0  0  0  0  0  0
    3.2138   -2.4186    1.4823 H   0  0  0  0  0  0  0  0  0  0  0  0
    3.1788   -3.1578    3.0527 H   0  0  0  0  0  0  0  0  0  0  0  0
    2.0694   -5.9784    1.7219 H   0  0  0  0  0  0  0  0  0  0  0  0
    3.8986   -5.7568    4.1502 H   0  0  0  0  0  0  0  0  0  0  0  0
    2.3589   -4.9740    3.9709 H   0  0  0  0  0  0  0  0  0  0  0  0
    2.0781   -6.9998    5.2610 H   0  0  0  0  0  0  0  0  0  0  0  0
    1.1550   -7.0158    3.7943 H   0  0  0  0  0  0  0  0  0  0  0  0
    4.6108   -7.8638    4.9228 H   0  0  0  0  0  0  0  0  0  0  0  0
    4.6352   -9.5340    4.4868 H   0  0  0  0  0  0  0  0  0  0  0  0
    3.6052   -8.9895    5.7917 H   0  0  0  0  0  0  0  0  0  0  0  0
    2.5368  -10.8845    5.1464 H   0  0  0  0  0  0  0  0  0  0  0  0
  1  2  1  0
  1 24  1  0
  1 25  1  0
  1 26  1  0
  2  3  1  0
  2  4  1  0
  2 59  1  0
  3 27  1  0
  3 28  1  0
  3 29  1  0
  4 22  1  0
  4  5  1  0
  4 30  1  1
  5  6  1  0
  5 31  1  0
  5 32  1  0
  6  7  1  0
  6 33  1  0
  6 34  1  0
  7 22  1  0
  7  8  1  0
  7 35  1  1
  8 19  1  0
  8  9  1  0
  8 36  1  6
  9 10  1  0
  9 37  1  0
  9 38  1  0
 10 11  1  0
 10 39  1  0
 10 40  1  0
 11 17  1  0
 11 12  1  0
 11 41  1  1
 12 13  1  0
 12 42  1  0
 12 43  1  0
 13 14  2  0
 13 15  1  0
 15 16  1  0
 15 44  1  0
 15 45  1  0
 16 17  1  0
 16 46  1  0
 16 47  1  0
 17 18  1  1
 17 19  1  0
 18 48  1  0
 18 49  1  0
 18 50  1  0
 19 20  1  0
 19 51  1  6
 20 21  1  0
 20 52  1  0
 20 53  1  0
 21 22  1  0
 21 54  1  0
 21 55  1  0
 22 23  1  1
 23 56  1  0
 23 57  1  0
 23 58  1  0
M  CHG  1   2   1
M  END
>  <i_m_ct_stereo_status>  (60) 
1

>  <s_m_source_file>  (60) 
/var/tmp/pbs.5076255.sched01/tmpoa2zap1w/0_chicbso.sdf

>  <i_m_source_file_index>  (60) 
28

>  <i_lp_mmshare_version>  (60) 
48012

>  <i_f3d_flags>  (60) 
0

>  <s_epik_input>  (60) 
W0NIM11OKFtDSDNdKVtDQEhdKFtDSDJdW0NIMl0xKVtDQF0oW0NIM10pKFtDSDJdW0NIMl1bQ0BIXTIzKVtDQEBIXTFbQ0BASF0yW0NIMl1bQ0gyXVtDQEhdKFtDQF0zNFtDSDNdKVtDSDJdQyg9TylbQ0gyXVtDSDJdNA==

>  <s_epik_cmdline>  (60) 
J2VwaWtfcHl0aG9uJywgJy1waHQnLCAnMi4wJywgJy1waCcsICc3LjAnLCAnLXRuJywgJzgnLCAnLW1hJywgJzIwMCcsICctaW1hZScsICc8aW5maWxlLm1hZT4nLCAnLW9tYWUnLCAnPG91dGZpbGUubWFlPic=

>  <r_lp_tautomer_probability>  (60) 
1

>  <r_epik_Ionization_Penalty>  (60) 
0.00042019

>  <r_epik_Ionization_Penalty_Charging>  (60) 
0.00042019

>  <r_epik_Ionization_Penalty_Neutral>  (60) 
1.28138e-13

>  <r_epik_State_Penalty>  (60) 
0.000258383

>  <r_epik_Charging_Adjusted_Penalty>  (60) 
0.000678573

>  <i_epik_Tot_Q>  (60) 
1

>  <i_epik_Tot_abs_Q>  (60) 
1

>  <s_lp_Force_Field>  (60) 
OPLS3e

>  <r_lp_Energy>  (60) 
55.8883

>  <b_lp_Chiralities_Consistent>  (60) 
1

>  <s_lp_Variant>  (60) 
23:0-1

>  <s_i_glide_gridfile>  (60) 
pfpi4k_grid

>  <i_i_glide_lignum>  (60) 
28

>  <i_i_glide_rotatable_bonds>  (60) 
1

>  <r_i_docking_score>  (60) 
-3.34013

>  <r_i_glide_ligand_efficiency>  (60) 
-0.145223

>  <r_i_glide_ligand_efficiency_sa>  (60) 
-0.412995

>  <r_i_glide_ligand_efficiency_ln>  (60) 
-0.807674

>  <r_i_glide_gscore>  (60) 
-3.34013

>  <r_i_glide_lipo>  (60) 
-0.384882

>  <r_i_glide_hbond>  (60) 
0

>  <r_i_glide_metal>  (60) 
-0

>  <r_i_glide_rewards>  (60) 
-1.30031

>  <r_i_glide_evdw>  (60) 
-18.7091

>  <r_i_glide_ecoul>  (60) 
-4.67678

>  <r_i_glide_erotb>  (60) 
0

>  <r_i_glide_esite>  (60) 
-0.0179659

>  <r_i_glide_emodel>  (60) 
-30.4814

>  <r_i_glide_energy>  (60) 
-23.3859

>  <r_i_glide_einternal>  (60) 
0.221449

>  <r_i_glide_intrahb_reward>  (60) 
-0

>  <i_i_glide_confnum>  (60) 
1

>  <i_i_glide_posenum>  (60) 
2

>  <r_i_glide_eff_state_penalty>  (60) 
0

>  <ligand_id>  (60) 
23

>  <original_smiles>  (60) 
CN(C)C1CCC2C3CCC4CC(=O)CCC4(C)C3CCC21C

>  <smiles>  (60) 
[H]C([H])([H])C12C([H])([H])C([H])([H])C(=O)C([H])([H])C1([H])C([H])([H])C([H])([H])C1([H])C2([H])C([H])([H])C([H])([H])C2(C([H])([H])[H])C1([H])C([H])([H])C([H])([H])C2([H])[N+]([H])(C([H])([H])[H])C([H])([H])[H]

$$$$
24:0:0
     RDKit          3D

 71 77  0  0  1  0  0  0  0  0999 V2000
    2.6309   -5.6484    1.1133 C   0  0  0  0  0  0  0  0  0  0  0  0
    2.5786   -4.3367    1.6501 O   0  0  0  0  0  0  0  0  0  0  0  0
    2.6169   -4.1691    2.9840 C   0  0  0  0  0  0  0  0  0  0  0  0
    2.6428   -5.0923    3.7966 O   0  0  0  0  0  0  0  0  0  0  0  0
    2.6246   -2.6770    3.4027 C   0  0  2  0  0  0  0  0  0  0  0  0
    3.8825   -1.9443    2.8575 C   0  0  2  0  0  0  0  0  0  0  0  0
    5.1138   -1.9449    3.7840 C   0  0  0  0  0  0  0  0  0  0  0  0
    4.8504   -2.5613    5.1630 C   0  0  0  0  0  0  0  0  0  0  0  0
    3.5675   -1.9687    5.7428 C   0  0  1  0  0  0  0  0  0  0  0  0
    3.7484   -0.5571    5.7168 O   0  0  0  0  0  0  0  0  0  0  0  0
    2.6111    0.2477    6.0043 C   0  0  0  0  0  0  0  0  0  0  0  0
    1.3924   -0.0714    5.0755 C   0  0  1  0  0  0  0  0  0  0  0  0
    0.2076    0.5977    5.5226 O   0  0  0  0  0  0  0  0  0  0  0  0
    0.0929    1.5353    6.5465 C   0  0  2  0  0  0  0  0  0  0  0  0
   -1.3492    2.0773    6.4621 C   0  0  0  0  0  0  0  0  0  0  0  0
   -1.5393    3.1779    5.4324 C   0  0  2  0  0  0  0  0  0  0  0  0
   -1.3038    3.0316    3.9231 C   0  0  2  0  0  0  0  0  0  0  0  0
   -2.2764    3.8387    3.0511 C   0  0  0  0  0  0  0  0  0  0  0  0
   -1.0233    1.6177    3.3189 C   0  0  1  0  0  0  0  0  0  0  0  0
   -1.7744    1.3845    2.1481 O   0  0  0  0  0  0  0  0  0  0  0  0
    0.4190    1.3084    2.8867 C   0  0  2  0  0  0  0  0  0  0  0  0
    0.6069   -0.0774    2.6278 O   0  0  0  0  0  0  0  0  0  0  0  0
    1.5375    0.4391    3.5768 C   0  0  2  0  0  0  0  0  0  0  0  0
    2.9486    0.5973    2.9539 C   0  0  1  0  0  0  0  0  0  0  0  0
    3.8599    1.3606    3.6954 O   0  0  0  0  0  0  0  0  0  0  0  0
    3.5720   -0.5929    2.1713 C   0  0  0  0  0  0  0  0  0  0  0  0
   -0.3130    3.7897    4.8305 C   0  0  1  0  0  0  0  0  0  0  0  0
   -0.4416    5.1890    4.6881 O   0  0  0  0  0  0  0  0  0  0  0  0
    1.0723    3.3305    5.3087 C   0  0  1  0  0  0  0  0  0  0  0  0
    1.9620    4.4144    5.4661 O   0  0  0  0  0  0  0  0  0  0  0  0
    0.9922    2.6113    6.5067 O   0  0  0  0  0  0  0  0  0  0  0  0
    1.0648   -1.6054    5.2715 C   0  0  0  0  0  0  0  0  0  0  0  0
    0.6686   -1.9140    6.7535 C   0  0  0  0  0  0  0  0  0  0  0  0
   -0.1856   -2.1077    4.4963 C   0  0  0  0  0  0  0  0  0  0  0  0
    2.3305   -2.4415    4.9331 C   0  0  1  0  0  0  0  0  0  0  0  0
    2.6141   -5.6056    0.0225 H   0  0  0  0  0  0  0  0  0  0  0  0
    1.7811   -6.2407    1.4528 H   0  0  0  0  0  0  0  0  0  0  0  0
    3.5471   -6.1473    1.4246 H   0  0  0  0  0  0  0  0  0  0  0  0
    1.8084   -2.2676    2.8218 H   0  0  0  0  0  0  0  0  0  0  0  0
    4.2467   -2.5344    2.0140 H   0  0  0  0  0  0  0  0  0  0  0  0
    5.9240   -2.4879    3.2976 H   0  0  0  0  0  0  0  0  0  0  0  0
    5.4867   -0.9262    3.9129 H   0  0  0  0  0  0  0  0  0  0  0  0
    4.7673   -3.6472    5.0912 H   0  0  0  0  0  0  0  0  0  0  0  0
    5.6951   -2.3584    5.8205 H   0  0  0  0  0  0  0  0  0  0  0  0
    3.4715   -2.2893    6.7782 H   0  0  0  0  0  0  0  0  0  0  0  0
    2.3731    0.1176    7.0558 H   0  0  0  0  0  0  0  0  0  0  0  0
    2.9138    1.2902    5.9319 H   0  0  0  0  0  0  0  0  0  0  0  0
    0.2323    1.0062    7.4911 H   0  0  0  0  0  0  0  0  0  0  0  0
   -2.0469    1.2606    6.2742 H   0  0  0  0  0  0  0  0  0  0  0  0
   -1.5939    2.4891    7.4419 H   0  0  0  0  0  0  0  0  0  0  0  0
   -2.3437    3.8541    5.7097 H   0  0  0  0  0  0  0  0  0  0  0  0
   -1.8183    4.0670    2.0901 H   0  0  0  0  0  0  0  0  0  0  0  0
   -2.5543    4.7788    3.5148 H   0  0  0  0  0  0  0  0  0  0  0  0
   -3.2057    3.2969    2.8995 H   0  0  0  0  0  0  0  0  0  0  0  0
   -1.4036    0.8574    3.9938 H   0  0  0  0  0  0  0  0  0  0  0  0
   -2.6536    1.1024    2.4009 H   0  0  0  0  0  0  0  0  0  0  0  0
    0.7521    1.9570    2.0756 H   0  0  0  0  0  0  0  0  0  0  0  0
    2.8033    1.3065    2.1405 H   0  0  0  0  0  0  0  0  0  0  0  0
    4.3980    1.8765    3.0921 H   0  0  0  0  0  0  0  0  0  0  0  0
    4.4906   -0.2467    1.6936 H   0  0  0  0  0  0  0  0  0  0  0  0
    2.9115   -0.8104    1.3311 H   0  0  0  0  0  0  0  0  0  0  0  0
    0.1672    5.4472    4.0046 H   0  0  0  0  0  0  0  0  0  0  0  0
    1.5649    2.7196    4.5721 H   0  0  0  0  0  0  0  0  0  0  0  0
    2.8056    4.0497    5.6895 H   0  0  0  0  0  0  0  0  0  0  0  0
    0.4151   -2.9672    6.8858 H   0  0  0  0  0  0  0  0  0  0  0  0
   -0.2024   -1.3428    7.0703 H   0  0  0  0  0  0  0  0  0  0  0  0
    1.4572   -1.7206    7.4788 H   0  0  0  0  0  0  0  0  0  0  0  0
   -0.4352   -3.1291    4.7778 H   0  0  0  0  0  0  0  0  0  0  0  0
   -0.0827   -2.1349    3.4182 H   0  0  0  0  0  0  0  0  0  0  0  0
   -1.0565   -1.4953    4.7149 H   0  0  0  0  0  0  0  0  0  0  0  0
    2.1074   -3.4143    5.3663 H   0  0  0  0  0  0  0  0  0  0  0  0
  1  2  1  0
  1 36  1  0
  1 37  1  0
  1 38  1  0
  2  3  1  0
  3  4  2  0
  3  5  1  0
  5 35  1  0
  5  6  1  0
  5 39  1  6
  6 26  1  0
  6  7  1  0
  6 40  1  6
  7  8  1  0
  7 41  1  0
  7 42  1  0
  8  9  1  0
  8 43  1  0
  8 44  1  0
  9 35  1  0
  9 10  1  0
  9 45  1  1
 10 11  1  0
 11 12  1  0
 11 46  1  0
 11 47  1  0
 12 23  1  0
 12 13  1  1
 12 32  1  0
 13 14  1  0
 14 31  1  0
 14 15  1  0
 14 48  1  1
 15 16  1  0
 15 49  1  0
 15 50  1  0
 16 27  1  0
 16 17  1  0
 16 51  1  6
 17 18  1  6
 17 19  1  0
 17 27  1  0
 18 52  1  0
 18 53  1  0
 18 54  1  0
 19 20  1  0
 19 21  1  0
 19 55  1  1
 20 56  1  0
 21 23  1  0
 21 22  1  0
 21 57  1  6
 23 22  1  6
 23 24  1  0
 24 25  1  0
 24 26  1  0
 24 58  1  6
 25 59  1  0
 26 60  1  0
 26 61  1  0
 27 28  1  6
 27 29  1  0
 28 62  1  0
 29 30  1  0
 29 31  1  0
 29 63  1  6
 30 64  1  0
 32 33  1  0
 32 34  1  0
 32 35  1  0
 33 65  1  0
 33 66  1  0
 33 67  1  0
 34 68  1  0
 34 69  1  0
 34 70  1  0
 35 71  1  1
M  END
>  <i_m_ct_stereo_status>  (61) 
1

>  <s_m_source_file>  (61) 
/var/tmp/pbs.5076255.sched01/tmpoa2zap1w/0_chicbso.sdf

>  <i_m_source_file_index>  (61) 
29

>  <i_lp_mmshare_version>  (61) 
48012

>  <i_f3d_flags>  (61) 
0

>  <s_epik_input>  (61) 
W0NIMl0xW0NIMl1bQ0BASF0oT1tDSDJdMilbQ0hdKEMzKFtDSDNdKVtDSDNdKVtDQEhdKEMoPU8pT1tDSDNdKVtDQEhdMVtDSDJdW0NASF0oW09IXSlbQ0BAXTQoW0NAXTIzNSlbQ0BASF0oTzQpW0NASF0oW09IXSlbQ0BAXTYoW0NIM10pW0NAQEhdN1tDQEBdNihbT0hdKVtDQEBIXShbT0hdKU9bQ0BIXShPNSlbQ0gyXTc=

>  <s_epik_cmdline>  (61) 
J2VwaWtfcHl0aG9uJywgJy1waHQnLCAnMi4wJywgJy1waCcsICc3LjAnLCAnLXRuJywgJzgnLCAnLW1hJywgJzIwMCcsICctaW1hZScsICc8aW5maWxlLm1hZT4nLCAnLW9tYWUnLCAnPG91dGZpbGUubWFlPic=

>  <r_lp_tautomer_probability>  (61) 
1

>  <r_epik_Ionization_Penalty>  (61) 
6.06496e-07

>  <r_epik_Ionization_Penalty_Charging>  (61) 
0

>  <r_epik_Ionization_Penalty_Neutral>  (61) 
6.06496e-07

>  <r_epik_State_Penalty>  (61) 
-0

>  <r_epik_Charging_Adjusted_Penalty>  (61) 
0

>  <i_epik_Tot_Q>  (61) 
0

>  <i_epik_Tot_abs_Q>  (61) 
0

>  <s_epik_Chemistry_Notes>  (61) 
This compound has an ester and may undergo hydrolysis at high or low pH. This compound contains an acetal/aminal-like group ( X-CH(R)-Y where X, Y are N, S, or O) that may be acid/base labile, releasing an aldehyde.

>  <s_lp_Force_Field>  (61) 
OPLS3e

>  <r_lp_Energy>  (61) 
113.589

>  <b_lp_Chiralities_Consistent>  (61) 
1

>  <s_lp_Variant>  (61) 
24:0-1

>  <s_i_glide_gridfile>  (61) 
pfpi4k_grid

>  <i_i_glide_lignum>  (61) 
29

>  <i_i_glide_rotatable_bonds>  (61) 
6

>  <r_i_docking_score>  (61) 
-2.57499

>  <r_i_glide_ligand_efficiency>  (61) 
-0.0735711

>  <r_i_glide_ligand_efficiency_sa>  (61) 
-0.240656

>  <r_i_glide_ligand_efficiency_ln>  (61) 
-0.565267

>  <r_i_glide_gscore>  (61) 
-2.57499

>  <r_i_glide_lipo>  (61) 
-0.127312

>  <r_i_glide_hbond>  (61) 
0

>  <r_i_glide_metal>  (61) 
-0

>  <r_i_glide_rewards>  (61) 
-0.0235409

>  <r_i_glide_evdw>  (61) 
-23.0292

>  <r_i_glide_ecoul>  (61) 
-8.99733

>  <r_i_glide_erotb>  (61) 
0.0827105

>  <r_i_glide_esite>  (61) 
-0.00578473

>  <r_i_glide_emodel>  (61) 
-35.3852

>  <r_i_glide_energy>  (61) 
-32.0265

>  <r_i_glide_einternal>  (61) 
3.48438

>  <r_i_glide_intrahb_reward>  (61) 
-0

>  <i_i_glide_confnum>  (61) 
2

>  <i_i_glide_posenum>  (61) 
14

>  <r_i_glide_eff_state_penalty>  (61) 
0

>  <ligand_id>  (61) 
24

>  <original_smiles>  (61) 
COC(=O)C1C2CCC3OCC4(OC5CC6C(C)(C(O)C7OC74C(O)C2)C6(O)C(O)O5)C(C)(C)C31

>  <smiles>  (61) 
[H]OC1([H])OC2([H])OC34C([H])([H])OC5([H])C([H])([H])C([H])([H])C([H])(C([H])([H])C([H])(O[H])C36OC6([H])C([H])(O[H])C3(C([H])([H])[H])C([H])(C2([H])[H])C13O[H])C([H])(C(=O)OC([H])([H])[H])C5([H])C4(C([H])([H])[H])C([H])([H])[H]

$$$$
24:0:1
     RDKit          3D

 71 77  0  0  1  0  0  0  0  0999 V2000
    2.3820   -5.7417    1.2262 C   0  0  0  0  0  0  0  0  0  0  0  0
    2.3763   -4.4272    1.7571 O   0  0  0  0  0  0  0  0  0  0  0  0
    2.4911   -4.2535    3.0867 C   0  0  0  0  0  0  0  0  0  0  0  0
    2.5626   -5.1716    3.9012 O   0  0  0  0  0  0  0  0  0  0  0  0
    2.5273   -2.7592    3.4944 C   0  0  2  0  0  0  0  0  0  0  0  0
    3.8057   -2.0594    2.9540 C   0  0  2  0  0  0  0  0  0  0  0  0
    5.0252   -2.0755    3.8967 C   0  0  0  0  0  0  0  0  0  0  0  0
    4.7392   -2.6755    5.2778 C   0  0  0  0  0  0  0  0  0  0  0  0
    3.4625   -2.0546    5.8388 C   0  0  1  0  0  0  0  0  0  0  0  0
    3.6714   -0.6487    5.8038 O   0  0  0  0  0  0  0  0  0  0  0  0
    2.5497    0.1845    6.0732 C   0  0  0  0  0  0  0  0  0  0  0  0
    1.3349   -0.1196    5.1351 C   0  0  1  0  0  0  0  0  0  0  0  0
    0.1541    0.5707    5.5623 O   0  0  0  0  0  0  0  0  0  0  0  0
    0.0479    1.5165    6.5807 C   0  0  2  0  0  0  0  0  0  0  0  0
   -1.3828    2.0904    6.4763 C   0  0  0  0  0  0  0  0  0  0  0  0
   -1.5336    3.1896    5.4397 C   0  0  2  0  0  0  0  0  0  0  0  0
   -1.2869    3.0277    3.9332 C   0  0  2  0  0  0  0  0  0  0  0  0
   -2.2400    3.8485    3.0503 C   0  0  0  0  0  0  0  0  0  0  0  0
   -1.0299    1.6047    3.3406 C   0  0  1  0  0  0  0  0  0  0  0  0
   -1.7765    1.3805    2.1640 O   0  0  0  0  0  0  0  0  0  0  0  0
    0.4112    1.2641    2.9276 C   0  0  2  0  0  0  0  0  0  0  0  0
    0.5760   -0.1276    2.6814 O   0  0  0  0  0  0  0  0  0  0  0  0
    1.5092    0.3796    3.6364 C   0  0  2  0  0  0  0  0  0  0  0  0
    2.9304    0.4998    3.0251 C   0  0  1  0  0  0  0  0  0  0  0  0
    3.8733    1.2397    3.7661 O   0  0  0  0  0  0  0  0  0  0  0  0
    3.5312   -0.7080    2.2531 C   0  0  0  0  0  0  0  0  0  0  0  0
   -0.2875    3.7728    4.8480 C   0  0  1  0  0  0  0  0  0  0  0  0
   -0.3877    5.1772    4.6997 O   0  0  0  0  0  0  0  0  0  0  0  0
    1.0792    3.2938    5.3562 C   0  0  1  0  0  0  0  0  0  0  0  0
    1.9737    4.3741    5.5285 O   0  0  0  0  0  0  0  0  0  0  0  0
    0.9697    2.5725    6.5516 O   0  0  0  0  0  0  0  0  0  0  0  0
    0.9734   -1.6449    5.3396 C   0  0  0  0  0  0  0  0  0  0  0  0
    0.5584   -1.9357    6.8201 C   0  0  0  0  0  0  0  0  0  0  0  0
   -0.2773   -2.1288    4.5578 C   0  0  0  0  0  0  0  0  0  0  0  0
    2.2252   -2.5085    5.0195 C   0  0  1  0  0  0  0  0  0  0  0  0
    2.2972   -5.7020    0.1396 H   0  0  0  0  0  0  0  0  0  0  0  0
    1.5477   -6.3243    1.6177 H   0  0  0  0  0  0  0  0  0  0  0  0
    3.3103   -6.2522    1.4817 H   0  0  0  0  0  0  0  0  0  0  0  0
    1.7267   -2.3332    2.9033 H   0  0  0  0  0  0  0  0  0  0  0  0
    4.1610   -2.6680    2.1192 H   0  0  0  0  0  0  0  0  0  0  0  0
    5.8280   -2.6423    3.4273 H   0  0  0  0  0  0  0  0  0  0  0  0
    5.4187   -1.0637    4.0202 H   0  0  0  0  0  0  0  0  0  0  0  0
    4.6388   -3.7599    5.2109 H   0  0  0  0  0  0  0  0  0  0  0  0
    5.5826   -2.4833    5.9416 H   0  0  0  0  0  0  0  0  0  0  0  0
    3.3522   -2.3649    6.8766 H   0  0  0  0  0  0  0  0  0  0  0  0
    2.2986    0.0674    7.1234 H   0  0  0  0  0  0  0  0  0  0  0  0
    2.8739    1.2195    5.9923 H   0  0  0  0  0  0  0  0  0  0  0  0
    0.1689    0.9938    7.5303 H   0  0  0  0  0  0  0  0  0  0  0  0
   -2.0948    1.2854    6.2877 H   0  0  0  0  0  0  0  0  0  0  0  0
   -1.6276    2.5125    7.4524 H   0  0  0  0  0  0  0  0  0  0  0  0
   -2.3308    3.8817    5.7002 H   0  0  0  0  0  0  0  0  0  0  0  0
   -1.7857    4.0618    2.0861 H   0  0  0  0  0  0  0  0  0  0  0  0
   -2.5010    4.7964    3.5049 H   0  0  0  0  0  0  0  0  0  0  0  0
   -3.1776    3.3242    2.8889 H   0  0  0  0  0  0  0  0  0  0  0  0
   -1.4343    0.8545    4.0153 H   0  0  0  0  0  0  0  0  0  0  0  0
   -2.6591    1.0993    2.4100 H   0  0  0  0  0  0  0  0  0  0  0  0
    0.7636    1.8984    2.1133 H   0  0  0  0  0  0  0  0  0  0  0  0
    2.8064    1.2097    2.2080 H   0  0  0  0  0  0  0  0  0  0  0  0
    4.3691    1.7931    3.1722 H   0  0  0  0  0  0  0  0  0  0  0  0
    4.4621   -0.3837    1.7822 H   0  0  0  0  0  0  0  0  0  0  0  0
    2.8731   -0.9155    1.4085 H   0  0  0  0  0  0  0  0  0  0  0  0
    0.1739    5.4271    3.9769 H   0  0  0  0  0  0  0  0  0  0  0  0
    1.5791    2.6704    4.6321 H   0  0  0  0  0  0  0  0  0  0  0  0
    2.2157    4.6891    4.6731 H   0  0  0  0  0  0  0  0  0  0  0  0
    0.2849   -2.9831    6.9581 H   0  0  0  0  0  0  0  0  0  0  0  0
   -0.3059   -1.3467    7.1231 H   0  0  0  0  0  0  0  0  0  0  0  0
    1.3432   -1.7507    7.5517 H   0  0  0  0  0  0  0  0  0  0  0  0
   -0.5482   -3.1454    4.8427 H   0  0  0  0  0  0  0  0  0  0  0  0
   -0.1664   -2.1631    3.4798 H   0  0  0  0  0  0  0  0  0  0  0  0
   -1.1425   -1.4994    4.7642 H   0  0  0  0  0  0  0  0  0  0  0  0
    1.9788   -3.4751    5.4544 H   0  0  0  0  0  0  0  0  0  0  0  0
  1  2  1  0
  1 36  1  0
  1 37  1  0
  1 38  1  0
  2  3  1  0
  3  4  2  0
  3  5  1  0
  5 35  1  0
  5  6  1  0
  5 39  1  6
  6 26  1  0
  6  7  1  0
  6 40  1  6
  7  8  1  0
  7 41  1  0
  7 42  1  0
  8  9  1  0
  8 43  1  0
  8 44  1  0
  9 35  1  0
  9 10  1  0
  9 45  1  1
 10 11  1  0
 11 12  1  0
 11 46  1  0
 11 47  1  0
 12 23  1  0
 12 13  1  1
 12 32  1  0
 13 14  1  0
 14 31  1  0
 14 15  1  0
 14 48  1  1
 15 16  1  0
 15 49  1  0
 15 50  1  0
 16 27  1  0
 16 17  1  0
 16 51  1  6
 17 18  1  6
 17 19  1  0
 17 27  1  0
 18 52  1  0
 18 53  1  0
 18 54  1  0
 19 20  1  0
 19 21  1  0
 19 55  1  1
 20 56  1  0
 21 23  1  0
 21 22  1  0
 21 57  1  6
 23 22  1  6
 23 24  1  0
 24 25  1  0
 24 26  1  0
 24 58  1  6
 25 59  1  0
 26 60  1  0
 26 61  1  0
 27 28  1  6
 27 29  1  0
 28 62  1  0
 29 30  1  0
 29 31  1  0
 29 63  1  6
 30 64  1  0
 32 33  1  0
 32 34  1  0
 32 35  1  0
 33 65  1  0
 33 66  1  0
 33 67  1  0
 34 68  1  0
 34 69  1  0
 34 70  1  0
 35 71  1  1
M  END
>  <i_m_ct_stereo_status>  (62) 
1

>  <s_m_source_file>  (62) 
/var/tmp/pbs.5076255.sched01/tmpoa2zap1w/0_chicbso.sdf

>  <i_m_source_file_index>  (62) 
29

>  <i_lp_mmshare_version>  (62) 
48012

>  <i_f3d_flags>  (62) 
0

>  <s_epik_input>  (62) 
W0NIMl0xW0NIMl1bQ0BASF0oT1tDSDJdMilbQ0hdKEMzKFtDSDNdKVtDSDNdKVtDQEhdKEMoPU8pT1tDSDNdKVtDQEhdMVtDSDJdW0NASF0oW09IXSlbQ0BAXTQoW0NAXTIzNSlbQ0BASF0oTzQpW0NASF0oW09IXSlbQ0BAXTYoW0NIM10pW0NAQEhdN1tDQEBdNihbT0hdKVtDQEBIXShbT0hdKU9bQ0BIXShPNSlbQ0gyXTc=

>  <s_epik_cmdline>  (62) 
J2VwaWtfcHl0aG9uJywgJy1waHQnLCAnMi4wJywgJy1waCcsICc3LjAnLCAnLXRuJywgJzgnLCAnLW1hJywgJzIwMCcsICctaW1hZScsICc8aW5maWxlLm1hZT4nLCAnLW9tYWUnLCAnPG91dGZpbGUubWFlPic=

>  <r_lp_tautomer_probability>  (62) 
1

>  <r_epik_Ionization_Penalty>  (62) 
6.06496e-07

>  <r_epik_Ionization_Penalty_Charging>  (62) 
0

>  <r_epik_Ionization_Penalty_Neutral>  (62) 
6.06496e-07

>  <r_epik_State_Penalty>  (62) 
-0

>  <r_epik_Charging_Adjusted_Penalty>  (62) 
0

>  <i_epik_Tot_Q>  (62) 
0

>  <i_epik_Tot_abs_Q>  (62) 
0

>  <s_epik_Chemistry_Notes>  (62) 
This compound has an ester and may undergo hydrolysis at high or low pH. This compound contains an acetal/aminal-like group ( X-CH(R)-Y where X, Y are N, S, or O) that may be acid/base labile, releasing an aldehyde.

>  <s_lp_Force_Field>  (62) 
OPLS3e

>  <r_lp_Energy>  (62) 
113.589

>  <b_lp_Chiralities_Consistent>  (62) 
1

>  <s_lp_Variant>  (62) 
24:0-1

>  <s_i_glide_gridfile>  (62) 
pfpi4k_grid

>  <i_i_glide_lignum>  (62) 
29

>  <i_i_glide_rotatable_bonds>  (62) 
6

>  <r_i_docking_score>  (62) 
-2.46991

>  <r_i_glide_ligand_efficiency>  (62) 
-0.0705688

>  <r_i_glide_ligand_efficiency_sa>  (62) 
-0.230835

>  <r_i_glide_ligand_efficiency_ln>  (62) 
-0.5422

>  <r_i_glide_gscore>  (62) 
-2.46991

>  <r_i_glide_lipo>  (62) 
-0.0873369

>  <r_i_glide_hbond>  (62) 
0

>  <r_i_glide_metal>  (62) 
-0

>  <r_i_glide_rewards>  (62) 
-0.0235409

>  <r_i_glide_evdw>  (62) 
-23.5916

>  <r_i_glide_ecoul>  (62) 
-8.3762

>  <r_i_glide_erotb>  (62) 
0.0827105

>  <r_i_glide_esite>  (62) 
-0.00573036

>  <r_i_glide_emodel>  (62) 
-34.4255

>  <r_i_glide_energy>  (62) 
-31.9678

>  <r_i_glide_einternal>  (62) 
4.87865

>  <r_i_glide_intrahb_reward>  (62) 
-0

>  <i_i_glide_confnum>  (62) 
1

>  <i_i_glide_posenum>  (62) 
6

>  <r_i_glide_eff_state_penalty>  (62) 
0

>  <ligand_id>  (62) 
24

>  <original_smiles>  (62) 
COC(=O)C1C2CCC3OCC4(OC5CC6C(C)(C(O)C7OC74C(O)C2)C6(O)C(O)O5)C(C)(C)C31

>  <smiles>  (62) 
[H]OC1([H])OC2([H])OC34C([H])([H])OC5([H])C([H])([H])C([H])([H])C([H])(C([H])([H])C([H])(O[H])C36OC6([H])C([H])(O[H])C3(C([H])([H])[H])C([H])(C2([H])[H])C13O[H])C([H])(C(=O)OC([H])([H])[H])C5([H])C4(C([H])([H])[H])C([H])([H])[H]

$$$$
24:0:2
     RDKit          3D

 71 77  0  0  1  0  0  0  0  0999 V2000
    2.3847   -5.7373    1.6489 C   0  0  0  0  0  0  0  0  0  0  0  0
    2.3838   -4.4076    2.1436 O   0  0  0  0  0  0  0  0  0  0  0  0
    2.4783   -4.2034    3.4684 C   0  0  0  0  0  0  0  0  0  0  0  0
    2.5434   -5.1017    4.3028 O   0  0  0  0  0  0  0  0  0  0  0  0
    2.4946   -2.6985    3.8432 C   0  0  2  0  0  0  0  0  0  0  0  0
    3.7936   -2.0054    3.3424 C   0  0  2  0  0  0  0  0  0  0  0  0
    4.9826   -1.9964    4.3300 C   0  0  0  0  0  0  0  0  0  0  0  0
    4.6310   -2.5600    5.7113 C   0  0  0  0  0  0  0  0  0  0  0  0
    3.3273   -1.9315    6.2038 C   0  0  1  0  0  0  0  0  0  0  0  0
    3.5290   -0.5247    6.1419 O   0  0  0  0  0  0  0  0  0  0  0  0
    2.3936    0.3065    6.3439 C   0  0  0  0  0  0  0  0  0  0  0  0
    1.2225   -0.0241    5.3648 C   0  0  1  0  0  0  0  0  0  0  0  0
    0.0232    0.6667    5.7300 O   0  0  0  0  0  0  0  0  0  0  0  0
   -0.1319    1.6400    6.7167 C   0  0  2  0  0  0  0  0  0  0  0  0
   -1.5578    2.2016    6.5409 C   0  0  0  0  0  0  0  0  0  0  0  0
   -1.6745    3.2730    5.4730 C   0  0  2  0  0  0  0  0  0  0  0  0
   -1.3610    3.0774    3.9804 C   0  0  2  0  0  0  0  0  0  0  0  0
   -2.2810    3.8732    3.0376 C   0  0  0  0  0  0  0  0  0  0  0  0
   -1.0797    1.6438    3.4311 C   0  0  1  0  0  0  0  0  0  0  0  0
   -1.7687    1.3980    2.2245 O   0  0  0  0  0  0  0  0  0  0  0  0
    0.3853    1.2984    3.0928 C   0  0  2  0  0  0  0  0  0  0  0  0
    0.5683   -0.0939    2.8888 O   0  0  0  0  0  0  0  0  0  0  0  0
    1.4572    0.4409    3.8644 C   0  0  2  0  0  0  0  0  0  0  0  0
    2.9133    0.5539    3.3175 C   0  0  1  0  0  0  0  0  0  0  0  0
    3.8352    1.3105    4.0736 O   0  0  0  0  0  0  0  0  0  0  0  0
    3.5407   -0.6720    2.5959 C   0  0  0  0  0  0  0  0  0  0  0  0
   -0.4095    3.8460    4.9238 C   0  0  1  0  0  0  0  0  0  0  0  0
   -0.5029    5.2397    4.7355 O   0  0  0  0  0  0  0  0  0  0  0  0
    0.9443    3.3871    5.4876 C   0  0  1  0  0  0  0  0  0  0  0  0
    1.8142    4.4779    5.6699 O   0  0  0  0  0  0  0  0  0  0  0  0
    0.7842    2.7007    6.6945 O   0  0  0  0  0  0  0  0  0  0  0  0
    0.8577   -1.5458    5.5885 C   0  0  0  0  0  0  0  0  0  0  0  0
    0.3837   -1.8058    7.0577 C   0  0  0  0  0  0  0  0  0  0  0  0
   -0.3612   -2.0555    4.7701 C   0  0  0  0  0  0  0  0  0  0  0  0
    2.1263   -2.4097    5.3462 C   0  0  1  0  0  0  0  0  0  0  0  0
    2.3402   -5.7287    0.5594 H   0  0  0  0  0  0  0  0  0  0  0  0
    1.5234   -6.2894    2.0265 H   0  0  0  0  0  0  0  0  0  0  0  0
    3.2908   -6.2635    1.9494 H   0  0  0  0  0  0  0  0  0  0  0  0
    1.7171   -2.2915    3.2099 H   0  0  0  0  0  0  0  0  0  0  0  0
    4.1809   -2.6315    2.5376 H   0  0  0  0  0  0  0  0  0  0  0  0
    5.8082   -2.5724    3.9127 H   0  0  0  0  0  0  0  0  0  0  0  0
    5.3668   -0.9805    4.4429 H   0  0  0  0  0  0  0  0  0  0  0  0
    4.5355   -3.6466    5.6678 H   0  0  0  0  0  0  0  0  0  0  0  0
    5.4410   -2.3463    6.4063 H   0  0  0  0  0  0  0  0  0  0  0  0
    3.1721   -2.2186    7.2425 H   0  0  0  0  0  0  0  0  0  0  0  0
    2.1005    0.2138    7.3865 H   0  0  0  0  0  0  0  0  0  0  0  0
    2.7170    1.3404    6.2496 H   0  0  0  0  0  0  0  0  0  0  0  0
   -0.0488    1.1420    7.6832 H   0  0  0  0  0  0  0  0  0  0  0  0
   -2.2576    1.3897    6.3421 H   0  0  0  0  0  0  0  0  0  0  0  0
   -1.8469    2.6467    7.4942 H   0  0  0  0  0  0  0  0  0  0  0  0
   -2.4836    3.9686    5.6803 H   0  0  0  0  0  0  0  0  0  0  0  0
   -1.7847    4.0615    2.0877 H   0  0  0  0  0  0  0  0  0  0  0  0
   -2.5589    4.8332    3.4522 H   0  0  0  0  0  0  0  0  0  0  0  0
   -3.2114    3.3424    2.8546 H   0  0  0  0  0  0  0  0  0  0  0  0
   -1.5054    0.9088    4.1054 H   0  0  0  0  0  0  0  0  0  0  0  0
   -2.6635    1.1190    2.4381 H   0  0  0  0  0  0  0  0  0  0  0  0
    0.7660    1.9127    2.2747 H   0  0  0  0  0  0  0  0  0  0  0  0
    2.8116    1.2402    2.4789 H   0  0  0  0  0  0  0  0  0  0  0  0
    4.3124    1.8832    3.4794 H   0  0  0  0  0  0  0  0  0  0  0  0
    4.4867   -0.3542    2.1535 H   0  0  0  0  0  0  0  0  0  0  0  0
    2.9153   -0.9022    1.7313 H   0  0  0  0  0  0  0  0  0  0  0  0
    0.0890    5.4648    4.0224 H   0  0  0  0  0  0  0  0  0  0  0  0
    1.4813    2.7612    4.7923 H   0  0  0  0  0  0  0  0  0  0  0  0
    1.4051    5.0643    6.2915 H   0  0  0  0  0  0  0  0  0  0  0  0
    0.1067   -2.8514    7.2147 H   0  0  0  0  0  0  0  0  0  0  0  0
   -0.4929   -1.2114    7.3103 H   0  0  0  0  0  0  0  0  0  0  0  0
    1.1339   -1.5986    7.8176 H   0  0  0  0  0  0  0  0  0  0  0  0
   -0.6380   -3.0661    5.0691 H   0  0  0  0  0  0  0  0  0  0  0  0
   -0.2071   -2.1192    3.6989 H   0  0  0  0  0  0  0  0  0  0  0  0
   -1.2369   -1.4257    4.9241 H   0  0  0  0  0  0  0  0  0  0  0  0
    1.8629   -3.3636    5.7956 H   0  0  0  0  0  0  0  0  0  0  0  0
  1  2  1  0
  1 36  1  0
  1 37  1  0
  1 38  1  0
  2  3  1  0
  3  4  2  0
  3  5  1  0
  5 35  1  0
  5  6  1  0
  5 39  1  6
  6 26  1  0
  6  7  1  0
  6 40  1  6
  7  8  1  0
  7 41  1  0
  7 42  1  0
  8  9  1  0
  8 43  1  0
  8 44  1  0
  9 35  1  0
  9 10  1  0
  9 45  1  1
 10 11  1  0
 11 12  1  0
 11 46  1  0
 11 47  1  0
 12 23  1  0
 12 13  1  1
 12 32  1  0
 13 14  1  0
 14 31  1  0
 14 15  1  0
 14 48  1  1
 15 16  1  0
 15 49  1  0
 15 50  1  0
 16 27  1  0
 16 17  1  0
 16 51  1  6
 17 18  1  6
 17 19  1  0
 17 27  1  0
 18 52  1  0
 18 53  1  0
 18 54  1  0
 19 20  1  0
 19 21  1  0
 19 55  1  1
 20 56  1  0
 21 23  1  0
 21 22  1  0
 21 57  1  6
 23 22  1  6
 23 24  1  0
 24 25  1  0
 24 26  1  0
 24 58  1  6
 25 59  1  0
 26 60  1  0
 26 61  1  0
 27 28  1  6
 27 29  1  0
 28 62  1  0
 29 30  1  0
 29 31  1  0
 29 63  1  6
 30 64  1  0
 32 33  1  0
 32 34  1  0
 32 35  1  0
 33 65  1  0
 33 66  1  0
 33 67  1  0
 34 68  1  0
 34 69  1  0
 34 70  1  0
 35 71  1  1
M  END
>  <i_m_ct_stereo_status>  (63) 
1

>  <s_m_source_file>  (63) 
/var/tmp/pbs.5076255.sched01/tmpoa2zap1w/0_chicbso.sdf

>  <i_m_source_file_index>  (63) 
29

>  <i_lp_mmshare_version>  (63) 
48012

>  <i_f3d_flags>  (63) 
0

>  <s_epik_input>  (63) 
W0NIMl0xW0NIMl1bQ0BASF0oT1tDSDJdMilbQ0hdKEMzKFtDSDNdKVtDSDNdKVtDQEhdKEMoPU8pT1tDSDNdKVtDQEhdMVtDSDJdW0NASF0oW09IXSlbQ0BAXTQoW0NAXTIzNSlbQ0BASF0oTzQpW0NASF0oW09IXSlbQ0BAXTYoW0NIM10pW0NAQEhdN1tDQEBdNihbT0hdKVtDQEBIXShbT0hdKU9bQ0BIXShPNSlbQ0gyXTc=

>  <s_epik_cmdline>  (63) 
J2VwaWtfcHl0aG9uJywgJy1waHQnLCAnMi4wJywgJy1waCcsICc3LjAnLCAnLXRuJywgJzgnLCAnLW1hJywgJzIwMCcsICctaW1hZScsICc8aW5maWxlLm1hZT4nLCAnLW9tYWUnLCAnPG91dGZpbGUubWFlPic=

>  <r_lp_tautomer_probability>  (63) 
1

>  <r_epik_Ionization_Penalty>  (63) 
6.06496e-07

>  <r_epik_Ionization_Penalty_Charging>  (63) 
0

>  <r_epik_Ionization_Penalty_Neutral>  (63) 
6.06496e-07

>  <r_epik_State_Penalty>  (63) 
-0

>  <r_epik_Charging_Adjusted_Penalty>  (63) 
0

>  <i_epik_Tot_Q>  (63) 
0

>  <i_epik_Tot_abs_Q>  (63) 
0

>  <s_epik_Chemistry_Notes>  (63) 
This compound has an ester and may undergo hydrolysis at high or low pH. This compound contains an acetal/aminal-like group ( X-CH(R)-Y where X, Y are N, S, or O) that may be acid/base labile, releasing an aldehyde.

>  <s_lp_Force_Field>  (63) 
OPLS3e

>  <r_lp_Energy>  (63) 
113.589

>  <b_lp_Chiralities_Consistent>  (63) 
1

>  <s_lp_Variant>  (63) 
24:0-1

>  <s_i_glide_gridfile>  (63) 
pfpi4k_grid

>  <i_i_glide_lignum>  (63) 
29

>  <i_i_glide_rotatable_bonds>  (63) 
6

>  <r_i_docking_score>  (63) 
-2.25235

>  <r_i_glide_ligand_efficiency>  (63) 
-0.0643529

>  <r_i_glide_ligand_efficiency_sa>  (63) 
-0.210503

>  <r_i_glide_ligand_efficiency_ln>  (63) 
-0.494441

>  <r_i_glide_gscore>  (63) 
-2.25235

>  <r_i_glide_lipo>  (63) 
-0.0608223

>  <r_i_glide_hbond>  (63) 
0

>  <r_i_glide_metal>  (63) 
-0

>  <r_i_glide_rewards>  (63) 
-0.0240463

>  <r_i_glide_evdw>  (63) 
-24.0885

>  <r_i_glide_ecoul>  (63) 
-6.93891

>  <r_i_glide_erotb>  (63) 
0.0827105

>  <r_i_glide_esite>  (63) 
-0.00493486

>  <r_i_glide_emodel>  (63) 
-33.9368

>  <r_i_glide_energy>  (63) 
-31.0274

>  <r_i_glide_einternal>  (63) 
2.93334

>  <r_i_glide_intrahb_reward>  (63) 
-0

>  <i_i_glide_confnum>  (63) 
2

>  <i_i_glide_posenum>  (63) 
12

>  <r_i_glide_eff_state_penalty>  (63) 
0

>  <ligand_id>  (63) 
24

>  <original_smiles>  (63) 
COC(=O)C1C2CCC3OCC4(OC5CC6C(C)(C(O)C7OC74C(O)C2)C6(O)C(O)O5)C(C)(C)C31

>  <smiles>  (63) 
[H]OC1([H])OC2([H])OC34C([H])([H])OC5([H])C([H])([H])C([H])([H])C([H])(C([H])([H])C([H])(O[H])C36OC6([H])C([H])(O[H])C3(C([H])([H])[H])C([H])(C2([H])[H])C13O[H])C([H])(C(=O)OC([H])([H])[H])C5([H])C4(C([H])([H])[H])C([H])([H])[H]

$$$$
25:0:0
     RDKit          3D

 81 87  0  0  1  0  0  0  0  0999 V2000
   -0.8703   -3.4695    6.4960 C   0  0  0  0  0  0  0  0  0  0  0  0
    0.2362   -3.7744    5.4819 C   0  0  0  0  0  0  0  0  0  0  0  0
    0.8511   -5.0151    5.8071 O   0  0  0  0  0  0  0  0  0  0  0  0
    0.8632   -6.0160    4.9138 C   0  0  0  0  0  0  0  0  0  0  0  0
    0.2547   -5.9626    3.8552 O   0  0  0  0  0  0  0  0  0  0  0  0
    1.6462   -7.2669    5.4174 C   0  0  2  0  0  0  0  0  0  0  0  0
    3.0827   -6.8582    5.9720 C   0  0  1  0  0  0  0  0  0  0  0  0
    3.4865   -7.6238    7.2527 C   0  0  0  0  0  0  0  0  0  0  0  0
    4.2541   -6.7214    4.9514 C   0  0  2  0  0  0  0  0  0  0  0  0
    4.0357   -5.5013    4.2553 O   0  0  0  0  0  0  0  0  0  0  0  0
    5.0486   -4.9957    3.3826 C   0  0  2  0  0  0  0  0  0  0  0  0
    4.9701   -3.4602    3.4545 C   0  0  0  0  0  0  0  0  0  0  0  0
    5.3850   -2.9173    2.0714 C   0  0  2  0  0  0  0  0  0  0  0  0
    4.7021   -1.5963    1.5766 C   0  0  0  0  0  0  0  0  0  0  0  0
    3.1544   -1.6572    1.5749 C   0  0  0  0  0  0  0  0  0  0  0  0
    5.0859   -0.4275    2.5106 C   0  0  0  0  0  0  0  0  0  0  0  0
    5.1993   -1.2953    0.1381 C   0  0  1  0  0  0  0  0  0  0  0  0
    6.6087   -1.1061    0.1409 O   0  0  0  0  0  0  0  0  0  0  0  0
    4.7787   -2.4087   -0.8514 C   0  0  1  0  0  0  0  0  0  0  0  0
    5.4420   -2.2924   -2.0983 O   0  0  0  0  0  0  0  0  0  0  0  0
    4.7830   -3.8667   -0.3172 C   0  0  0  0  0  0  0  0  0  0  0  0
    5.4141   -4.1292    1.0925 C   0  0  1  0  0  0  0  0  0  0  0  0
    6.9064   -4.4997    0.8392 C   0  0  0  0  0  0  0  0  0  0  0  0
    4.7904   -5.3328    1.9006 C   0  0  2  0  0  0  0  0  0  0  0  0
    3.3028   -5.7293    1.7544 C   0  0  0  0  0  0  0  0  0  0  0  0
    2.4417   -4.8626    1.6299 O   0  0  0  0  0  0  0  0  0  0  0  0
    3.0613   -7.2131    1.7711 C   0  0  2  0  0  0  0  0  0  0  0  0
    1.7508   -7.5533    2.2869 O   0  0  0  0  0  0  0  0  0  0  0  0
    2.1598   -8.6495    3.1645 C   0  0  2  0  0  0  0  0  0  0  0  0
    1.6330   -9.8884    2.4779 C   0  0  0  0  0  0  0  0  0  0  0  0
    0.1789  -10.0010    2.9810 C   0  0  0  0  0  0  0  0  0  0  0  0
    0.0359   -9.0079    4.1664 C   0  0  0  0  0  0  0  0  0  0  0  0
    1.4858   -8.6151    4.5694 C   0  0  2  0  0  0  0  0  0  0  0  0
    1.8950   -9.8336    5.4674 C   0  0  0  0  0  0  0  0  0  0  0  0
    3.5372   -8.1319    2.8650 C   0  0  1  0  0  0  0  0  0  0  0  0
    4.9988   -8.5352    2.9433 C   0  0  0  0  0  0  0  0  0  0  0  0
    4.3263   -8.0145    4.1722 C   0  0  1  0  0  0  0  0  0  0  0  0
   -1.3563   -2.5293    6.2459 H   0  0  0  0  0  0  0  0  0  0  0  0
   -0.4542   -3.3997    7.4998 H   0  0  0  0  0  0  0  0  0  0  0  0
   -1.6289   -4.2566    6.4945 H   0  0  0  0  0  0  0  0  0  0  0  0
   -0.1914   -3.7581    4.4802 H   0  0  0  0  0  0  0  0  0  0  0  0
    1.0073   -3.0029    5.4932 H   0  0  0  0  0  0  0  0  0  0  0  0
    1.0733   -7.4861    6.3174 H   0  0  0  0  0  0  0  0  0  0  0  0
    3.0170   -5.8533    6.3799 H   0  0  0  0  0  0  0  0  0  0  0  0
    3.7796   -8.6580    7.0755 H   0  0  0  0  0  0  0  0  0  0  0  0
    2.6764   -7.6326    7.9812 H   0  0  0  0  0  0  0  0  0  0  0  0
    4.3332   -7.1398    7.7398 H   0  0  0  0  0  0  0  0  0  0  0  0
    5.1915   -6.6191    5.5054 H   0  0  0  0  0  0  0  0  0  0  0  0
    6.0468   -5.3208    3.6907 H   0  0  0  0  0  0  0  0  0  0  0  0
    3.9479   -3.1742    3.6925 H   0  0  0  0  0  0  0  0  0  0  0  0
    5.6055   -3.0696    4.2521 H   0  0  0  0  0  0  0  0  0  0  0  0
    6.4274   -2.6313    2.2126 H   0  0  0  0  0  0  0  0  0  0  0  0
    2.7301   -0.7434    1.1591 H   0  0  0  0  0  0  0  0  0  0  0  0
    2.7381   -1.7714    2.5757 H   0  0  0  0  0  0  0  0  0  0  0  0
    2.7666   -2.4733    0.9684 H   0  0  0  0  0  0  0  0  0  0  0  0
    4.6678    0.5087    2.1374 H   0  0  0  0  0  0  0  0  0  0  0  0
    6.1677   -0.2979    2.5977 H   0  0  0  0  0  0  0  0  0  0  0  0
    4.6965   -0.5740    3.5169 H   0  0  0  0  0  0  0  0  0  0  0  0
    4.7672   -0.3557   -0.2031 H   0  0  0  0  0  0  0  0  0  0  0  0
    6.8217   -0.4549    0.7851 H   0  0  0  0  0  0  0  0  0  0  0  0
    3.7378   -2.1956   -1.0933 H   0  0  0  0  0  0  0  0  0  0  0  0
    5.0150   -2.8692   -2.7061 H   0  0  0  0  0  0  0  0  0  0  0  0
    3.7591   -4.2078   -0.3715 H   0  0  0  0  0  0  0  0  0  0  0  0
    5.2818   -4.5001   -1.0537 H   0  0  0  0  0  0  0  0  0  0  0  0
    7.0073   -5.4044    0.2363 H   0  0  0  0  0  0  0  0  0  0  0  0
    7.4492   -4.6862    1.7676 H   0  0  0  0  0  0  0  0  0  0  0  0
    7.4399   -3.7095    0.3174 H   0  0  0  0  0  0  0  0  0  0  0  0
    5.3451   -6.2143    1.6127 H   0  0  0  0  0  0  0  0  0  0  0  0
    3.1996   -7.6541    0.7872 H   0  0  0  0  0  0  0  0  0  0  0  0
    1.6981   -9.8273    1.3930 H   0  0  0  0  0  0  0  0  0  0  0  0
    2.1932  -10.7857    2.7835 H   0  0  0  0  0  0  0  0  0  0  0  0
   -0.5380   -9.7536    2.2013 H   0  0  0  0  0  0  0  0  0  0  0  0
   -0.0400  -11.0207    3.3086 H   0  0  0  0  0  0  0  0  0  0  0  0
   -0.5584   -8.1846    3.7883 H   0  0  0  0  0  0  0  0  0  0  0  0
   -0.5403   -9.4341    4.9895 H   0  0  0  0  0  0  0  0  0  0  0  0
    1.4853  -10.7780    5.1157 H   0  0  0  0  0  0  0  0  0  0  0  0
    1.5175   -9.7262    6.4895 H   0  0  0  0  0  0  0  0  0  0  0  0
    2.9562  -10.0303    5.5402 H   0  0  0  0  0  0  0  0  0  0  0  0
    5.1746   -9.6075    2.8674 H   0  0  0  0  0  0  0  0  0  0  0  0
    5.7962   -7.9086    2.5550 H   0  0  0  0  0  0  0  0  0  0  0  0
    4.4109   -8.8388    4.8670 H   0  0  0  0  0  0  0  0  0  0  0  0
  1  2  1  0
  1 38  1  0
  1 39  1  0
  1 40  1  0
  2  3  1  0
  2 41  1  0
  2 42  1  0
  3  4  1  0
  4  5  2  0
  4  6  1  0
  6 33  1  0
  6  7  1  0
  6 43  1  1
  7  8  1  0
  7  9  1  0
  7 44  1  1
  8 45  1  0
  8 46  1  0
  8 47  1  0
  9 37  1  0
  9 10  1  0
  9 48  1  1
 10 11  1  0
 11 24  1  0
 11 12  1  0
 11 49  1  1
 12 13  1  0
 12 50  1  0
 12 51  1  0
 13 22  1  0
 13 14  1  0
 13 52  1  1
 14 15  1  0
 14 16  1  0
 14 17  1  0
 15 53  1  0
 15 54  1  0
 15 55  1  0
 16 56  1  0
 16 57  1  0
 16 58  1  0
 17 18  1  0
 17 19  1  0
 17 59  1  6
 18 60  1  0
 19 20  1  0
 19 21  1  0
 19 61  1  6
 20 62  1  0
 21 22  1  0
 21 63  1  0
 21 64  1  0
 22 23  1  6
 22 24  1  0
 23 65  1  0
 23 66  1  0
 23 67  1  0
 24 25  1  0
 24 68  1  6
 25 26  2  0
 25 27  1  0
 27 35  1  0
 27 28  1  0
 27 69  1  6
 29 28  1  6
 29 33  1  0
 29 30  1  0
 29 35  1  0
 30 31  1  0
 30 70  1  0
 30 71  1  0
 31 32  1  0
 31 72  1  0
 31 73  1  0
 32 33  1  0
 32 74  1  0
 32 75  1  0
 33 34  1  1
 34 76  1  0
 34 77  1  0
 34 78  1  0
 35 37  1  0
 35 36  1  6
 36 37  1  0
 36 79  1  0
 36 80  1  0
 37 81  1  1
M  END
>  <i_m_ct_stereo_status>  (64) 
1

>  <s_m_source_file>  (64) 
/var/tmp/pbs.5076255.sched01/tmpoa2zap1w/0_chicbso.sdf

>  <i_m_source_file_index>  (64) 
30

>  <i_lp_mmshare_version>  (64) 
48012

>  <i_f3d_flags>  (64) 
0

>  <s_epik_input>  (64) 
W0NIM11bQ0gyXU9DKD1PKVtDQEBIXShbQ0BAXTEoW0NIM10pW0NIMl1bQ0gyXVtDSDJdMilbQ0BASF0oW0NIM10pW0NAQEhdKFtDQEBIXTNbQ0gyXTQpT1tDQEBIXShbQ0BIXTVDKD1PKVtDQEhdKE82KVtDQF0zNFtDQF0xMjYpW0NIMl1bQ0BIXTdbQ0BdNShbQ0gzXSlbQ0gyXVtDQEhdKFtPSF0pW0NASF0oW09IXSlDNyhbQ0gzXSlbQ0gzXQ==

>  <s_epik_cmdline>  (64) 
J2VwaWtfcHl0aG9uJywgJy1waHQnLCAnMi4wJywgJy1waCcsICc3LjAnLCAnLXRuJywgJzgnLCAnLW1hJywgJzIwMCcsICctaW1hZScsICc8aW5maWxlLm1hZT4nLCAnLW9tYWUnLCAnPG91dGZpbGUubWFlPic=

>  <r_lp_tautomer_probability>  (64) 
1

>  <r_epik_Ionization_Penalty>  (64) 
7.03722e-07

>  <r_epik_Ionization_Penalty_Charging>  (64) 
0

>  <r_epik_Ionization_Penalty_Neutral>  (64) 
7.03722e-07

>  <r_epik_State_Penalty>  (64) 
-0

>  <r_epik_Charging_Adjusted_Penalty>  (64) 
0

>  <i_epik_Tot_Q>  (64) 
0

>  <i_epik_Tot_abs_Q>  (64) 
0

>  <s_epik_Chemistry_Notes>  (64) 
This compound has an ester and may undergo hydrolysis at high or low pH.

>  <s_lp_Force_Field>  (64) 
OPLS3e

>  <r_lp_Energy>  (64) 
125.509

>  <b_lp_Chiralities_Consistent>  (64) 
1

>  <s_lp_Variant>  (64) 
25:0-1

>  <s_i_glide_gridfile>  (64) 
pfpi4k_grid

>  <i_i_glide_lignum>  (64) 
30

>  <i_i_glide_rotatable_bonds>  (64) 
5

>  <r_i_docking_score>  (64) 
-3.0443

>  <r_i_glide_ligand_efficiency>  (64) 
-0.0822783

>  <r_i_glide_ligand_efficiency_sa>  (64) 
-0.27417

>  <r_i_glide_ligand_efficiency_ln>  (64) 
-0.660237

>  <r_i_glide_gscore>  (64) 
-3.0443

>  <r_i_glide_lipo>  (64) 
-0.668496

>  <r_i_glide_hbond>  (64) 
-0.0123301

>  <r_i_glide_metal>  (64) 
-0

>  <r_i_glide_rewards>  (64) 
-0.0216068

>  <r_i_glide_evdw>  (64) 
-34.4984

>  <r_i_glide_ecoul>  (64) 
-5.09323

>  <r_i_glide_erotb>  (64) 
0.153793

>  <r_i_glide_esite>  (64) 
-0.00675417

>  <r_i_glide_emodel>  (64) 
-45.6405

>  <r_i_glide_energy>  (64) 
-39.5916

>  <r_i_glide_einternal>  (64) 
4.18774

>  <r_i_glide_intrahb_reward>  (64) 
-0

>  <i_i_glide_confnum>  (64) 
4

>  <i_i_glide_posenum>  (64) 
7

>  <r_i_glide_eff_state_penalty>  (64) 
0

>  <ligand_id>  (64) 
25

>  <original_smiles>  (64) 
CCOC(=O)C1C(C)C2OC3CC4C(C)(C)C(O)C(O)CC4(C)C3C(=O)C3OC4(CCCC14C)C31CC21

>  <smiles>  (64) 
[H]OC1([H])C([H])([H])C2(C([H])([H])[H])C3([H])C(=O)C4([H])OC56C([H])([H])C([H])([H])C([H])([H])C5(C([H])([H])[H])C([H])(C(=O)OC([H])([H])C([H])([H])[H])C([H])(C([H])([H])[H])C([H])(OC3([H])C([H])([H])C2([H])C(C([H])([H])[H])(C([H])([H])[H])C1([H])O[H])C1([H])C([H])([H])C416

$$$$
25:0:1
     RDKit          3D

 81 87  0  0  1  0  0  0  0  0999 V2000
   -1.3628   -7.4984    3.3725 C   0  0  0  0  0  0  0  0  0  0  0  0
   -0.9587   -6.6574    4.5921 C   0  0  0  0  0  0  0  0  0  0  0  0
    0.1273   -7.2780    5.2648 O   0  0  0  0  0  0  0  0  0  0  0  0
    1.3913   -6.9049    4.9989 C   0  0  0  0  0  0  0  0  0  0  0  0
    1.7002   -5.8784    4.3974 O   0  0  0  0  0  0  0  0  0  0  0  0
    2.4353   -7.8881    5.5788 C   0  0  2  0  0  0  0  0  0  0  0  0
    3.7524   -7.1417    6.0631 C   0  0  1  0  0  0  0  0  0  0  0  0
    4.3104   -7.7321    7.3791 C   0  0  0  0  0  0  0  0  0  0  0  0
    4.8830   -6.8484    5.0212 C   0  0  2  0  0  0  0  0  0  0  0  0
    4.4510   -5.7339    4.2564 O   0  0  0  0  0  0  0  0  0  0  0  0
    5.3316   -5.0976    3.3324 C   0  0  2  0  0  0  0  0  0  0  0  0
    4.9394   -3.6120    3.3154 C   0  0  0  0  0  0  0  0  0  0  0  0
    5.2397   -3.0761    1.9008 C   0  0  2  0  0  0  0  0  0  0  0  0
    4.3044   -1.9499    1.3402 C   0  0  0  0  0  0  0  0  0  0  0  0
    2.8032   -2.3157    1.3657 C   0  0  0  0  0  0  0  0  0  0  0  0
    4.4572   -0.6642    2.1875 C   0  0  0  0  0  0  0  0  0  0  0  0
    4.7253   -1.6485   -0.1259 C   0  0  1  0  0  0  0  0  0  0  0  0
    6.0642   -1.1874   -0.1649 O   0  0  0  0  0  0  0  0  0  0  0  0
    4.5253   -2.8780   -1.0437 C   0  0  1  0  0  0  0  0  0  0  0  0
    5.1423   -2.7126   -2.3088 O   0  0  0  0  0  0  0  0  0  0  0  0
    4.8241   -4.2689   -0.4237 C   0  0  0  0  0  0  0  0  0  0  0  0
    5.4982   -4.3189    0.9906 C   0  0  1  0  0  0  0  0  0  0  0  0
    7.0331   -4.4054    0.7383 C   0  0  0  0  0  0  0  0  0  0  0  0
    5.1290   -5.5706    1.8773 C   0  0  2  0  0  0  0  0  0  0  0  0
    3.7402   -6.2412    1.7724 C   0  0  0  0  0  0  0  0  0  0  0  0
    2.7347   -5.5680    1.5743 O   0  0  0  0  0  0  0  0  0  0  0  0
    3.7572   -7.7485    1.9075 C   0  0  2  0  0  0  0  0  0  0  0  0
    2.5350   -8.2624    2.5125 O   0  0  0  0  0  0  0  0  0  0  0  0
    3.1819   -9.2482    3.3880 C   0  0  2  0  0  0  0  0  0  0  0  0
    2.9117  -10.6091    2.7779 C   0  0  0  0  0  0  0  0  0  0  0  0
    1.5136  -10.9856    3.3065 C   0  0  0  0  0  0  0  0  0  0  0  0
    1.2002   -9.9716    4.4297 C   0  0  0  0  0  0  0  0  0  0  0  0
    2.5456   -9.2820    4.8070 C   0  0  2  0  0  0  0  0  0  0  0  0
    3.1879  -10.3403    5.7568 C   0  0  0  0  0  0  0  0  0  0  0  0
    4.4409   -8.4901    3.0359 C   0  0  1  0  0  0  0  0  0  0  0  0
    5.9490   -8.5978    3.1053 C   0  0  0  0  0  0  0  0  0  0  0  0
    5.1996   -8.1479    4.3097 C   0  0  1  0  0  0  0  0  0  0  0  0
   -2.1903   -7.0504    2.8295 H   0  0  0  0  0  0  0  0  0  0  0  0
   -1.6779   -8.4968    3.6794 H   0  0  0  0  0  0  0  0  0  0  0  0
   -0.5321   -7.6047    2.6729 H   0  0  0  0  0  0  0  0  0  0  0  0
   -0.7091   -5.6420    4.2871 H   0  0  0  0  0  0  0  0  0  0  0  0
   -1.7964   -6.5772    5.2825 H   0  0  0  0  0  0  0  0  0  0  0  0
    1.9450   -8.1617    6.5137 H   0  0  0  0  0  0  0  0  0  0  0  0
    3.4327   -6.1530    6.3889 H   0  0  0  0  0  0  0  0  0  0  0  0
    4.7967   -8.6964    7.2501 H   0  0  0  0  0  0  0  0  0  0  0  0
    3.5213   -7.8647    8.1195 H   0  0  0  0  0  0  0  0  0  0  0  0
    5.0490   -7.0656    7.8248 H   0  0  0  0  0  0  0  0  0  0  0  0
    5.7846   -6.5416    5.5539 H   0  0  0  0  0  0  0  0  0  0  0  0
    6.3746   -5.2025    3.6374 H   0  0  0  0  0  0  0  0  0  0  0  0
    3.8821   -3.5211    3.5518 H   0  0  0  0  0  0  0  0  0  0  0  0
    5.4845   -3.0534    4.0811 H   0  0  0  0  0  0  0  0  0  0  0  0
    6.2054   -2.5859    2.0193 H   0  0  0  0  0  0  0  0  0  0  0  0
    2.2169   -1.5209    0.9074 H   0  0  0  0  0  0  0  0  0  0  0  0
    2.4157   -2.4531    2.3759 H   0  0  0  0  0  0  0  0  0  0  0  0
    2.5775   -3.2206    0.8079 H   0  0  0  0  0  0  0  0  0  0  0  0
    3.8761    0.1562    1.7616 H   0  0  0  0  0  0  0  0  0  0  0  0
    5.4925   -0.3301    2.2579 H   0  0  0  0  0  0  0  0  0  0  0  0
    4.0982   -0.8207    3.2053 H   0  0  0  0  0  0  0  0  0  0  0  0
    4.1126   -0.8347   -0.5162 H   0  0  0  0  0  0  0  0  0  0  0  0
    6.1277   -0.4452    0.4195 H   0  0  0  0  0  0  0  0  0  0  0  0
    3.4623   -2.8893   -1.2789 H   0  0  0  0  0  0  0  0  0  0  0  0
    4.8210   -3.3980   -2.8762 H   0  0  0  0  0  0  0  0  0  0  0  0
    3.8801   -4.8009   -0.4393 H   0  0  0  0  0  0  0  0  0  0  0  0
    5.4210   -4.8456   -1.1288 H   0  0  0  0  0  0  0  0  0  0  0  0
    7.3060   -5.3077    0.1882 H   0  0  0  0  0  0  0  0  0  0  0  0
    7.6028   -4.4253    1.6683 H   0  0  0  0  0  0  0  0  0  0  0  0
    7.3983   -3.5580    0.1624 H   0  0  0  0  0  0  0  0  0  0  0  0
    5.8379   -6.3481    1.6288 H   0  0  0  0  0  0  0  0  0  0  0  0
    3.9258   -8.2264    0.9450 H   0  0  0  0  0  0  0  0  0  0  0  0
    2.9550  -10.5991    1.6882 H   0  0  0  0  0  0  0  0  0  0  0  0
    3.6396  -11.3510    3.1227 H   0  0  0  0  0  0  0  0  0  0  0  0
    0.7578  -10.9213    2.5237 H   0  0  0  0  0  0  0  0  0  0  0  0
    1.4980  -12.0116    3.6823 H   0  0  0  0  0  0  0  0  0  0  0  0
    0.5113   -9.2767    3.9737 H   0  0  0  0  0  0  0  0  0  0  0  0
    0.6797  -10.4252    5.2773 H   0  0  0  0  0  0  0  0  0  0  0  0
    2.9627  -11.3649    5.4602 H   0  0  0  0  0  0  0  0  0  0  0  0
    2.7940  -10.2435    6.7724 H   0  0  0  0  0  0  0  0  0  0  0  0
    4.2686  -10.3128    5.8199 H   0  0  0  0  0  0  0  0  0  0  0  0
    6.3380   -9.6171    3.0847 H   0  0  0  0  0  0  0  0  0  0  0  0
    6.6105   -7.8528    2.6710 H   0  0  0  0  0  0  0  0  0  0  0  0
    5.4473   -8.8971    5.0486 H   0  0  0  0  0  0  0  0  0  0  0  0
  1  2  1  0
  1 38  1  0
  1 39  1  0
  1 40  1  0
  2  3  1  0
  2 41  1  0
  2 42  1  0
  3  4  1  0
  4  5  2  0
  4  6  1  0
  6 33  1  0
  6  7  1  0
  6 43  1  1
  7  8  1  0
  7  9  1  0
  7 44  1  1
  8 45  1  0
  8 46  1  0
  8 47  1  0
  9 37  1  0
  9 10  1  0
  9 48  1  1
 10 11  1  0
 11 24  1  0
 11 12  1  0
 11 49  1  1
 12 13  1  0
 12 50  1  0
 12 51  1  0
 13 22  1  0
 13 14  1  0
 13 52  1  1
 14 15  1  0
 14 16  1  0
 14 17  1  0
 15 53  1  0
 15 54  1  0
 15 55  1  0
 16 56  1  0
 16 57  1  0
 16 58  1  0
 17 18  1  0
 17 19  1  0
 17 59  1  6
 18 60  1  0
 19 20  1  0
 19 21  1  0
 19 61  1  6
 20 62  1  0
 21 22  1  0
 21 63  1  0
 21 64  1  0
 22 23  1  6
 22 24  1  0
 23 65  1  0
 23 66  1  0
 23 67  1  0
 24 25  1  0
 24 68  1  6
 25 26  2  0
 25 27  1  0
 27 35  1  0
 27 28  1  0
 27 69  1  6
 29 28  1  6
 29 33  1  0
 29 30  1  0
 29 35  1  0
 30 31  1  0
 30 70  1  0
 30 71  1  0
 31 32  1  0
 31 72  1  0
 31 73  1  0
 32 33  1  0
 32 74  1  0
 32 75  1  0
 33 34  1  1
 34 76  1  0
 34 77  1  0
 34 78  1  0
 35 37  1  0
 35 36  1  6
 36 37  1  0
 36 79  1  0
 36 80  1  0
 37 81  1  1
M  END
>  <i_m_ct_stereo_status>  (65) 
1

>  <s_m_source_file>  (65) 
/var/tmp/pbs.5076255.sched01/tmpoa2zap1w/0_chicbso.sdf

>  <i_m_source_file_index>  (65) 
30

>  <i_lp_mmshare_version>  (65) 
48012

>  <i_f3d_flags>  (65) 
0

>  <s_epik_input>  (65) 
W0NIM11bQ0gyXU9DKD1PKVtDQEBIXShbQ0BAXTEoW0NIM10pW0NIMl1bQ0gyXVtDSDJdMilbQ0BASF0oW0NIM10pW0NAQEhdKFtDQEBIXTNbQ0gyXTQpT1tDQEBIXShbQ0BIXTVDKD1PKVtDQEhdKE82KVtDQF0zNFtDQF0xMjYpW0NIMl1bQ0BIXTdbQ0BdNShbQ0gzXSlbQ0gyXVtDQEhdKFtPSF0pW0NASF0oW09IXSlDNyhbQ0gzXSlbQ0gzXQ==

>  <s_epik_cmdline>  (65) 
J2VwaWtfcHl0aG9uJywgJy1waHQnLCAnMi4wJywgJy1waCcsICc3LjAnLCAnLXRuJywgJzgnLCAnLW1hJywgJzIwMCcsICctaW1hZScsICc8aW5maWxlLm1hZT4nLCAnLW9tYWUnLCAnPG91dGZpbGUubWFlPic=

>  <r_lp_tautomer_probability>  (65) 
1

>  <r_epik_Ionization_Penalty>  (65) 
7.03722e-07

>  <r_epik_Ionization_Penalty_Charging>  (65) 
0

>  <r_epik_Ionization_Penalty_Neutral>  (65) 
7.03722e-07

>  <r_epik_State_Penalty>  (65) 
-0

>  <r_epik_Charging_Adjusted_Penalty>  (65) 
0

>  <i_epik_Tot_Q>  (65) 
0

>  <i_epik_Tot_abs_Q>  (65) 
0

>  <s_epik_Chemistry_Notes>  (65) 
This compound has an ester and may undergo hydrolysis at high or low pH.

>  <s_lp_Force_Field>  (65) 
OPLS3e

>  <r_lp_Energy>  (65) 
125.509

>  <b_lp_Chiralities_Consistent>  (65) 
1

>  <s_lp_Variant>  (65) 
25:0-1

>  <s_i_glide_gridfile>  (65) 
pfpi4k_grid

>  <i_i_glide_lignum>  (65) 
30

>  <i_i_glide_rotatable_bonds>  (65) 
5

>  <r_i_docking_score>  (65) 
-2.75932

>  <r_i_glide_ligand_efficiency>  (65) 
-0.0745763

>  <r_i_glide_ligand_efficiency_sa>  (65) 
-0.248505

>  <r_i_glide_ligand_efficiency_ln>  (65) 
-0.598432

>  <r_i_glide_gscore>  (65) 
-2.75932

>  <r_i_glide_lipo>  (65) 
-0.586175

>  <r_i_glide_hbond>  (65) 
0

>  <r_i_glide_metal>  (65) 
-0

>  <r_i_glide_rewards>  (65) 
-0.0467037

>  <r_i_glide_evdw>  (65) 
-35.5724

>  <r_i_glide_ecoul>  (65) 
-3.31635

>  <r_i_glide_erotb>  (65) 
0.153793

>  <r_i_glide_esite>  (65) 
-0.00416096

>  <r_i_glide_emodel>  (65) 
-45.4503

>  <r_i_glide_energy>  (65) 
-38.8888

>  <r_i_glide_einternal>  (65) 
1.70011

>  <r_i_glide_intrahb_reward>  (65) 
-0

>  <i_i_glide_confnum>  (65) 
2

>  <i_i_glide_posenum>  (65) 
11

>  <r_i_glide_eff_state_penalty>  (65) 
0

>  <ligand_id>  (65) 
25

>  <original_smiles>  (65) 
CCOC(=O)C1C(C)C2OC3CC4C(C)(C)C(O)C(O)CC4(C)C3C(=O)C3OC4(CCCC14C)C31CC21

>  <smiles>  (65) 
[H]OC1([H])C([H])([H])C2(C([H])([H])[H])C3([H])C(=O)C4([H])OC56C([H])([H])C([H])([H])C([H])([H])C5(C([H])([H])[H])C([H])(C(=O)OC([H])([H])C([H])([H])[H])C([H])(C([H])([H])[H])C([H])(OC3([H])C([H])([H])C2([H])C(C([H])([H])[H])(C([H])([H])[H])C1([H])O[H])C1([H])C([H])([H])C416

$$$$
25:0:2
     RDKit          3D

 81 87  0  0  1  0  0  0  0  0999 V2000
    0.2143   -3.0730    7.6191 C   0  0  0  0  0  0  0  0  0  0  0  0
   -0.7405   -3.8857    6.7218 C   0  0  0  0  0  0  0  0  0  0  0  0
   -0.2607   -5.2081    6.5097 O   0  0  0  0  0  0  0  0  0  0  0  0
    0.6815   -5.4236    5.5718 C   0  0  0  0  0  0  0  0  0  0  0  0
    1.1101   -4.5596    4.8271 O   0  0  0  0  0  0  0  0  0  0  0  0
    1.2274   -6.8665    5.5799 C   0  0  2  0  0  0  0  0  0  0  0  0
    2.7905   -6.8837    5.8243 C   0  0  1  0  0  0  0  0  0  0  0  0
    3.2251   -8.0158    6.7807 C   0  0  0  0  0  0  0  0  0  0  0  0
    3.7401   -6.7528    4.5916 C   0  0  2  0  0  0  0  0  0  0  0  0
    3.7569   -5.3813    4.2286 O   0  0  0  0  0  0  0  0  0  0  0  0
    4.6699   -4.9015    3.2451 C   0  0  2  0  0  0  0  0  0  0  0  0
    4.9931   -3.4467    3.6464 C   0  0  0  0  0  0  0  0  0  0  0  0
    5.2686   -2.6685    2.3418 C   0  0  2  0  0  0  0  0  0  0  0  0
    4.8846   -1.1468    2.3027 C   0  0  0  0  0  0  0  0  0  0  0  0
    3.4050   -0.8741    2.6834 C   0  0  0  0  0  0  0  0  0  0  0  0
    5.7227   -0.3598    3.3330 C   0  0  0  0  0  0  0  0  0  0  0  0
    5.1456   -0.6000    0.8806 C   0  0  1  0  0  0  0  0  0  0  0  0
    6.5275   -0.6862    0.5344 O   0  0  0  0  0  0  0  0  0  0  0  0
    4.2761   -1.3141   -0.1752 C   0  0  1  0  0  0  0  0  0  0  0  0
    4.7146   -0.9861   -1.4829 O   0  0  0  0  0  0  0  0  0  0  0  0
    3.9932   -2.8254    0.0378 C   0  0  0  0  0  0  0  0  0  0  0  0
    4.8027   -3.5673    1.1607 C   0  0  1  0  0  0  0  0  0  0  0  0
    6.0600   -4.1644    0.4736 C   0  0  0  0  0  0  0  0  0  0  0  0
    4.0613   -4.7914    1.8340 C   0  0  2  0  0  0  0  0  0  0  0  0
    2.5319   -4.7997    2.0062 C   0  0  0  0  0  0  0  0  0  0  0  0
    1.9841   -3.7375    2.2828 O   0  0  0  0  0  0  0  0  0  0  0  0
    1.8741   -6.1250    1.7868 C   0  0  2  0  0  0  0  0  0  0  0  0
    0.6499   -6.2994    2.5576 O   0  0  0  0  0  0  0  0  0  0  0  0
    0.9111   -7.6512    3.0449 C   0  0  2  0  0  0  0  0  0  0  0  0
   -0.0634   -8.5183    2.2868 C   0  0  0  0  0  0  0  0  0  0  0  0
   -1.3712   -8.4428    3.0898 C   0  0  0  0  0  0  0  0  0  0  0  0
   -0.9864   -7.7762    4.4464 C   0  0  0  0  0  0  0  0  0  0  0  0
    0.5572   -7.8574    4.5401 C   0  0  2  0  0  0  0  0  0  0  0  0
    0.7842   -9.3270    5.0306 C   0  0  0  0  0  0  0  0  0  0  0  0
    2.2730   -7.3819    2.4979 C   0  0  1  0  0  0  0  0  0  0  0  0
    3.5701   -8.1025    2.1303 C   0  0  0  0  0  0  0  0  0  0  0  0
    3.3191   -7.7817    3.5725 C   0  0  1  0  0  0  0  0  0  0  0  0
   -0.1618   -2.0745    7.7961 H   0  0  0  0  0  0  0  0  0  0  0  0
    1.1981   -2.9753    7.1597 H   0  0  0  0  0  0  0  0  0  0  0  0
    0.3474   -3.5642    8.5863 H   0  0  0  0  0  0  0  0  0  0  0  0
   -1.7210   -3.9569    7.2017 H   0  0  0  0  0  0  0  0  0  0  0  0
   -0.9020   -3.3696    5.7742 H   0  0  0  0  0  0  0  0  0  0  0  0
    0.8292   -7.2235    6.5349 H   0  0  0  0  0  0  0  0  0  0  0  0
    3.0086   -5.9982    6.4145 H   0  0  0  0  0  0  0  0  0  0  0  0
    3.1906   -9.0083    6.3241 H   0  0  0  0  0  0  0  0  0  0  0  0
    2.5973   -8.0518    7.6693 H   0  0  0  0  0  0  0  0  0  0  0  0
    4.2503   -7.8707    7.1254 H   0  0  0  0  0  0  0  0  0  0  0  0
    4.7613   -7.0087    4.9003 H   0  0  0  0  0  0  0  0  0  0  0  0
    5.5955   -5.4888    3.2305 H   0  0  0  0  0  0  0  0  0  0  0  0
    4.1332   -3.0307    4.1670 H   0  0  0  0  0  0  0  0  0  0  0  0
    5.8150   -3.4099    4.3518 H   0  0  0  0  0  0  0  0  0  0  0  0
    6.3577   -2.6578    2.2785 H   0  0  0  0  0  0  0  0  0  0  0  0
    3.1699    0.1833    2.5834 H   0  0  0  0  0  0  0  0  0  0  0  0
    3.1742   -1.1549    3.7104 H   0  0  0  0  0  0  0  0  0  0  0  0
    2.7050   -1.4019    2.0363 H   0  0  0  0  0  0  0  0  0  0  0  0
    5.5097    0.7042    3.2987 H   0  0  0  0  0  0  0  0  0  0  0  0
    6.7930   -0.4680    3.1439 H   0  0  0  0  0  0  0  0  0  0  0  0
    5.5302   -0.6923    4.3509 H   0  0  0  0  0  0  0  0  0  0  0  0
    4.9036    0.4585    0.8594 H   0  0  0  0  0  0  0  0  0  0  0  0
    7.0198   -0.1169    1.0928 H   0  0  0  0  0  0  0  0  0  0  0  0
    3.2961   -0.8392   -0.1112 H   0  0  0  0  0  0  0  0  0  0  0  0
    4.6048   -0.0645   -1.5903 H   0  0  0  0  0  0  0  0  0  0  0  0
    2.9280   -2.9118    0.1630 H   0  0  0  0  0  0  0  0  0  0  0  0
    4.1596   -3.3305   -0.9190 H   0  0  0  0  0  0  0  0  0  0  0  0
    5.7941   -4.8843   -0.3040 H   0  0  0  0  0  0  0  0  0  0  0  0
    6.6964   -4.6969    1.1836 H   0  0  0  0  0  0  0  0  0  0  0  0
    6.6695   -3.3996    0.0100 H   0  0  0  0  0  0  0  0  0  0  0  0
    4.2893   -5.6681    1.2402 H   0  0  0  0  0  0  0  0  0  0  0  0
    1.6722   -6.3196    0.7302 H   0  0  0  0  0  0  0  0  0  0  0  0
   -0.2086   -8.2099    1.2604 H   0  0  0  0  0  0  0  0  0  0  0  0
    0.2886   -9.5722    2.2483 H   0  0  0  0  0  0  0  0  0  0  0  0
   -2.1312   -7.8674    2.5753 H   0  0  0  0  0  0  0  0  0  0  0  0
   -1.7806   -9.4470    3.2531 H   0  0  0  0  0  0  0  0  0  0  0  0
   -1.3356   -6.7467    4.4062 H   0  0  0  0  0  0  0  0  0  0  0  0
   -1.4914   -8.2712    5.2714 H   0  0  0  0  0  0  0  0  0  0  0  0
    0.0757  -10.0322    4.6073 H   0  0  0  0  0  0  0  0  0  0  0  0
    0.6555   -9.4062    6.1204 H   0  0  0  0  0  0  0  0  0  0  0  0
    1.7537   -9.7516    4.8006 H   0  0  0  0  0  0  0  0  0  0  0  0
    3.4397   -9.1371    1.8096 H   0  0  0  0  0  0  0  0  0  0  0  0
    4.4184   -7.5864    1.6973 H   0  0  0  0  0  0  0  0  0  0  0  0
    3.3094   -8.7596    4.0361 H   0  0  0  0  0  0  0  0  0  0  0  0
  1  2  1  0
  1 38  1  0
  1 39  1  0
  1 40  1  0
  2  3  1  0
  2 41  1  0
  2 42  1  0
  3  4  1  0
  4  5  2  0
  4  6  1  0
  6 33  1  0
  6  7  1  0
  6 43  1  1
  7  8  1  0
  7  9  1  0
  7 44  1  1
  8 45  1  0
  8 46  1  0
  8 47  1  0
  9 37  1  0
  9 10  1  0
  9 48  1  1
 10 11  1  0
 11 24  1  0
 11 12  1  0
 11 49  1  6
 12 13  1  0
 12 50  1  0
 12 51  1  0
 13 22  1  0
 13 14  1  0
 13 52  1  6
 14 15  1  0
 14 16  1  0
 14 17  1  0
 15 53  1  0
 15 54  1  0
 15 55  1  0
 16 56  1  0
 16 57  1  0
 16 58  1  0
 17 18  1  0
 17 19  1  0
 17 59  1  1
 18 60  1  0
 19 20  1  0
 19 21  1  0
 19 61  1  6
 20 62  1  0
 21 22  1  0
 21 63  1  0
 21 64  1  0
 22 23  1  6
 22 24  1  0
 23 65  1  0
 23 66  1  0
 23 67  1  0
 24 25  1  0
 24 68  1  6
 25 26  2  0
 25 27  1  0
 27 35  1  0
 27 28  1  0
 27 69  1  6
 29 28  1  6
 29 33  1  0
 29 30  1  0
 29 35  1  0
 30 31  1  0
 30 70  1  0
 30 71  1  0
 31 32  1  0
 31 72  1  0
 31 73  1  0
 32 33  1  0
 32 74  1  0
 32 75  1  0
 33 34  1  1
 34 76  1  0
 34 77  1  0
 34 78  1  0
 35 37  1  0
 35 36  1  6
 36 37  1  0
 36 79  1  0
 36 80  1  0
 37 81  1  1
M  END
>  <i_m_ct_stereo_status>  (66) 
1

>  <s_m_source_file>  (66) 
/var/tmp/pbs.5076255.sched01/tmpoa2zap1w/0_chicbso.sdf

>  <i_m_source_file_index>  (66) 
30

>  <i_lp_mmshare_version>  (66) 
48012

>  <i_f3d_flags>  (66) 
0

>  <s_epik_input>  (66) 
W0NIM11bQ0gyXU9DKD1PKVtDQEBIXShbQ0BAXTEoW0NIM10pW0NIMl1bQ0gyXVtDSDJdMilbQ0BASF0oW0NIM10pW0NAQEhdKFtDQEBIXTNbQ0gyXTQpT1tDQEBIXShbQ0BIXTVDKD1PKVtDQEhdKE82KVtDQF0zNFtDQF0xMjYpW0NIMl1bQ0BIXTdbQ0BdNShbQ0gzXSlbQ0gyXVtDQEhdKFtPSF0pW0NASF0oW09IXSlDNyhbQ0gzXSlbQ0gzXQ==

>  <s_epik_cmdline>  (66) 
J2VwaWtfcHl0aG9uJywgJy1waHQnLCAnMi4wJywgJy1waCcsICc3LjAnLCAnLXRuJywgJzgnLCAnLW1hJywgJzIwMCcsICctaW1hZScsICc8aW5maWxlLm1hZT4nLCAnLW9tYWUnLCAnPG91dGZpbGUubWFlPic=

>  <r_lp_tautomer_probability>  (66) 
1

>  <r_epik_Ionization_Penalty>  (66) 
7.03722e-07

>  <r_epik_Ionization_Penalty_Charging>  (66) 
0

>  <r_epik_Ionization_Penalty_Neutral>  (66) 
7.03722e-07

>  <r_epik_State_Penalty>  (66) 
-0

>  <r_epik_Charging_Adjusted_Penalty>  (66) 
0

>  <i_epik_Tot_Q>  (66) 
0

>  <i_epik_Tot_abs_Q>  (66) 
0

>  <s_epik_Chemistry_Notes>  (66) 
This compound has an ester and may undergo hydrolysis at high or low pH.

>  <s_lp_Force_Field>  (66) 
OPLS3e

>  <r_lp_Energy>  (66) 
125.509

>  <b_lp_Chiralities_Consistent>  (66) 
1

>  <s_lp_Variant>  (66) 
25:0-1

>  <s_i_glide_gridfile>  (66) 
pfpi4k_grid

>  <i_i_glide_lignum>  (66) 
30

>  <i_i_glide_rotatable_bonds>  (66) 
5

>  <r_i_docking_score>  (66) 
-2.75587

>  <r_i_glide_ligand_efficiency>  (66) 
-0.0744831

>  <r_i_glide_ligand_efficiency_sa>  (66) 
-0.248194

>  <r_i_glide_ligand_efficiency_ln>  (66) 
-0.597684

>  <r_i_glide_gscore>  (66) 
-2.75587

>  <r_i_glide_lipo>  (66) 
-0.625666

>  <r_i_glide_hbond>  (66) 
-0.0142864

>  <r_i_glide_metal>  (66) 
-0

>  <r_i_glide_rewards>  (66) 
0

>  <r_i_glide_evdw>  (66) 
-33.4917

>  <r_i_glide_ecoul>  (66) 
-3.86091

>  <r_i_glide_erotb>  (66) 
0.153793

>  <r_i_glide_esite>  (66) 
-0.0159927

>  <r_i_glide_emodel>  (66) 
-44.0479

>  <r_i_glide_energy>  (66) 
-37.3526

>  <r_i_glide_einternal>  (66) 
1.34155

>  <r_i_glide_intrahb_reward>  (66) 
-0

>  <i_i_glide_confnum>  (66) 
4

>  <i_i_glide_posenum>  (66) 
22

>  <r_i_glide_eff_state_penalty>  (66) 
0

>  <ligand_id>  (66) 
25

>  <original_smiles>  (66) 
CCOC(=O)C1C(C)C2OC3CC4C(C)(C)C(O)C(O)CC4(C)C3C(=O)C3OC4(CCCC14C)C31CC21

>  <smiles>  (66) 
[H]OC1([H])C([H])([H])C2(C([H])([H])[H])C3([H])C(=O)C4([H])OC56C([H])([H])C([H])([H])C([H])([H])C5(C([H])([H])[H])C([H])(C(=O)OC([H])([H])C([H])([H])[H])C([H])(C([H])([H])[H])C([H])(OC3([H])C([H])([H])C2([H])C(C([H])([H])[H])(C([H])([H])[H])C1([H])O[H])C1([H])C([H])([H])C416

$$$$
26:0:0
     RDKit          3D

 46 49  0  0  1  0  0  0  0  0999 V2000
    5.9839   -5.9427    3.6587 C   0  0  0  0  0  0  0  0  0  0  0  0
    4.6573   -5.5529    2.9489 C   0  0  0  0  0  0  0  0  0  0  0  0
    3.7884   -6.8409    2.9495 C   0  0  0  0  0  0  0  0  0  0  0  0
    3.9397   -4.4616    3.7776 C   0  0  0  0  0  0  0  0  0  0  0  0
    4.2540   -4.2008    4.9368 O   0  0  0  0  0  0  0  0  0  0  0  0
    2.7776   -3.7294    3.1117 C   0  0  0  0  0  0  0  0  0  0  0  0
    3.1531   -3.2186    1.7090 C   0  0  0  0  0  0  0  0  0  0  0  0
    3.6964   -4.3354    0.7657 C   0  0  2  0  0  0  0  0  0  0  0  0
    2.5756   -5.3677    0.4745 C   0  0  0  0  0  0  0  0  0  0  0  0
    4.9335   -5.0015    1.4890 C   0  0  1  0  0  0  0  0  0  0  0  0
    6.1382   -4.0224    1.5078 C   0  0  0  0  0  0  0  0  0  0  0  0
    6.5269   -3.4531    0.1522 C   0  0  0  0  0  0  0  0  0  0  0  0
    7.7225   -3.4198   -0.1347 O   0  0  0  0  0  0  0  0  0  0  0  0
    5.4010   -2.9114   -0.7001 C   0  0  1  0  0  0  0  0  0  0  0  0
    5.8592   -2.5789   -2.1346 C   0  0  0  0  0  0  0  0  0  0  0  0
    4.8027   -1.4802   -2.1123 C   0  0  1  0  0  0  0  0  0  0  0  0
    3.4066   -1.9798   -2.4421 C   0  0  0  0  0  0  0  0  0  0  0  0
    2.9761   -3.1040   -1.4670 C   0  0  0  0  0  0  0  0  0  0  0  0
    4.1310   -3.7934   -0.6541 C   0  0  2  0  0  0  0  0  0  0  0  0
    5.1584   -1.3884   -0.6209 C   0  0  0  0  0  0  0  0  0  0  0  0
    6.5886   -6.6090    3.0409 H   0  0  0  0  0  0  0  0  0  0  0  0
    5.8038   -6.4568    4.6051 H   0  0  0  0  0  0  0  0  0  0  0  0
    6.5940   -5.0744    3.9133 H   0  0  0  0  0  0  0  0  0  0  0  0
    3.8815   -7.3910    2.0132 H   0  0  0  0  0  0  0  0  0  0  0  0
    2.7315   -6.6410    3.1252 H   0  0  0  0  0  0  0  0  0  0  0  0
    4.0743   -7.5324    3.7435 H   0  0  0  0  0  0  0  0  0  0  0  0
    1.9246   -4.4028    3.0663 H   0  0  0  0  0  0  0  0  0  0  0  0
    2.4749   -2.8960    3.7426 H   0  0  0  0  0  0  0  0  0  0  0  0
    2.2757   -2.7268    1.2991 H   0  0  0  0  0  0  0  0  0  0  0  0
    3.8959   -2.4326    1.8265 H   0  0  0  0  0  0  0  0  0  0  0  0
    2.9727   -6.2475   -0.0324 H   0  0  0  0  0  0  0  0  0  0  0  0
    1.7938   -4.9515   -0.1562 H   0  0  0  0  0  0  0  0  0  0  0  0
    2.0525   -5.7053    1.3655 H   0  0  0  0  0  0  0  0  0  0  0  0
    5.2439   -5.8546    0.8783 H   0  0  0  0  0  0  0  0  0  0  0  0
    5.9794   -3.1963    2.2024 H   0  0  0  0  0  0  0  0  0  0  0  0
    7.0289   -4.5506    1.8488 H   0  0  0  0  0  0  0  0  0  0  0  0
    6.8785   -2.2003   -2.2293 H   0  0  0  0  0  0  0  0  0  0  0  0
    5.6660   -3.3687   -2.8617 H   0  0  0  0  0  0  0  0  0  0  0  0
    5.0997   -0.5921   -2.6720 H   0  0  0  0  0  0  0  0  0  0  0  0
    2.6852   -1.1630   -2.4234 H   0  0  0  0  0  0  0  0  0  0  0  0
    3.3893   -2.3579   -3.4658 H   0  0  0  0  0  0  0  0  0  0  0  0
    2.2625   -2.6609   -0.7833 H   0  0  0  0  0  0  0  0  0  0  0  0
    2.3996   -3.8462   -2.0241 H   0  0  0  0  0  0  0  0  0  0  0  0
    4.3806   -4.6775   -1.2414 H   0  0  0  0  0  0  0  0  0  0  0  0
    4.3234   -1.0836    0.0076 H   0  0  0  0  0  0  0  0  0  0  0  0
    6.0505   -0.7946   -0.4196 H   0  0  0  0  0  0  0  0  0  0  0  0
  1  2  1  0
  1 21  1  0
  1 22  1  0
  1 23  1  0
  2 10  1  0
  2  3  1  0
  2  4  1  0
  3 24  1  0
  3 25  1  0
  3 26  1  0
  4  5  2  0
  4  6  1  0
  6  7  1  0
  6 27  1  0
  6 28  1  0
  7  8  1  0
  7 29  1  0
  7 30  1  0
  8 19  1  0
  8  9  1  6
  8 10  1  0
  9 31  1  0
  9 32  1  0
  9 33  1  0
 10 11  1  0
 10 34  1  6
 11 12  1  0
 11 35  1  0
 11 36  1  0
 12 13  2  0
 14 12  1  1
 14 19  1  0
 14 20  1  0
 14 15  1  0
 15 16  1  0
 15 37  1  0
 15 38  1  0
 16 17  1  0
 16 20  1  0
 16 39  1  6
 17 18  1  0
 17 40  1  0
 17 41  1  0
 18 19  1  0
 18 42  1  0
 18 43  1  0
 19 44  1  6
 20 45  1  0
 20 46  1  0
M  END
>  <i_m_ct_stereo_status>  (67) 
1

>  <s_m_source_file>  (67) 
/var/tmp/pbs.5076255.sched01/tmpoa2zap1w/0_chicbso.sdf

>  <i_m_source_file_index>  (67) 
31

>  <i_lp_mmshare_version>  (67) 
48012

>  <i_f3d_flags>  (67) 
0

>  <s_epik_input>  (67) 
W0NIMl0xW0NIMl1DKD1PKUMoW0NIM10pKFtDSDNdKVtDQEhdKFtDSDJdQzI9TylbQ0BdMShbQ0gzXSlbQ0BIXShbQ0BAXTIzNClbQ0gyXVtDSDJdW0NASF0oW0NIMl0zKVtDSDJdNA==

>  <s_epik_cmdline>  (67) 
J2VwaWtfcHl0aG9uJywgJy1waHQnLCAnMi4wJywgJy1waCcsICc3LjAnLCAnLXRuJywgJzgnLCAnLW1hJywgJzIwMCcsICctaW1hZScsICc8aW5maWxlLm1hZT4nLCAnLW9tYWUnLCAnPG91dGZpbGUubWFlPic=

>  <r_lp_tautomer_probability>  (67) 
1

>  <r_epik_Ionization_Penalty>  (67) 
1.94575e-13

>  <r_epik_Ionization_Penalty_Charging>  (67) 
0

>  <r_epik_Ionization_Penalty_Neutral>  (67) 
1.94575e-13

>  <r_epik_State_Penalty>  (67) 
-0

>  <r_epik_Charging_Adjusted_Penalty>  (67) 
0

>  <i_epik_Tot_Q>  (67) 
0

>  <i_epik_Tot_abs_Q>  (67) 
0

>  <s_lp_Force_Field>  (67) 
OPLS3e

>  <r_lp_Energy>  (67) 
47.3417

>  <b_lp_Chiralities_Consistent>  (67) 
1

>  <s_lp_Variant>  (67) 
26:0-1

>  <s_i_glide_gridfile>  (67) 
pfpi4k_grid

>  <i_i_glide_lignum>  (67) 
31

>  <i_i_glide_rotatable_bonds>  (67) 
0

>  <r_i_docking_score>  (67) 
-3.22863

>  <r_i_glide_ligand_efficiency>  (67) 
-0.161431

>  <r_i_glide_ligand_efficiency_sa>  (67) 
-0.438192

>  <r_i_glide_ligand_efficiency_ln>  (67) 
-0.808019

>  <r_i_glide_gscore>  (67) 
-3.22863

>  <r_i_glide_lipo>  (67) 
-0.158355

>  <r_i_glide_hbond>  (67) 
0

>  <r_i_glide_metal>  (67) 
-0

>  <r_i_glide_rewards>  (67) 
-1.67866

>  <r_i_glide_evdw>  (67) 
-23.4084

>  <r_i_glide_ecoul>  (67) 
-1.47463

>  <r_i_glide_erotb>  (67) 
0

>  <r_i_glide_esite>  (67) 
0

>  <r_i_glide_emodel>  (67) 
-29.6695

>  <r_i_glide_energy>  (67) 
-24.8831

>  <r_i_glide_einternal>  (67) 
0

>  <r_i_glide_intrahb_reward>  (67) 
-0

>  <i_i_glide_confnum>  (67) 
1

>  <i_i_glide_posenum>  (67) 
7

>  <r_i_glide_eff_state_penalty>  (67) 
0

>  <ligand_id>  (67) 
26

>  <original_smiles>  (67) 
CC1(C)C(=O)CCC2(C)C1CC(=O)C13CC(CCC12)C3

>  <smiles>  (67) 
[H]C([H])([H])C1(C([H])([H])[H])C(=O)C([H])([H])C([H])([H])C2(C([H])([H])[H])C1([H])C([H])([H])C(=O)C13C([H])([H])C([H])(C([H])([H])C([H])([H])C12[H])C3([H])[H]

$$$$
26:0:1
     RDKit          3D

 46 49  0  0  1  0  0  0  0  0999 V2000
    5.4760   -4.3042    4.5981 C   0  0  0  0  0  0  0  0  0  0  0  0
    4.1689   -4.3752    3.7721 C   0  0  0  0  0  0  0  0  0  0  0  0
    3.5364   -5.7484    4.1231 C   0  0  0  0  0  0  0  0  0  0  0  0
    3.2228   -3.2467    4.2418 C   0  0  0  0  0  0  0  0  0  0  0  0
    3.4034   -2.6241    5.2880 O   0  0  0  0  0  0  0  0  0  0  0  0
    2.0108   -2.9489    3.3683 C   0  0  0  0  0  0  0  0  0  0  0  0
    2.4104   -2.7828    1.8933 C   0  0  0  0  0  0  0  0  0  0  0  0
    3.1860   -4.0063    1.3098 C   0  0  2  0  0  0  0  0  0  0  0  0
    2.2840   -5.2724    1.3032 C   0  0  0  0  0  0  0  0  0  0  0  0
    4.4594   -4.2090    2.2197 C   0  0  1  0  0  0  0  0  0  0  0  0
    5.4747   -3.0559    1.9803 C   0  0  0  0  0  0  0  0  0  0  0  0
    5.8554   -2.8213    0.5280 C   0  0  0  0  0  0  0  0  0  0  0  0
    7.0505   -2.6386    0.2673 O   0  0  0  0  0  0  0  0  0  0  0  0
    4.7277   -2.7542   -0.4702 C   0  0  1  0  0  0  0  0  0  0  0  0
    5.2294   -2.7464   -1.9322 C   0  0  0  0  0  0  0  0  0  0  0  0
    4.0001   -1.9045   -2.2471 C   0  0  1  0  0  0  0  0  0  0  0  0
    2.7387   -2.7289   -2.4500 C   0  0  0  0  0  0  0  0  0  0  0  0
    2.4200   -3.5676   -1.1852 C   0  0  0  0  0  0  0  0  0  0  0  0
    3.6202   -3.8040   -0.1979 C   0  0  2  0  0  0  0  0  0  0  0  0
    4.2271   -1.3406   -0.8366 C   0  0  0  0  0  0  0  0  0  0  0  0
    6.2315   -4.9869    4.2042 H   0  0  0  0  0  0  0  0  0  0  0  0
    5.3229   -4.5625    5.6478 H   0  0  0  0  0  0  0  0  0  0  0  0
    5.8946   -3.2970    4.6084 H   0  0  0  0  0  0  0  0  0  0  0  0
    3.7926   -6.5084    3.3858 H   0  0  0  0  0  0  0  0  0  0  0  0
    2.4527   -5.7052    4.2140 H   0  0  0  0  0  0  0  0  0  0  0  0
    3.8814   -6.1267    5.0875 H   0  0  0  0  0  0  0  0  0  0  0  0
    1.2914   -3.7531    3.4930 H   0  0  0  0  0  0  0  0  0  0  0  0
    1.5276   -2.0441    3.7286 H   0  0  0  0  0  0  0  0  0  0  0  0
    1.5030   -2.5656    1.3414 H   0  0  0  0  0  0  0  0  0  0  0  0
    3.0075   -1.8755    1.8015 H   0  0  0  0  0  0  0  0  0  0  0  0
    2.8586   -6.1734    1.0710 H   0  0  0  0  0  0  0  0  0  0  0  0
    1.4883   -5.2064    0.5623 H   0  0  0  0  0  0  0  0  0  0  0  0
    1.7653   -5.4402    2.2401 H   0  0  0  0  0  0  0  0  0  0  0  0
    4.9572   -5.1248    1.8857 H   0  0  0  0  0  0  0  0  0  0  0  0
    5.1313   -2.1139    2.4104 H   0  0  0  0  0  0  0  0  0  0  0  0
    6.4097   -3.3030    2.4768 H   0  0  0  0  0  0  0  0  0  0  0  0
    6.1642   -2.2119   -2.1147 H   0  0  0  0  0  0  0  0  0  0  0  0
    5.2273   -3.7278   -2.4068 H   0  0  0  0  0  0  0  0  0  0  0  0
    4.1884   -1.1673   -3.0312 H   0  0  0  0  0  0  0  0  0  0  0  0
    1.8910   -2.0910   -2.7000 H   0  0  0  0  0  0  0  0  0  0  0  0
    2.8611   -3.3899   -3.3077 H   0  0  0  0  0  0  0  0  0  0  0  0
    1.6133   -3.0592   -0.6771 H   0  0  0  0  0  0  0  0  0  0  0  0
    1.9731   -4.5096   -1.4953 H   0  0  0  0  0  0  0  0  0  0  0  0
    4.0448   -4.7598   -0.5122 H   0  0  0  0  0  0  0  0  0  0  0  0
    3.3112   -1.0335   -0.3346 H   0  0  0  0  0  0  0  0  0  0  0  0
    4.9913   -0.5644   -0.7973 H   0  0  0  0  0  0  0  0  0  0  0  0
  1  2  1  0
  1 21  1  0
  1 22  1  0
  1 23  1  0
  2 10  1  0
  2  3  1  0
  2  4  1  0
  3 24  1  0
  3 25  1  0
  3 26  1  0
  4  5  2  0
  4  6  1  0
  6  7  1  0
  6 27  1  0
  6 28  1  0
  7  8  1  0
  7 29  1  0
  7 30  1  0
  8 19  1  0
  8  9  1  6
  8 10  1  0
  9 31  1  0
  9 32  1  0
  9 33  1  0
 10 11  1  0
 10 34  1  6
 11 12  1  0
 11 35  1  0
 11 36  1  0
 12 13  2  0
 14 12  1  1
 14 19  1  0
 14 20  1  0
 14 15  1  0
 15 16  1  0
 15 37  1  0
 15 38  1  0
 16 17  1  0
 16 20  1  0
 16 39  1  6
 17 18  1  0
 17 40  1  0
 17 41  1  0
 18 19  1  0
 18 42  1  0
 18 43  1  0
 19 44  1  6
 20 45  1  0
 20 46  1  0
M  END
>  <i_m_ct_stereo_status>  (68) 
1

>  <s_m_source_file>  (68) 
/var/tmp/pbs.5076255.sched01/tmpoa2zap1w/0_chicbso.sdf

>  <i_m_source_file_index>  (68) 
31

>  <i_lp_mmshare_version>  (68) 
48012

>  <i_f3d_flags>  (68) 
0

>  <s_epik_input>  (68) 
W0NIMl0xW0NIMl1DKD1PKUMoW0NIM10pKFtDSDNdKVtDQEhdKFtDSDJdQzI9TylbQ0BdMShbQ0gzXSlbQ0BIXShbQ0BAXTIzNClbQ0gyXVtDSDJdW0NASF0oW0NIMl0zKVtDSDJdNA==

>  <s_epik_cmdline>  (68) 
J2VwaWtfcHl0aG9uJywgJy1waHQnLCAnMi4wJywgJy1waCcsICc3LjAnLCAnLXRuJywgJzgnLCAnLW1hJywgJzIwMCcsICctaW1hZScsICc8aW5maWxlLm1hZT4nLCAnLW9tYWUnLCAnPG91dGZpbGUubWFlPic=

>  <r_lp_tautomer_probability>  (68) 
1

>  <r_epik_Ionization_Penalty>  (68) 
1.94575e-13

>  <r_epik_Ionization_Penalty_Charging>  (68) 
0

>  <r_epik_Ionization_Penalty_Neutral>  (68) 
1.94575e-13

>  <r_epik_State_Penalty>  (68) 
-0

>  <r_epik_Charging_Adjusted_Penalty>  (68) 
0

>  <i_epik_Tot_Q>  (68) 
0

>  <i_epik_Tot_abs_Q>  (68) 
0

>  <s_lp_Force_Field>  (68) 
OPLS3e

>  <r_lp_Energy>  (68) 
47.3417

>  <b_lp_Chiralities_Consistent>  (68) 
1

>  <s_lp_Variant>  (68) 
26:0-1

>  <s_i_glide_gridfile>  (68) 
pfpi4k_grid

>  <i_i_glide_lignum>  (68) 
31

>  <i_i_glide_rotatable_bonds>  (68) 
0

>  <r_i_docking_score>  (68) 
-2.90369

>  <r_i_glide_ligand_efficiency>  (68) 
-0.145184

>  <r_i_glide_ligand_efficiency_sa>  (68) 
-0.394091

>  <r_i_glide_ligand_efficiency_ln>  (68) 
-0.726697

>  <r_i_glide_gscore>  (68) 
-2.90369

>  <r_i_glide_lipo>  (68) 
-0.118425

>  <r_i_glide_hbond>  (68) 
0

>  <r_i_glide_metal>  (68) 
-0

>  <r_i_glide_rewards>  (68) 
-1.62126

>  <r_i_glide_evdw>  (68) 
-18.8674

>  <r_i_glide_ecoul>  (68) 
-1.47085

>  <r_i_glide_erotb>  (68) 
0

>  <r_i_glide_esite>  (68) 
0

>  <r_i_glide_emodel>  (68) 
-24.5719

>  <r_i_glide_energy>  (68) 
-20.3383

>  <r_i_glide_einternal>  (68) 
0

>  <r_i_glide_intrahb_reward>  (68) 
-0

>  <i_i_glide_confnum>  (68) 
2

>  <i_i_glide_posenum>  (68) 
1

>  <r_i_glide_eff_state_penalty>  (68) 
0

>  <ligand_id>  (68) 
26

>  <original_smiles>  (68) 
CC1(C)C(=O)CCC2(C)C1CC(=O)C13CC(CCC12)C3

>  <smiles>  (68) 
[H]C([H])([H])C1(C([H])([H])[H])C(=O)C([H])([H])C([H])([H])C2(C([H])([H])[H])C1([H])C([H])([H])C(=O)C13C([H])([H])C([H])(C([H])([H])C([H])([H])C12[H])C3([H])[H]

$$$$
26:0:2
     RDKit          3D

 46 49  0  0  1  0  0  0  0  0999 V2000
    4.6197   -0.4467   -2.7146 C   0  0  0  0  0  0  0  0  0  0  0  0
    4.0880   -1.8389   -2.2874 C   0  0  0  0  0  0  0  0  0  0  0  0
    2.8786   -2.0741   -3.2227 C   0  0  0  0  0  0  0  0  0  0  0  0
    5.1492   -2.9050   -2.5087 C   0  0  0  0  0  0  0  0  0  0  0  0
    6.2023   -2.7462   -3.0820 O   0  0  0  0  0  0  0  0  0  0  0  0
    4.9135   -4.2610   -2.0013 C   0  0  0  0  0  0  0  0  0  0  0  0
    4.6831   -4.2432   -0.5121 C   0  0  0  0  0  0  0  0  0  0  0  0
    3.4794   -3.3260   -0.1685 C   0  0  2  0  0  0  0  0  0  0  0  0
    2.2138   -3.9110   -0.7967 C   0  0  0  0  0  0  0  0  0  0  0  0
    3.7910   -1.8855   -0.7409 C   0  0  1  0  0  0  0  0  0  0  0  0
    4.9451   -1.2315    0.0547 C   0  0  0  0  0  0  0  0  0  0  0  0
    4.7198   -1.2332    1.5489 C   0  0  0  0  0  0  0  0  0  0  0  0
    5.0037   -0.2082    2.1574 O   0  0  0  0  0  0  0  0  0  0  0  0
    4.2537   -2.5066    2.1945 C   0  0  1  0  0  0  0  0  0  0  0  0
    3.8497   -2.3250    3.6690 C   0  0  0  0  0  0  0  0  0  0  0  0
    4.3487   -3.7437    3.8802 C   0  0  1  0  0  0  0  0  0  0  0  0
    3.3220   -4.8126    3.5103 C   0  0  0  0  0  0  0  0  0  0  0  0
    2.9162   -4.6640    2.0234 C   0  0  0  0  0  0  0  0  0  0  0  0
    3.2000   -3.2606    1.3716 C   0  0  2  0  0  0  0  0  0  0  0  0
    5.3721   -3.3641    2.8025 C   0  0  0  0  0  0  0  0  0  0  0  0
    3.9954    0.3775   -2.3515 H   0  0  0  0  0  0  0  0  0  0  0  0
    4.6625   -0.3458   -3.8017 H   0  0  0  0  0  0  0  0  0  0  0  0
    5.6031   -0.2802   -2.3282 H   0  0  0  0  0  0  0  0  0  0  0  0
    1.9529   -1.8366   -2.7084 H   0  0  0  0  0  0  0  0  0  0  0  0
    2.7967   -3.0966   -3.5800 H   0  0  0  0  0  0  0  0  0  0  0  0
    2.8971   -1.4592   -4.1335 H   0  0  0  0  0  0  0  0  0  0  0  0
    4.1494   -4.5999   -2.6581 H   0  0  0  0  0  0  0  0  0  0  0  0
    5.7990   -4.8412   -2.2447 H   0  0  0  0  0  0  0  0  0  0  0  0
    4.5332   -5.2926   -0.2349 H   0  0  0  0  0  0  0  0  0  0  0  0
    5.5992   -3.9029   -0.0429 H   0  0  0  0  0  0  0  0  0  0  0  0
    1.4108   -3.1926   -0.7268 H   0  0  0  0  0  0  0  0  0  0  0  0
    1.9098   -4.8428   -0.3282 H   0  0  0  0  0  0  0  0  0  0  0  0
    2.2770   -4.1695   -1.8457 H   0  0  0  0  0  0  0  0  0  0  0  0
    2.9277   -1.2449   -0.5802 H   0  0  0  0  0  0  0  0  0  0  0  0
    5.9233   -1.6755   -0.1546 H   0  0  0  0  0  0  0  0  0  0  0  0
    5.0341   -0.1811   -0.2232 H   0  0  0  0  0  0  0  0  0  0  0  0
    4.4368   -1.5858    4.2392 H   0  0  0  0  0  0  0  0  0  0  0  0
    2.7809   -2.2113    3.8122 H   0  0  0  0  0  0  0  0  0  0  0  0
    4.7996   -3.8824    4.8520 H   0  0  0  0  0  0  0  0  0  0  0  0
    3.7371   -5.8048    3.6849 H   0  0  0  0  0  0  0  0  0  0  0  0
    2.4511   -4.7245    4.1630 H   0  0  0  0  0  0  0  0  0  0  0  0
    3.4383   -5.4561    1.4821 H   0  0  0  0  0  0  0  0  0  0  0  0
    1.8633   -4.8909    1.9322 H   0  0  0  0  0  0  0  0  0  0  0  0
    2.2744   -2.6743    1.4582 H   0  0  0  0  0  0  0  0  0  0  0  0
    5.6932   -4.2166    2.2062 H   0  0  0  0  0  0  0  0  0  0  0  0
    6.1757   -2.7489    3.1789 H   0  0  0  0  0  0  0  0  0  0  0  0
  1  2  1  0
  1 21  1  0
  1 22  1  0
  1 23  1  0
  2 10  1  0
  2  3  1  0
  2  4  1  0
  3 24  1  0
  3 25  1  0
  3 26  1  0
  4  5  2  0
  4  6  1  0
  6  7  1  0
  6 27  1  0
  6 28  1  0
  7  8  1  0
  7 29  1  0
  7 30  1  0
  8 19  1  0
  8  9  1  6
  8 10  1  0
  9 31  1  0
  9 32  1  0
  9 33  1  0
 10 11  1  0
 10 34  1  6
 11 12  1  0
 11 35  1  0
 11 36  1  0
 12 13  2  0
 14 12  1  6
 14 19  1  0
 14 20  1  0
 14 15  1  0
 15 16  1  0
 15 37  1  0
 15 38  1  0
 16 17  1  0
 16 20  1  0
 16 39  1  1
 17 18  1  0
 17 40  1  0
 17 41  1  0
 18 19  1  0
 18 42  1  0
 18 43  1  0
 19 44  1  6
 20 45  1  0
 20 46  1  0
M  END
>  <i_m_ct_stereo_status>  (69) 
1

>  <s_m_source_file>  (69) 
/var/tmp/pbs.5076255.sched01/tmpoa2zap1w/0_chicbso.sdf

>  <i_m_source_file_index>  (69) 
31

>  <i_lp_mmshare_version>  (69) 
48012

>  <i_f3d_flags>  (69) 
0

>  <s_epik_input>  (69) 
W0NIMl0xW0NIMl1DKD1PKUMoW0NIM10pKFtDSDNdKVtDQEhdKFtDSDJdQzI9TylbQ0BdMShbQ0gzXSlbQ0BIXShbQ0BAXTIzNClbQ0gyXVtDSDJdW0NASF0oW0NIMl0zKVtDSDJdNA==

>  <s_epik_cmdline>  (69) 
J2VwaWtfcHl0aG9uJywgJy1waHQnLCAnMi4wJywgJy1waCcsICc3LjAnLCAnLXRuJywgJzgnLCAnLW1hJywgJzIwMCcsICctaW1hZScsICc8aW5maWxlLm1hZT4nLCAnLW9tYWUnLCAnPG91dGZpbGUubWFlPic=

>  <r_lp_tautomer_probability>  (69) 
1

>  <r_epik_Ionization_Penalty>  (69) 
1.94575e-13

>  <r_epik_Ionization_Penalty_Charging>  (69) 
0

>  <r_epik_Ionization_Penalty_Neutral>  (69) 
1.94575e-13

>  <r_epik_State_Penalty>  (69) 
-0

>  <r_epik_Charging_Adjusted_Penalty>  (69) 
0

>  <i_epik_Tot_Q>  (69) 
0

>  <i_epik_Tot_abs_Q>  (69) 
0

>  <s_lp_Force_Field>  (69) 
OPLS3e

>  <r_lp_Energy>  (69) 
47.3417

>  <b_lp_Chiralities_Consistent>  (69) 
1

>  <s_lp_Variant>  (69) 
26:0-1

>  <s_i_glide_gridfile>  (69) 
pfpi4k_grid

>  <i_i_glide_lignum>  (69) 
31

>  <i_i_glide_rotatable_bonds>  (69) 
0

>  <r_i_docking_score>  (69) 
-2.80792

>  <r_i_glide_ligand_efficiency>  (69) 
-0.140396

>  <r_i_glide_ligand_efficiency_sa>  (69) 
-0.381094

>  <r_i_glide_ligand_efficiency_ln>  (69) 
-0.702731

>  <r_i_glide_gscore>  (69) 
-2.80792

>  <r_i_glide_lipo>  (69) 
-0.185033

>  <r_i_glide_hbond>  (69) 
-0.105252

>  <r_i_glide_metal>  (69) 
-0

>  <r_i_glide_rewards>  (69) 
-1.86094

>  <r_i_glide_evdw>  (69) 
-7.25601

>  <r_i_glide_ecoul>  (69) 
-1.95935

>  <r_i_glide_erotb>  (69) 
0

>  <r_i_glide_esite>  (69) 
0

>  <r_i_glide_emodel>  (69) 
-12.4348

>  <r_i_glide_energy>  (69) 
-9.21536

>  <r_i_glide_einternal>  (69) 
0

>  <r_i_glide_intrahb_reward>  (69) 
-0

>  <i_i_glide_confnum>  (69) 
2

>  <i_i_glide_posenum>  (69) 
3

>  <r_i_glide_eff_state_penalty>  (69) 
0

>  <ligand_id>  (69) 
26

>  <original_smiles>  (69) 
CC1(C)C(=O)CCC2(C)C1CC(=O)C13CC(CCC12)C3

>  <smiles>  (69) 
[H]C([H])([H])C1(C([H])([H])[H])C(=O)C([H])([H])C([H])([H])C2(C([H])([H])[H])C1([H])C([H])([H])C(=O)C13C([H])([H])C([H])(C([H])([H])C([H])([H])C12[H])C3([H])[H]

$$$$
27:0:0
     RDKit          3D

 94101  0  0  1  0  0  0  0  0999 V2000
    1.1497   -0.7551    3.5918 C   0  0  0  0  0  0  0  0  0  0  0  0
    2.3673   -1.3915    3.9774 O   0  0  0  0  0  0  0  0  0  0  0  0
    2.9253   -2.2564    2.9845 C   0  0  2  0  0  0  0  0  0  0  0  0
    4.3181   -2.8628    3.4046 C   0  0  0  0  0  0  0  0  0  0  0  0
    5.4282   -1.9231    2.7286 C   0  0  1  0  0  0  0  0  0  0  0  0
    6.3875   -2.4774    1.6095 C   0  0  0  0  0  0  0  0  0  0  0  0
    6.0726   -2.5153    0.0531 C   0  0  0  0  0  0  0  0  0  0  0  0
    4.6300   -2.7500   -0.5624 C   0  0  0  0  0  0  0  0  0  0  0  0
    4.0954   -1.6342   -1.4981 C   0  0  0  0  0  0  0  0  0  0  0  0
    4.8329   -3.9317   -1.5369 C   0  0  0  0  0  0  0  0  0  0  0  0
    3.6214   -3.0165    0.5806 C   0  0  1  0  0  0  0  0  0  0  0  0
    3.3468   -1.7228    1.5988 C   0  0  2  0  0  0  0  0  0  0  0  0
    4.5649   -0.8358    2.0854 C   0  0  0  0  0  0  0  0  0  0  0  0
    4.3334    0.2186    3.2172 C   0  0  0  0  0  0  0  0  0  0  0  0
    5.1597    0.1047    1.0162 C   0  0  0  0  0  0  0  0  0  0  0  0
    2.4198   -4.0078    0.3764 C   0  0  1  0  0  0  0  0  0  0  0  0
    1.8375   -3.8423   -0.9091 O   0  0  0  0  0  0  0  0  0  0  0  0
    2.3624   -5.5426    0.9582 C   0  0  1  0  0  0  0  0  0  0  0  0
    1.2833   -6.1624    0.2692 O   0  0  0  0  0  0  0  0  0  0  0  0
    3.6426   -6.4250    0.7823 C   0  0  0  0  0  0  0  0  0  0  0  0
    4.8689   -6.4407    1.7943 C   0  0  1  0  0  0  0  0  0  0  0  0
    6.2179   -6.0521    1.1707 C   0  0  0  0  0  0  0  0  0  0  0  0
    4.7226   -6.0650    3.2975 C   0  0  1  0  0  0  0  0  0  0  0  0
    5.5995   -5.1022    4.1263 C   0  0  0  0  0  0  0  0  0  0  0  0
    4.4056   -4.1358    4.3335 C   0  0  2  0  0  0  0  0  0  0  0  0
    3.5203   -5.3953    3.9463 C   0  0  1  0  0  0  0  0  0  0  0  0
    2.7593   -4.8693    2.9413 O   0  0  0  0  0  0  0  0  0  0  0  0
    1.7790   -5.6513    2.3998 C   0  0  2  0  0  0  0  0  0  0  0  0
    1.7683   -6.8654    3.3877 C   0  0  2  0  0  0  0  0  0  0  0  0
    0.4110   -7.5569    3.6173 C   0  0  0  0  0  0  0  0  0  0  0  0
   -0.3482   -7.9559    2.3711 C   0  0  0  0  0  0  0  0  0  0  0  0
   -0.0849   -7.8626    4.8398 C   0  0  0  0  0  0  0  0  0  0  0  0
    0.5749   -7.6222    6.1861 C   0  0  1  0  0  0  0  0  0  0  0  0
    1.9814   -8.2263    6.2501 C   0  0  0  0  0  0  0  0  0  0  0  0
    3.0346   -7.3351    5.5808 C   0  0  0  0  0  0  0  0  0  0  0  0
    2.4392   -6.2216    4.6531 C   0  0  1  0  0  0  0  0  0  0  0  0
    1.4851   -5.3298    5.5557 C   0  0  1  0  0  0  0  0  0  0  0  0
    0.6789   -4.4227    4.8223 O   0  0  0  0  0  0  0  0  0  0  0  0
    0.6212   -6.1316    6.5599 C   0  0  1  0  0  0  0  0  0  0  0  0
   -0.7709   -5.5467    6.8628 C   0  0  0  0  0  0  0  0  0  0  0  0
    0.8302   -0.0599    4.3681 H   0  0  0  0  0  0  0  0  0  0  0  0
    0.3595   -1.4910    3.4468 H   0  0  0  0  0  0  0  0  0  0  0  0
    1.2461   -0.1709    2.6743 H   0  0  0  0  0  0  0  0  0  0  0  0
    2.0714   -2.8932    2.8813 H   0  0  0  0  0  0  0  0  0  0  0  0
    4.6209   -3.5432    2.6796 H   0  0  0  0  0  0  0  0  0  0  0  0
    6.0407   -1.4965    3.5173 H   0  0  0  0  0  0  0  0  0  0  0  0
    7.2214   -1.7837    1.6284 H   0  0  0  0  0  0  0  0  0  0  0  0
    6.8317   -3.4051    1.9409 H   0  0  0  0  0  0  0  0  0  0  0  0
    6.5497   -1.6681   -0.4320 H   0  0  0  0  0  0  0  0  0  0  0  0
    6.7451   -3.2823   -0.3284 H   0  0  0  0  0  0  0  0  0  0  0  0
    3.3693   -2.0195   -2.2134 H   0  0  0  0  0  0  0  0  0  0  0  0
    4.8996   -1.1821   -2.0814 H   0  0  0  0  0  0  0  0  0  0  0  0
    3.5593   -0.8467   -0.9715 H   0  0  0  0  0  0  0  0  0  0  0  0
    3.9133   -4.2090   -2.0344 H   0  0  0  0  0  0  0  0  0  0  0  0
    5.2403   -4.8212   -1.0691 H   0  0  0  0  0  0  0  0  0  0  0  0
    5.5196   -3.6619   -2.3414 H   0  0  0  0  0  0  0  0  0  0  0  0
    4.2170   -3.8250    0.9393 H   0  0  0  0  0  0  0  0  0  0  0  0
    2.5802   -1.0827    1.1625 H   0  0  0  0  0  0  0  0  0  0  0  0
    3.4578    0.8412    3.0420 H   0  0  0  0  0  0  0  0  0  0  0  0
    5.1916    0.8766    3.3042 H   0  0  0  0  0  0  0  0  0  0  0  0
    4.2805   -0.1898    4.2248 H   0  0  0  0  0  0  0  0  0  0  0  0
    4.4832    0.9426    0.8709 H   0  0  0  0  0  0  0  0  0  0  0  0
    5.2774   -0.2169    0.0119 H   0  0  0  0  0  0  0  0  0  0  0  0
    6.1503    0.4274    1.2909 H   0  0  0  0  0  0  0  0  0  0  0  0
    1.7466   -3.4952    1.0220 H   0  0  0  0  0  0  0  0  0  0  0  0
    1.7838   -2.9132   -1.1063 H   0  0  0  0  0  0  0  0  0  0  0  0
    1.3425   -7.0894    0.4121 H   0  0  0  0  0  0  0  0  0  0  0  0
    3.2771   -7.4477    0.8150 H   0  0  0  0  0  0  0  0  0  0  0  0
    3.9951   -6.3229   -0.2389 H   0  0  0  0  0  0  0  0  0  0  0  0
    5.0443   -7.5232    1.8316 H   0  0  0  0  0  0  0  0  0  0  0  0
    6.2265   -5.0285    0.8492 H   0  0  0  0  0  0  0  0  0  0  0  0
    6.4157   -6.6529    0.2902 H   0  0  0  0  0  0  0  0  0  0  0  0
    7.0506   -6.2118    1.8576 H   0  0  0  0  0  0  0  0  0  0  0  0
    4.9381   -6.9822    3.8221 H   0  0  0  0  0  0  0  0  0  0  0  0
    5.9112   -5.5614    5.0640 H   0  0  0  0  0  0  0  0  0  0  0  0
    6.4450   -4.7007    3.5753 H   0  0  0  0  0  0  0  0  0  0  0  0
    4.3076   -3.9008    5.3974 H   0  0  0  0  0  0  0  0  0  0  0  0
    0.8181   -5.1406    2.4498 H   0  0  0  0  0  0  0  0  0  0  0  0
    2.4296   -7.6408    2.9962 H   0  0  0  0  0  0  0  0  0  0  0  0
    0.2823   -8.5437    1.7042 H   0  0  0  0  0  0  0  0  0  0  0  0
   -0.7148   -7.0820    1.8356 H   0  0  0  0  0  0  0  0  0  0  0  0
   -1.2095   -8.5728    2.6237 H   0  0  0  0  0  0  0  0  0  0  0  0
   -1.0318   -8.3867    4.9042 H   0  0  0  0  0  0  0  0  0  0  0  0
   -0.0385   -8.1598    6.9095 H   0  0  0  0  0  0  0  0  0  0  0  0
    2.2662   -8.3902    7.2864 H   0  0  0  0  0  0  0  0  0  0  0  0
    1.9743   -9.2109    5.7879 H   0  0  0  0  0  0  0  0  0  0  0  0
    3.6389   -6.8500    6.3491 H   0  0  0  0  0  0  0  0  0  0  0  0
    3.6999   -8.0109    5.0477 H   0  0  0  0  0  0  0  0  0  0  0  0
    2.1271   -4.6876    6.1490 H   0  0  0  0  0  0  0  0  0  0  0  0
    1.2411   -3.9451    4.2439 H   0  0  0  0  0  0  0  0  0  0  0  0
    1.1500   -6.0930    7.5074 H   0  0  0  0  0  0  0  0  0  0  0  0
   -1.4355   -5.6266    6.0006 H   0  0  0  0  0  0  0  0  0  0  0  0
   -0.7230   -4.4984    7.1574 H   0  0  0  0  0  0  0  0  0  0  0  0
   -1.2286   -6.0717    7.6977 H   0  0  0  0  0  0  0  0  0  0  0  0
  1  2  1  0
  1 41  1  0
  1 42  1  0
  1 43  1  0
  2  3  1  0
  3 12  1  0
  3  4  1  0
  3 44  1  6
  4 25  1  0
  4  5  1  0
  4 45  1  0
  5 13  1  0
  5  6  1  0
  5 46  1  1
  6  7  1  0
  6 47  1  0
  6 48  1  0
  7  8  1  0
  7 49  1  0
  7 50  1  0
  8  9  1  0
  8 10  1  0
  8 11  1  0
  9 51  1  0
  9 52  1  0
  9 53  1  0
 10 54  1  0
 10 55  1  0
 10 56  1  0
 11 12  1  0
 11 16  1  0
 11 57  1  1
 12 13  1  0
 12 58  1  6
 13 14  1  0
 13 15  1  0
 14 59  1  0
 14 60  1  0
 14 61  1  0
 15 62  1  0
 15 63  1  0
 15 64  1  0
 16 17  1  0
 16 18  1  0
 16 65  1  1
 17 66  1  0
 18 28  1  0
 18 19  1  6
 18 20  1  0
 19 67  1  0
 20 21  1  0
 20 68  1  0
 20 69  1  0
 21 22  1  0
 21 23  1  0
 21 70  1  1
 22 71  1  0
 22 72  1  0
 22 73  1  0
 23 26  1  0
 23 24  1  0
 23 74  1  1
 24 25  1  0
 24 75  1  0
 24 76  1  0
 25 26  1  0
 25 77  1  1
 26 36  1  0
 26 27  1  6
 27 28  1  0
 28 29  1  0
 28 78  1  6
 29 36  1  0
 29 30  1  0
 29 79  1  6
 30 31  1  0
 30 32  2  0
 31 80  1  0
 31 81  1  0
 31 82  1  0
 32 33  1  0
 32 83  1  0
 33 39  1  0
 33 34  1  0
 33 84  1  1
 34 35  1  0
 34 85  1  0
 34 86  1  0
 36 35  1  1
 35 87  1  0
 35 88  1  0
 36 37  1  0
 37 38  1  0
 37 39  1  0
 37 89  1  1
 38 90  1  0
 39 40  1  0
 39 91  1  1
 40 92  1  0
 40 93  1  0
 40 94  1  0
M  END
>  <i_m_ct_stereo_status>  (70) 
1

>  <s_m_source_file>  (70) 
/var/tmp/pbs.5076255.sched01/tmpoa2zap1w/0_chicbso.sdf

>  <i_m_source_file_index>  (70) 
32

>  <i_lp_mmshare_version>  (70) 
48012

>  <i_f3d_flags>  (70) 
0

>  <s_epik_input>  (70) 
W0NIM11DMShbQ0gzXSlbQ0gyXVtDSDJdW0NAQEhdKEMyKFtDSDNdKVtDSDNdKVtDQEBIXShbQ0BASF0zW0NIMl1bQ0BASF00W0NAQEhdKFtDSDJdNSlbQ0gzXSlbQ0BASF0oT1tDSDNdKVtDQEBIXTJbQ0BIXTFbQ0BASF0oW09IXSlbQ0BdNShbT0hdKVtDQEhdKE82KVtDQEBIXShbQ0BdNzhbQ0BAXTM0NilDKFtDSDNdKT1bQ0hdW0NAQEhdKFtDSDJdW0NIMl03KVtDQEhdKFtDSDNdKVtDQEBIXThbT0hd

>  <s_epik_cmdline>  (70) 
J2VwaWtfcHl0aG9uJywgJy1waHQnLCAnMi4wJywgJy1waCcsICc3LjAnLCAnLXRuJywgJzgnLCAnLW1hJywgJzIwMCcsICctaW1hZScsICc8aW5maWxlLm1hZT4nLCAnLW9tYWUnLCAnPG91dGZpbGUubWFlPic=

>  <r_lp_tautomer_probability>  (70) 
1

>  <r_epik_Ionization_Penalty>  (70) 
9.39352e-07

>  <r_epik_Ionization_Penalty_Charging>  (70) 
0

>  <r_epik_Ionization_Penalty_Neutral>  (70) 
9.39352e-07

>  <r_epik_State_Penalty>  (70) 
-0

>  <r_epik_Charging_Adjusted_Penalty>  (70) 
0

>  <i_epik_Tot_Q>  (70) 
0

>  <i_epik_Tot_abs_Q>  (70) 
0

>  <s_lp_Force_Field>  (70) 
OPLS3e

>  <r_lp_Energy>  (70) 
266.527

>  <b_lp_Chiralities_Consistent>  (70) 
1

>  <s_lp_Variant>  (70) 
27:0-1

>  <s_i_glide_gridfile>  (70) 
pfpi4k_grid

>  <i_i_glide_lignum>  (70) 
32

>  <i_i_glide_rotatable_bonds>  (70) 
4

>  <r_i_docking_score>  (70) 
-2.20483

>  <r_i_glide_ligand_efficiency>  (70) 
-0.0551208

>  <r_i_glide_ligand_efficiency_sa>  (70) 
-0.188511

>  <r_i_glide_ligand_efficiency_ln>  (70) 
-0.470226

>  <r_i_glide_gscore>  (70) 
-2.20483

>  <r_i_glide_lipo>  (70) 
-0.61931

>  <r_i_glide_hbond>  (70) 
0

>  <r_i_glide_metal>  (70) 
-0

>  <r_i_glide_rewards>  (70) 
0

>  <r_i_glide_evdw>  (70) 
-19.7611

>  <r_i_glide_ecoul>  (70) 
-3.98311

>  <r_i_glide_erotb>  (70) 
0

>  <r_i_glide_esite>  (70) 
0

>  <r_i_glide_emodel>  (70) 
-25.2277

>  <r_i_glide_energy>  (70) 
-23.7442

>  <r_i_glide_einternal>  (70) 
1.93379

>  <r_i_glide_intrahb_reward>  (70) 
-0

>  <i_i_glide_confnum>  (70) 
1

>  <i_i_glide_posenum>  (70) 
5

>  <r_i_glide_eff_state_penalty>  (70) 
0

>  <ligand_id>  (70) 
27

>  <original_smiles>  (70) 
COC1C2C3CCC(C)(C)C(C1C3(C)C)C(O)C1(O)CC(C)C3CC2C32OC1C1C(C)=CC3CCC12C(O)C3C

>  <smiles>  (70) 
[H]OC1([H])C2([H])C3([H])C([H])(OC([H])([H])[H])C([H])(C4([H])C([H])([H])C5([H])C([H])(C([H])([H])[H])C([H])([H])C1(O[H])C1([H])OC54C45C([H])([H])C([H])([H])C([H])(C([H])=C(C([H])([H])[H])C14[H])C([H])(C([H])([H])[H])C5([H])O[H])C([H])(C([H])([H])C([H])([H])C2(C([H])([H])[H])C([H])([H])[H])C3(C([H])([H])[H])C([H])([H])[H]

$$$$
27:0:1
     RDKit          3D

 94101  0  0  1  0  0  0  0  0999 V2000
    3.4199   -2.2392    0.0639 C   0  0  0  0  0  0  0  0  0  0  0  0
    3.1591   -3.5993    0.3743 O   0  0  0  0  0  0  0  0  0  0  0  0
    3.1658   -3.9860    1.7464 C   0  0  2  0  0  0  0  0  0  0  0  0
    4.4128   -3.5955    2.6135 C   0  0  1  0  0  0  0  0  0  0  0  0
    5.4674   -4.7889    2.4789 C   0  0  1  0  0  0  0  0  0  0  0  0
    5.8539   -5.6571    3.7351 C   0  0  0  0  0  0  0  0  0  0  0  0
    5.0381   -6.9350    4.2398 C   0  0  0  0  0  0  0  0  0  0  0  0
    3.4511   -7.1164    4.1630 C   0  0  0  0  0  0  0  0  0  0  0  0
    2.9797   -8.3774    3.3934 C   0  0  0  0  0  0  0  0  0  0  0  0
    3.0313   -7.4351    5.6306 C   0  0  0  0  0  0  0  0  0  0  0  0
    2.7834   -5.8428    3.5394 C   0  0  1  0  0  0  0  0  0  0  0  0
    3.2350   -5.5113    1.9672 C   0  0  2  0  0  0  0  0  0  0  0  0
    4.7538   -5.7394    1.4837 C   0  0  0  0  0  0  0  0  0  0  0  0
    5.1643   -5.2404    0.0530 C   0  0  0  0  0  0  0  0  0  0  0  0
    5.2454   -7.2101    1.2807 C   0  0  0  0  0  0  0  0  0  0  0  0
    1.3317   -5.3396    4.0055 C   0  0  1  0  0  0  0  0  0  0  0  0
    0.4535   -6.4301    4.2205 O   0  0  0  0  0  0  0  0  0  0  0  0
    1.1359   -4.1491    5.1231 C   0  0  1  0  0  0  0  0  0  0  0  0
   -0.1511   -4.3533    5.6814 O   0  0  0  0  0  0  0  0  0  0  0  0
    2.0664   -4.0979    6.3891 C   0  0  0  0  0  0  0  0  0  0  0  0
    3.4872   -3.4155    6.4733 C   0  0  1  0  0  0  0  0  0  0  0  0
    4.6269   -4.3538    6.8831 C   0  0  0  0  0  0  0  0  0  0  0  0
    3.9104   -2.2464    5.5164 C   0  0  1  0  0  0  0  0  0  0  0  0
    5.2229   -2.1277    4.7048 C   0  0  0  0  0  0  0  0  0  0  0  0
    4.4448   -2.2016    3.3666 C   0  0  2  0  0  0  0  0  0  0  0  0
    3.1735   -1.8121    4.2438 C   0  0  1  0  0  0  0  0  0  0  0  0
    2.2995   -2.8331    3.9435 O   0  0  0  0  0  0  0  0  0  0  0  0
    1.0088   -2.7555    4.4423 C   0  0  2  0  0  0  0  0  0  0  0  0
    1.0214   -1.3168    5.0711 C   0  0  2  0  0  0  0  0  0  0  0  0
   -0.3188   -0.5651    5.0711 C   0  0  0  0  0  0  0  0  0  0  0  0
   -1.5007   -1.3439    5.6067 C   0  0  0  0  0  0  0  0  0  0  0  0
   -0.4827    0.7147    4.6757 C   0  0  0  0  0  0  0  0  0  0  0  0
    0.5984    1.6660    4.1934 C   0  0  1  0  0  0  0  0  0  0  0  0
    1.7563    1.7725    5.1897 C   0  0  0  0  0  0  0  0  0  0  0  0
    2.7432    0.5971    5.0773 C   0  0  0  0  0  0  0  0  0  0  0  0
    2.1932   -0.6221    4.2833 C   0  0  1  0  0  0  0  0  0  0  0  0
    1.8186   -0.1090    2.8372 C   0  0  1  0  0  0  0  0  0  0  0  0
    1.0160   -1.0130    2.1021 O   0  0  0  0  0  0  0  0  0  0  0  0
    1.1311    1.2864    2.8094 C   0  0  1  0  0  0  0  0  0  0  0  0
    0.0615    1.4888    1.7137 C   0  0  0  0  0  0  0  0  0  0  0  0
    3.4283   -2.1080   -1.0136 H   0  0  0  0  0  0  0  0  0  0  0  0
    4.3777   -1.8935    0.4450 H   0  0  0  0  0  0  0  0  0  0  0  0
    2.6445   -1.5944    0.4429 H   0  0  0  0  0  0  0  0  0  0  0  0
    2.1790   -3.6385    1.9973 H   0  0  0  0  0  0  0  0  0  0  0  0
    4.2745   -3.9600    3.5844 H   0  0  0  0  0  0  0  0  0  0  0  0
    6.3910   -4.3912    2.0588 H   0  0  0  0  0  0  0  0  0  0  0  0
    6.8369   -6.0623    3.4968 H   0  0  0  0  0  0  0  0  0  0  0  0
    6.1041   -5.0011    4.5590 H   0  0  0  0  0  0  0  0  0  0  0  0
    5.5328   -7.8342    3.8800 H   0  0  0  0  0  0  0  0  0  0  0  0
    5.3441   -7.0326    5.2830 H   0  0  0  0  0  0  0  0  0  0  0  0
    1.9981   -8.7107    3.7340 H   0  0  0  0  0  0  0  0  0  0  0  0
    3.6562   -9.2179    3.5379 H   0  0  0  0  0  0  0  0  0  0  0  0
    2.8594   -8.2091    2.3257 H   0  0  0  0  0  0  0  0  0  0  0  0
    1.9627   -7.5510    5.7848 H   0  0  0  0  0  0  0  0  0  0  0  0
    3.3825   -6.7045    6.3483 H   0  0  0  0  0  0  0  0  0  0  0  0
    3.4709   -8.3812    5.9479 H   0  0  0  0  0  0  0  0  0  0  0  0
    3.2391   -5.2629    4.3107 H   0  0  0  0  0  0  0  0  0  0  0  0
    2.5536   -6.0172    1.2840 H   0  0  0  0  0  0  0  0  0  0  0  0
    4.4125   -5.4921   -0.6999 H   0  0  0  0  0  0  0  0  0  0  0  0
    6.1027   -5.6774   -0.2923 H   0  0  0  0  0  0  0  0  0  0  0  0
    5.3687   -4.1718   -0.0049 H   0  0  0  0  0  0  0  0  0  0  0  0
    4.8923   -7.6096    0.3301 H   0  0  0  0  0  0  0  0  0  0  0  0
    4.9217   -7.9587    1.9704 H   0  0  0  0  0  0  0  0  0  0  0  0
    6.3348   -7.2680    1.2691 H   0  0  0  0  0  0  0  0  0  0  0  0
    0.8752   -4.9432    3.0986 H   0  0  0  0  0  0  0  0  0  0  0  0
    0.8636   -7.0346    4.8189 H   0  0  0  0  0  0  0  0  0  0  0  0
   -0.1654   -5.2382    6.0126 H   0  0  0  0  0  0  0  0  0  0  0  0
    1.4789   -3.5426    7.1192 H   0  0  0  0  0  0  0  0  0  0  0  0
    2.1028   -5.0851    6.8303 H   0  0  0  0  0  0  0  0  0  0  0  0
    3.3787   -2.8955    7.4247 H   0  0  0  0  0  0  0  0  0  0  0  0
    4.7979   -5.1050    6.1389 H   0  0  0  0  0  0  0  0  0  0  0  0
    4.3811   -4.8804    7.8106 H   0  0  0  0  0  0  0  0  0  0  0  0
    5.5559   -3.8153    7.0506 H   0  0  0  0  0  0  0  0  0  0  0  0
    4.0296   -1.3920    6.1714 H   0  0  0  0  0  0  0  0  0  0  0  0
    5.6852   -1.1421    4.8414 H   0  0  0  0  0  0  0  0  0  0  0  0
    5.9350   -2.9224    4.8757 H   0  0  0  0  0  0  0  0  0  0  0  0
    4.7342   -1.3641    2.7313 H   0  0  0  0  0  0  0  0  0  0  0  0
    0.2799   -2.8071    3.6363 H   0  0  0  0  0  0  0  0  0  0  0  0
    1.3141   -1.4105    6.1198 H   0  0  0  0  0  0  0  0  0  0  0  0
   -1.2611   -1.7695    6.5797 H   0  0  0  0  0  0  0  0  0  0  0  0
   -1.7445   -2.1596    4.9338 H   0  0  0  0  0  0  0  0  0  0  0  0
   -2.3800   -0.7087    5.7047 H   0  0  0  0  0  0  0  0  0  0  0  0
   -1.4656    1.1572    4.7212 H   0  0  0  0  0  0  0  0  0  0  0  0
    0.1208    2.6495    4.1364 H   0  0  0  0  0  0  0  0  0  0  0  0
    2.2963    2.7055    5.0248 H   0  0  0  0  0  0  0  0  0  0  0  0
    1.3585    1.8337    6.2030 H   0  0  0  0  0  0  0  0  0  0  0  0
    3.6563    0.9469    4.5888 H   0  0  0  0  0  0  0  0  0  0  0  0
    3.0203    0.3512    6.1013 H   0  0  0  0  0  0  0  0  0  0  0  0
    2.7459   -0.0050    2.2727 H   0  0  0  0  0  0  0  0  0  0  0  0
    1.0165   -0.7525    1.1784 H   0  0  0  0  0  0  0  0  0  0  0  0
    1.9101    2.0154    2.5832 H   0  0  0  0  0  0  0  0  0  0  0  0
   -0.8099    0.8432    1.8419 H   0  0  0  0  0  0  0  0  0  0  0  0
    0.4733    1.3054    0.7272 H   0  0  0  0  0  0  0  0  0  0  0  0
   -0.3135    2.5127    1.7262 H   0  0  0  0  0  0  0  0  0  0  0  0
  1  2  1  0
  1 41  1  0
  1 42  1  0
  1 43  1  0
  2  3  1  0
  3 12  1  0
  3  4  1  0
  3 44  1  1
  4 25  1  0
  4  5  1  0
  4 45  1  1
  5 13  1  0
  5  6  1  0
  5 46  1  6
  6  7  1  0
  6 47  1  0
  6 48  1  0
  7  8  1  0
  7 49  1  0
  7 50  1  0
  8  9  1  0
  8 10  1  0
  8 11  1  0
  9 51  1  0
  9 52  1  0
  9 53  1  0
 10 54  1  0
 10 55  1  0
 10 56  1  0
 11 12  1  0
 11 16  1  0
 11 57  1  1
 12 13  1  0
 12 58  1  6
 13 14  1  0
 13 15  1  0
 14 59  1  0
 14 60  1  0
 14 61  1  0
 15 62  1  0
 15 63  1  0
 15 64  1  0
 16 17  1  0
 16 18  1  0
 16 65  1  6
 17 66  1  0
 18 28  1  0
 18 19  1  1
 18 20  1  0
 19 67  1  0
 20 21  1  0
 20 68  1  0
 20 69  1  0
 21 22  1  0
 21 23  1  0
 21 70  1  1
 22 71  1  0
 22 72  1  0
 22 73  1  0
 23 26  1  0
 23 24  1  0
 23 74  1  1
 24 25  1  0
 24 75  1  0
 24 76  1  0
 25 26  1  0
 25 77  1  6
 26 36  1  0
 26 27  1  6
 27 28  1  0
 28 29  1  0
 28 78  1  6
 29 36  1  0
 29 30  1  0
 29 79  1  1
 30 31  1  0
 30 32  2  0
 31 80  1  0
 31 81  1  0
 31 82  1  0
 32 33  1  0
 32 83  1  0
 33 39  1  0
 33 34  1  0
 33 84  1  6
 34 35  1  0
 34 85  1  0
 34 86  1  0
 36 35  1  1
 35 87  1  0
 35 88  1  0
 36 37  1  0
 37 38  1  0
 37 39  1  0
 37 89  1  6
 38 90  1  0
 39 40  1  0
 39 91  1  6
 40 92  1  0
 40 93  1  0
 40 94  1  0
M  END
>  <i_m_ct_stereo_status>  (71) 
1

>  <s_m_source_file>  (71) 
/var/tmp/pbs.5076255.sched01/tmpoa2zap1w/0_chicbso.sdf

>  <i_m_source_file_index>  (71) 
32

>  <i_lp_mmshare_version>  (71) 
48012

>  <i_f3d_flags>  (71) 
0

>  <s_epik_input>  (71) 
W0NIM11DMShbQ0gzXSlbQ0gyXVtDSDJdW0NAQEhdKEMyKFtDSDNdKVtDSDNdKVtDQEBIXShbQ0BASF0zW0NIMl1bQ0BASF00W0NAQEhdKFtDSDJdNSlbQ0gzXSlbQ0BASF0oT1tDSDNdKVtDQEBIXTJbQ0BIXTFbQ0BASF0oW09IXSlbQ0BdNShbT0hdKVtDQEhdKE82KVtDQEBIXShbQ0BdNzhbQ0BAXTM0NilDKFtDSDNdKT1bQ0hdW0NAQEhdKFtDSDJdW0NIMl03KVtDQEhdKFtDSDNdKVtDQEBIXThbT0hd

>  <s_epik_cmdline>  (71) 
J2VwaWtfcHl0aG9uJywgJy1waHQnLCAnMi4wJywgJy1waCcsICc3LjAnLCAnLXRuJywgJzgnLCAnLW1hJywgJzIwMCcsICctaW1hZScsICc8aW5maWxlLm1hZT4nLCAnLW9tYWUnLCAnPG91dGZpbGUubWFlPic=

>  <r_lp_tautomer_probability>  (71) 
1

>  <r_epik_Ionization_Penalty>  (71) 
9.39352e-07

>  <r_epik_Ionization_Penalty_Charging>  (71) 
0

>  <r_epik_Ionization_Penalty_Neutral>  (71) 
9.39352e-07

>  <r_epik_State_Penalty>  (71) 
-0

>  <r_epik_Charging_Adjusted_Penalty>  (71) 
0

>  <i_epik_Tot_Q>  (71) 
0

>  <i_epik_Tot_abs_Q>  (71) 
0

>  <s_lp_Force_Field>  (71) 
OPLS3e

>  <r_lp_Energy>  (71) 
266.527

>  <b_lp_Chiralities_Consistent>  (71) 
1

>  <s_lp_Variant>  (71) 
27:0-1

>  <s_i_glide_gridfile>  (71) 
pfpi4k_grid

>  <i_i_glide_lignum>  (71) 
32

>  <i_i_glide_rotatable_bonds>  (71) 
4

>  <r_i_docking_score>  (71) 
-1.51382

>  <r_i_glide_ligand_efficiency>  (71) 
-0.0378455

>  <r_i_glide_ligand_efficiency_sa>  (71) 
-0.12943

>  <r_i_glide_ligand_efficiency_ln>  (71) 
-0.322853

>  <r_i_glide_gscore>  (71) 
-1.51382

>  <r_i_glide_lipo>  (71) 
-0.294041

>  <r_i_glide_hbond>  (71) 
0

>  <r_i_glide_metal>  (71) 
-0

>  <r_i_glide_rewards>  (71) 
0

>  <r_i_glide_evdw>  (71) 
-21.7401

>  <r_i_glide_ecoul>  (71) 
-0.885174

>  <r_i_glide_erotb>  (71) 
0

>  <r_i_glide_esite>  (71) 
0

>  <r_i_glide_emodel>  (71) 
-24.6876

>  <r_i_glide_energy>  (71) 
-22.6252

>  <r_i_glide_einternal>  (71) 
0.672331

>  <r_i_glide_intrahb_reward>  (71) 
-0

>  <i_i_glide_confnum>  (71) 
2

>  <i_i_glide_posenum>  (71) 
34

>  <r_i_glide_eff_state_penalty>  (71) 
0

>  <ligand_id>  (71) 
27

>  <original_smiles>  (71) 
COC1C2C3CCC(C)(C)C(C1C3(C)C)C(O)C1(O)CC(C)C3CC2C32OC1C1C(C)=CC3CCC12C(O)C3C

>  <smiles>  (71) 
[H]OC1([H])C2([H])C3([H])C([H])(OC([H])([H])[H])C([H])(C4([H])C([H])([H])C5([H])C([H])(C([H])([H])[H])C([H])([H])C1(O[H])C1([H])OC54C45C([H])([H])C([H])([H])C([H])(C([H])=C(C([H])([H])[H])C14[H])C([H])(C([H])([H])[H])C5([H])O[H])C([H])(C([H])([H])C([H])([H])C2(C([H])([H])[H])C([H])([H])[H])C3(C([H])([H])[H])C([H])([H])[H]

$$$$
27:0:2
     RDKit          3D

 94101  0  0  1  0  0  0  0  0999 V2000
    2.9793   -3.1406    0.1627 C   0  0  0  0  0  0  0  0  0  0  0  0
    2.6064   -4.4220    0.6336 O   0  0  0  0  0  0  0  0  0  0  0  0
    2.5990   -4.6495    2.0426 C   0  0  2  0  0  0  0  0  0  0  0  0
    3.9389   -4.4285    2.8325 C   0  0  0  0  0  0  0  0  0  0  0  0
    4.7214   -5.8263    2.8105 C   0  0  1  0  0  0  0  0  0  0  0  0
    4.9792   -6.6159    4.1505 C   0  0  0  0  0  0  0  0  0  0  0  0
    3.9469   -7.6404    4.8115 C   0  0  0  0  0  0  0  0  0  0  0  0
    2.3520   -7.4983    4.7897 C   0  0  0  0  0  0  0  0  0  0  0  0
    1.6017   -8.7087    4.1752 C   0  0  0  0  0  0  0  0  0  0  0  0
    1.9424   -7.5707    6.2925 C   0  0  0  0  0  0  0  0  0  0  0  0
    1.9305   -6.1863    4.0443 C   0  0  1  0  0  0  0  0  0  0  0  0
    2.3710   -6.1236    2.4337 C   0  0  2  0  0  0  0  0  0  0  0  0
    3.7891   -6.7053    1.9391 C   0  0  0  0  0  0  0  0  0  0  0  0
    4.2346   -6.4477    0.4570 C   0  0  0  0  0  0  0  0  0  0  0  0
    3.9675   -8.2583    1.8939 C   0  0  0  0  0  0  0  0  0  0  0  0
    0.6316   -5.3537    4.4879 C   0  0  1  0  0  0  0  0  0  0  0  0
   -0.4285   -6.2251    4.8416 O   0  0  0  0  0  0  0  0  0  0  0  0
    0.7289   -4.0349    5.4700 C   0  0  1  0  0  0  0  0  0  0  0  0
   -0.5380   -3.9051    6.0816 O   0  0  0  0  0  0  0  0  0  0  0  0
    1.7095   -4.0433    6.6978 C   0  0  0  0  0  0  0  0  0  0  0  0
    3.2412   -3.6618    6.6697 C   0  0  1  0  0  0  0  0  0  0  0  0
    4.1795   -4.7659    7.1651 C   0  0  0  0  0  0  0  0  0  0  0  0
    3.8486   -2.7156    5.5843 C   0  0  1  0  0  0  0  0  0  0  0  0
    5.1205   -2.9482    4.7304 C   0  0  0  0  0  0  0  0  0  0  0  0
    4.2844   -3.0018    3.4257 C   0  0  2  0  0  0  0  0  0  0  0  0
    3.1531   -2.2784    4.2860 C   0  0  1  0  0  0  0  0  0  0  0  0
    2.0692   -3.1174    4.1103 O   0  0  0  0  0  0  0  0  0  0  0  0
    0.8539   -2.7262    4.6399 C   0  0  2  0  0  0  0  0  0  0  0  0
    1.1873   -1.2647    5.1027 C   0  0  2  0  0  0  0  0  0  0  0  0
    0.0272   -0.2572    5.0416 C   0  0  0  0  0  0  0  0  0  0  0  0
   -1.2649   -0.7135    5.6896 C   0  0  0  0  0  0  0  0  0  0  0  0
    0.1118    0.9837    4.5090 C   0  0  0  0  0  0  0  0  0  0  0  0
    1.3428    1.6397    3.9063 C   0  0  1  0  0  0  0  0  0  0  0  0
    2.5396    1.6044    4.8597 C   0  0  0  0  0  0  0  0  0  0  0  0
    3.2606    0.2428    4.8554 C   0  0  0  0  0  0  0  0  0  0  0  0
    2.4363   -0.9153    4.2146 C   0  0  1  0  0  0  0  0  0  0  0  0
    2.0958   -0.4836    2.7296 C   0  0  1  0  0  0  0  0  0  0  0  0
    1.0660   -1.2389    2.1269 O   0  0  0  0  0  0  0  0  0  0  0  0
    1.7289    1.0171    2.5608 C   0  0  1  0  0  0  0  0  0  0  0  0
    0.6832    1.3216    1.4714 C   0  0  0  0  0  0  0  0  0  0  0  0
    3.0303   -3.1513   -0.9248 H   0  0  0  0  0  0  0  0  0  0  0  0
    3.9491   -2.8162    0.5285 H   0  0  0  0  0  0  0  0  0  0  0  0
    2.2311   -2.4155    0.4266 H   0  0  0  0  0  0  0  0  0  0  0  0
    1.7107   -4.0902    2.2751 H   0  0  0  0  0  0  0  0  0  0  0  0
    3.7693   -4.6568    3.8381 H   0  0  0  0  0  0  0  0  0  0  0  0
    5.6894   -5.6715    2.3319 H   0  0  0  0  0  0  0  0  0  0  0  0
    5.8497   -7.2379    3.9380 H   0  0  0  0  0  0  0  0  0  0  0  0
    5.3902   -5.9422    4.8891 H   0  0  0  0  0  0  0  0  0  0  0  0
    4.2312   -8.6555    4.5428 H   0  0  0  0  0  0  0  0  0  0  0  0
    4.2709   -7.6873    5.8515 H   0  0  0  0  0  0  0  0  0  0  0  0
    0.5895   -8.7965    4.5689 H   0  0  0  0  0  0  0  0  0  0  0  0
    2.1017   -9.6517    4.4011 H   0  0  0  0  0  0  0  0  0  0  0  0
    1.4784   -8.6372    3.0960 H   0  0  0  0  0  0  0  0  0  0  0  0
    0.8806   -7.4517    6.4829 H   0  0  0  0  0  0  0  0  0  0  0  0
    2.4649   -6.8547    6.9146 H   0  0  0  0  0  0  0  0  0  0  0  0
    2.2001   -8.5495    6.7022 H   0  0  0  0  0  0  0  0  0  0  0  0
    2.5294   -5.6357    4.7353 H   0  0  0  0  0  0  0  0  0  0  0  0
    1.5724   -6.5515    1.8274 H   0  0  0  0  0  0  0  0  0  0  0  0
    3.4182   -6.5961   -0.2404 H   0  0  0  0  0  0  0  0  0  0  0  0
    5.0329   -7.1124    0.1261 H   0  0  0  0  0  0  0  0  0  0  0  0
    4.6528   -5.4575    0.2815 H   0  0  0  0  0  0  0  0  0  0  0  0
    3.5019   -8.6790    1.0005 H   0  0  0  0  0  0  0  0  0  0  0  0
    3.5297   -8.8498    2.6712 H   0  0  0  0  0  0  0  0  0  0  0  0
    5.0223   -8.5395    1.8624 H   0  0  0  0  0  0  0  0  0  0  0  0
    0.2243   -4.9669    3.5554 H   0  0  0  0  0  0  0  0  0  0  0  0
   -0.1009   -6.8585    5.4610 H   0  0  0  0  0  0  0  0  0  0  0  0
   -0.7142   -4.7368    6.5038 H   0  0  0  0  0  0  0  0  0  0  0  0
    1.2814   -3.3035    7.3783 H   0  0  0  0  0  0  0  0  0  0  0  0
    1.5618   -4.9695    7.2481 H   0  0  0  0  0  0  0  0  0  0  0  0
    3.2808   -3.0326    7.5584 H   0  0  0  0  0  0  0  0  0  0  0  0
    4.1653   -5.6111    6.5015 H   0  0  0  0  0  0  0  0  0  0  0  0
    3.8755   -5.1332    8.1489 H   0  0  0  0  0  0  0  0  0  0  0  0
    5.2068   -4.4164    7.2494 H   0  0  0  0  0  0  0  0  0  0  0  0
    4.1624   -1.8341    6.1418 H   0  0  0  0  0  0  0  0  0  0  0  0
    5.7697   -2.0707    4.7502 H   0  0  0  0  0  0  0  0  0  0  0  0
    5.6886   -3.8407    4.9628 H   0  0  0  0  0  0  0  0  0  0  0  0
    4.7112   -2.3149    2.6923 H   0  0  0  0  0  0  0  0  0  0  0  0
    0.1036   -2.7133    3.8531 H   0  0  0  0  0  0  0  0  0  0  0  0
    1.5001   -1.2991    6.1457 H   0  0  0  0  0  0  0  0  0  0  0  0
   -1.0555   -1.0580    6.6995 H   0  0  0  0  0  0  0  0  0  0  0  0
   -1.7220   -1.5236    5.1245 H   0  0  0  0  0  0  0  0  0  0  0  0
   -1.9843    0.1019    5.7458 H   0  0  0  0  0  0  0  0  0  0  0  0
   -0.7588    1.6207    4.5312 H   0  0  0  0  0  0  0  0  0  0  0  0
    1.0694    2.6863    3.7473 H   0  0  0  0  0  0  0  0  0  0  0  0
    3.2482    2.3848    4.5767 H   0  0  0  0  0  0  0  0  0  0  0  0
    2.2060    1.8556    5.8672 H   0  0  0  0  0  0  0  0  0  0  0  0
    4.2031    0.3475    4.3106 H   0  0  0  0  0  0  0  0  0  0  0  0
    3.5261    0.0553    5.8942 H   0  0  0  0  0  0  0  0  0  0  0  0
    2.9819   -0.6543    2.1219 H   0  0  0  0  0  0  0  0  0  0  0  0
    1.0315   -1.0254    1.1971 H   0  0  0  0  0  0  0  0  0  0  0  0
    2.6365    1.5351    2.2427 H   0  0  0  0  0  0  0  0  0  0  0  0
   -0.2998    0.8983    1.6900 H   0  0  0  0  0  0  0  0  0  0  0  0
    0.9989    0.9447    0.4984 H   0  0  0  0  0  0  0  0  0  0  0  0
    0.5602    2.3912    1.3847 H   0  0  0  0  0  0  0  0  0  0  0  0
  1  2  1  0
  1 41  1  0
  1 42  1  0
  1 43  1  0
  2  3  1  0
  3 12  1  0
  3  4  1  0
  3 44  1  1
  4 25  1  0
  4  5  1  0
  4 45  1  0
  5 13  1  0
  5  6  1  0
  5 46  1  6
  6  7  1  0
  6 47  1  0
  6 48  1  0
  7  8  1  0
  7 49  1  0
  7 50  1  0
  8  9  1  0
  8 10  1  0
  8 11  1  0
  9 51  1  0
  9 52  1  0
  9 53  1  0
 10 54  1  0
 10 55  1  0
 10 56  1  0
 11 12  1  0
 11 16  1  0
 11 57  1  1
 12 13  1  0
 12 58  1  6
 13 14  1  0
 13 15  1  0
 14 59  1  0
 14 60  1  0
 14 61  1  0
 15 62  1  0
 15 63  1  0
 15 64  1  0
 16 17  1  0
 16 18  1  0
 16 65  1  6
 17 66  1  0
 18 28  1  0
 18 19  1  1
 18 20  1  0
 19 67  1  0
 20 21  1  0
 20 68  1  0
 20 69  1  0
 21 22  1  0
 21 23  1  0
 21 70  1  1
 22 71  1  0
 22 72  1  0
 22 73  1  0
 23 26  1  0
 23 24  1  0
 23 74  1  1
 24 25  1  0
 24 75  1  0
 24 76  1  0
 25 26  1  0
 25 77  1  6
 26 36  1  0
 26 27  1  1
 27 28  1  0
 28 29  1  0
 28 78  1  6
 29 36  1  0
 29 30  1  0
 29 79  1  1
 30 31  1  0
 30 32  2  0
 31 80  1  0
 31 81  1  0
 31 82  1  0
 32 33  1  0
 32 83  1  0
 33 39  1  0
 33 34  1  0
 33 84  1  6
 34 35  1  0
 34 85  1  0
 34 86  1  0
 36 35  1  1
 35 87  1  0
 35 88  1  0
 36 37  1  0
 37 38  1  0
 37 39  1  0
 37 89  1  6
 38 90  1  0
 39 40  1  0
 39 91  1  6
 40 92  1  0
 40 93  1  0
 40 94  1  0
M  END
>  <i_m_ct_stereo_status>  (72) 
1

>  <s_m_source_file>  (72) 
/var/tmp/pbs.5076255.sched01/tmpoa2zap1w/0_chicbso.sdf

>  <i_m_source_file_index>  (72) 
32

>  <i_lp_mmshare_version>  (72) 
48012

>  <i_f3d_flags>  (72) 
0

>  <s_epik_input>  (72) 
W0NIM11DMShbQ0gzXSlbQ0gyXVtDSDJdW0NAQEhdKEMyKFtDSDNdKVtDSDNdKVtDQEBIXShbQ0BASF0zW0NIMl1bQ0BASF00W0NAQEhdKFtDSDJdNSlbQ0gzXSlbQ0BASF0oT1tDSDNdKVtDQEBIXTJbQ0BIXTFbQ0BASF0oW09IXSlbQ0BdNShbT0hdKVtDQEhdKE82KVtDQEBIXShbQ0BdNzhbQ0BAXTM0NilDKFtDSDNdKT1bQ0hdW0NAQEhdKFtDSDJdW0NIMl03KVtDQEhdKFtDSDNdKVtDQEBIXThbT0hd

>  <s_epik_cmdline>  (72) 
J2VwaWtfcHl0aG9uJywgJy1waHQnLCAnMi4wJywgJy1waCcsICc3LjAnLCAnLXRuJywgJzgnLCAnLW1hJywgJzIwMCcsICctaW1hZScsICc8aW5maWxlLm1hZT4nLCAnLW9tYWUnLCAnPG91dGZpbGUubWFlPic=

>  <r_lp_tautomer_probability>  (72) 
1

>  <r_epik_Ionization_Penalty>  (72) 
9.39352e-07

>  <r_epik_Ionization_Penalty_Charging>  (72) 
0

>  <r_epik_Ionization_Penalty_Neutral>  (72) 
9.39352e-07

>  <r_epik_State_Penalty>  (72) 
-0

>  <r_epik_Charging_Adjusted_Penalty>  (72) 
0

>  <i_epik_Tot_Q>  (72) 
0

>  <i_epik_Tot_abs_Q>  (72) 
0

>  <s_lp_Force_Field>  (72) 
OPLS3e

>  <r_lp_Energy>  (72) 
266.527

>  <b_lp_Chiralities_Consistent>  (72) 
1

>  <s_lp_Variant>  (72) 
27:0-1

>  <s_i_glide_gridfile>  (72) 
pfpi4k_grid

>  <i_i_glide_lignum>  (72) 
32

>  <i_i_glide_rotatable_bonds>  (72) 
4

>  <r_i_docking_score>  (72) 
-1.46856

>  <r_i_glide_ligand_efficiency>  (72) 
-0.0367139

>  <r_i_glide_ligand_efficiency_sa>  (72) 
-0.12556

>  <r_i_glide_ligand_efficiency_ln>  (72) 
-0.3132

>  <r_i_glide_gscore>  (72) 
-1.46856

>  <r_i_glide_lipo>  (72) 
-0.236427

>  <r_i_glide_hbond>  (72) 
0

>  <r_i_glide_metal>  (72) 
-0

>  <r_i_glide_rewards>  (72) 
0

>  <r_i_glide_evdw>  (72) 
-20.2592

>  <r_i_glide_ecoul>  (72) 
-1.46113

>  <r_i_glide_erotb>  (72) 
0

>  <r_i_glide_esite>  (72) 
0

>  <r_i_glide_emodel>  (72) 
-23.7681

>  <r_i_glide_energy>  (72) 
-21.7203

>  <r_i_glide_einternal>  (72) 
0.470128

>  <r_i_glide_intrahb_reward>  (72) 
-0

>  <i_i_glide_confnum>  (72) 
1

>  <i_i_glide_posenum>  (72) 
13

>  <r_i_glide_eff_state_penalty>  (72) 
0

>  <ligand_id>  (72) 
27

>  <original_smiles>  (72) 
COC1C2C3CCC(C)(C)C(C1C3(C)C)C(O)C1(O)CC(C)C3CC2C32OC1C1C(C)=CC3CCC12C(O)C3C

>  <smiles>  (72) 
[H]OC1([H])C2([H])C3([H])C([H])(OC([H])([H])[H])C([H])(C4([H])C([H])([H])C5([H])C([H])(C([H])([H])[H])C([H])([H])C1(O[H])C1([H])OC54C45C([H])([H])C([H])([H])C([H])(C([H])=C(C([H])([H])[H])C14[H])C([H])(C([H])([H])[H])C5([H])O[H])C([H])(C([H])([H])C([H])([H])C2(C([H])([H])[H])C([H])([H])[H])C3(C([H])([H])[H])C([H])([H])[H]

$$$$
28:0:0
     RDKit          3D

 54 57  0  0  1  0  0  0  0  0999 V2000
    1.7890   -5.7268    0.6625 C   0  0  0  0  0  0  0  0  0  0  0  0
    2.5793   -4.8158    1.4200 O   0  0  0  0  0  0  0  0  0  0  0  0
    3.4041   -5.3578    2.4031 C   0  0  2  0  0  0  0  0  0  0  0  0
    3.2504   -4.6179    3.6024 O   0  0  0  0  0  0  0  0  0  0  0  0
    4.4506   -4.1023    4.1927 C   0  0  2  0  0  0  0  0  0  0  0  0
    5.1650   -3.2466    3.1422 C   0  0  0  0  0  0  0  0  0  0  0  0
    5.4381   -3.8896    1.9874 C   0  0  0  0  0  0  0  0  0  0  0  0
    6.2786   -3.3407    0.7921 C   0  0  2  0  0  0  0  0  0  0  0  0
    7.6443   -4.0969    0.7955 C   0  0  0  0  0  0  0  0  0  0  0  0
    6.6402   -1.8263    0.9547 C   0  0  1  0  0  0  0  0  0  0  0  0
    7.8089   -1.4613    0.2363 O   0  0  0  0  0  0  0  0  0  0  0  0
    5.5940   -0.8268    0.4584 C   0  0  0  0  0  0  0  0  0  0  0  0
    5.1834   -1.1519   -0.9797 C   0  0  0  0  0  0  0  0  0  0  0  0
    4.5435   -2.5398   -1.0765 C   0  0  0  0  0  0  0  0  0  0  0  0
    3.1937   -2.4684   -0.3200 C   0  0  0  0  0  0  0  0  0  0  0  0
    4.2119   -2.7888   -2.5670 C   0  0  0  0  0  0  0  0  0  0  0  0
    5.5438   -3.6488   -0.5616 C   0  0  2  0  0  0  0  0  0  0  0  0
    4.8628   -5.0576   -0.6041 C   0  0  0  0  0  0  0  0  0  0  0  0
    5.0900   -6.0354    0.5994 C   0  0  0  0  0  0  0  0  0  0  0  0
    4.9399   -5.3376    1.9721 C   0  0  2  0  0  0  0  0  0  0  0  0
    5.5837   -6.1540    3.1750 C   0  0  1  0  0  0  0  0  0  0  0  0
    7.0530   -6.6113    3.0453 C   0  0  0  0  0  0  0  0  0  0  0  0
    5.3924   -5.2947    4.4483 C   0  0  0  0  0  0  0  0  0  0  0  0
    5.9361   -5.5221    5.5163 O   0  0  0  0  0  0  0  0  0  0  0  0
    1.2486   -5.1538   -0.0902 H   0  0  0  0  0  0  0  0  0  0  0  0
    1.0495   -6.2558    1.2638 H   0  0  0  0  0  0  0  0  0  0  0  0
    2.4486   -6.4062    0.1255 H   0  0  0  0  0  0  0  0  0  0  0  0
    3.0866   -6.3772    2.6341 H   0  0  0  0  0  0  0  0  0  0  0  0
    4.2714   -3.5353    5.1069 H   0  0  0  0  0  0  0  0  0  0  0  0
    5.4418   -2.2471    3.4155 H   0  0  0  0  0  0  0  0  0  0  0  0
    8.2384   -3.8659   -0.0883 H   0  0  0  0  0  0  0  0  0  0  0  0
    7.5691   -5.1722    0.7976 H   0  0  0  0  0  0  0  0  0  0  0  0
    8.2364   -3.8432    1.6738 H   0  0  0  0  0  0  0  0  0  0  0  0
    6.8720   -1.5866    1.9920 H   0  0  0  0  0  0  0  0  0  0  0  0
    8.2194   -0.7607    0.7223 H   0  0  0  0  0  0  0  0  0  0  0  0
    4.7270   -0.8324    1.1241 H   0  0  0  0  0  0  0  0  0  0  0  0
    5.9983    0.1817    0.4985 H   0  0  0  0  0  0  0  0  0  0  0  0
    4.4960   -0.3822   -1.3398 H   0  0  0  0  0  0  0  0  0  0  0  0
    6.0475   -1.1191   -1.6477 H   0  0  0  0  0  0  0  0  0  0  0  0
    2.4897   -3.2328   -0.6305 H   0  0  0  0  0  0  0  0  0  0  0  0
    2.7042   -1.5219   -0.5394 H   0  0  0  0  0  0  0  0  0  0  0  0
    3.3148   -2.5115    0.7666 H   0  0  0  0  0  0  0  0  0  0  0  0
    3.6760   -3.7255   -2.7184 H   0  0  0  0  0  0  0  0  0  0  0  0
    5.1259   -2.8305   -3.1661 H   0  0  0  0  0  0  0  0  0  0  0  0
    3.5797   -1.9970   -2.9623 H   0  0  0  0  0  0  0  0  0  0  0  0
    6.3486   -3.6712   -1.3017 H   0  0  0  0  0  0  0  0  0  0  0  0
    3.8067   -4.9272   -0.7446 H   0  0  0  0  0  0  0  0  0  0  0  0
    5.2044   -5.5601   -1.5193 H   0  0  0  0  0  0  0  0  0  0  0  0
    4.4623   -6.9219    0.5336 H   0  0  0  0  0  0  0  0  0  0  0  0
    6.0801   -6.4660    0.5039 H   0  0  0  0  0  0  0  0  0  0  0  0
    5.0087   -7.0637    3.3254 H   0  0  0  0  0  0  0  0  0  0  0  0
    7.3208   -7.2472    3.8944 H   0  0  0  0  0  0  0  0  0  0  0  0
    7.7420   -5.7739    3.0493 H   0  0  0  0  0  0  0  0  0  0  0  0
    7.2323   -7.2161    2.1587 H   0  0  0  0  0  0  0  0  0  0  0  0
  1  2  1  0
  1 25  1  0
  1 26  1  0
  1 27  1  0
  2  3  1  0
  3 20  1  0
  3  4  1  0
  3 28  1  1
  4  5  1  0
  5 23  1  0
  5  6  1  0
  5 29  1  1
  6  7  2  0
  6 30  1  0
  7 20  1  0
  7  8  1  0
  8 17  1  0
  8  9  1  6
  8 10  1  0
  9 31  1  0
  9 32  1  0
  9 33  1  0
 10 11  1  0
 10 12  1  0
 10 34  1  1
 11 35  1  0
 12 13  1  0
 12 36  1  0
 12 37  1  0
 13 14  1  0
 13 38  1  0
 13 39  1  0
 14 15  1  0
 14 16  1  0
 14 17  1  0
 15 40  1  0
 15 41  1  0
 15 42  1  0
 16 43  1  0
 16 44  1  0
 16 45  1  0
 17 18  1  0
 17 46  1  6
 18 19  1  0
 18 47  1  0
 18 48  1  0
 20 19  1  6
 19 49  1  0
 19 50  1  0
 20 21  1  0
 21 22  1  0
 21 23  1  0
 21 51  1  1
 22 52  1  0
 22 53  1  0
 22 54  1  0
 23 24  2  0
M  END
>  <i_m_ct_stereo_status>  (73) 
1

>  <s_m_source_file>  (73) 
/var/tmp/pbs.5076255.sched01/tmpoa2zap1w/0_chicbso.sdf

>  <i_m_source_file_index>  (73) 
33

>  <i_lp_mmshare_version>  (73) 
48012

>  <i_f3d_flags>  (73) 
0

>  <s_epik_input>  (73) 
W0NIM11PW0NAQEhdMU9bQ0BASF0oQyg9TylbQ0BASF0yW0NIM10pW0NIXT1DKFtDQF0xMjMpW0NAQF00KFtDSDNdKVtDQEBIXShbQ0gyXVtDSDJdMylDKFtDSDNdKShbQ0gzXSlbQ0gyXVtDSDJdW0NAQEhdNFtPSF0=

>  <s_epik_cmdline>  (73) 
J2VwaWtfcHl0aG9uJywgJy1waHQnLCAnMi4wJywgJy1waCcsICc3LjAnLCAnLXRuJywgJzgnLCAnLW1hJywgJzIwMCcsICctaW1hZScsICc8aW5maWxlLm1hZT4nLCAnLW9tYWUnLCAnPG91dGZpbGUubWFlPic=

>  <r_lp_tautomer_probability>  (73) 
1

>  <r_epik_Ionization_Penalty>  (73) 
2.84591e-07

>  <r_epik_Ionization_Penalty_Charging>  (73) 
0

>  <r_epik_Ionization_Penalty_Neutral>  (73) 
2.84591e-07

>  <r_epik_State_Penalty>  (73) 
-0

>  <r_epik_Charging_Adjusted_Penalty>  (73) 
0

>  <i_epik_Tot_Q>  (73) 
0

>  <i_epik_Tot_abs_Q>  (73) 
0

>  <s_epik_Chemistry_Notes>  (73) 
This compound contains an acetal/aminal-like group ( X-CH(R)-Y where X, Y are N, S, or O) that may be acid/base labile, releasing an aldehyde.

>  <s_lp_Force_Field>  (73) 
OPLS3e

>  <r_lp_Energy>  (73) 
72.963

>  <b_lp_Chiralities_Consistent>  (73) 
1

>  <s_lp_Variant>  (73) 
28:0-1

>  <s_i_glide_gridfile>  (73) 
pfpi4k_grid

>  <i_i_glide_lignum>  (73) 
33

>  <i_i_glide_rotatable_bonds>  (73) 
2

>  <r_i_docking_score>  (73) 
-3.16402

>  <r_i_glide_ligand_efficiency>  (73) 
-0.131834

>  <r_i_glide_ligand_efficiency_sa>  (73) 
-0.380275

>  <r_i_glide_ligand_efficiency_ln>  (73) 
-0.757295

>  <r_i_glide_gscore>  (73) 
-3.16402

>  <r_i_glide_lipo>  (73) 
-0.729812

>  <r_i_glide_hbond>  (73) 
-0.177299

>  <r_i_glide_metal>  (73) 
-0

>  <r_i_glide_rewards>  (73) 
-1.12881

>  <r_i_glide_evdw>  (73) 
-16.6524

>  <r_i_glide_ecoul>  (73) 
-1.96982

>  <r_i_glide_erotb>  (73) 
0

>  <r_i_glide_esite>  (73) 
0

>  <r_i_glide_emodel>  (73) 
-18.9557

>  <r_i_glide_energy>  (73) 
-18.6222

>  <r_i_glide_einternal>  (73) 
4.7877

>  <r_i_glide_intrahb_reward>  (73) 
-0

>  <i_i_glide_confnum>  (73) 
2

>  <i_i_glide_posenum>  (73) 
24

>  <r_i_glide_eff_state_penalty>  (73) 
0

>  <ligand_id>  (73) 
28

>  <original_smiles>  (73) 
COC1OC2C=C3C4(C)C(O)CCC(C)(C)C4CCC31C(C)C2=O

>  <smiles>  (73) 
[H]OC1([H])C([H])([H])C([H])([H])C(C([H])([H])[H])(C([H])([H])[H])C2([H])C([H])([H])C([H])([H])C34C(=C([H])C([H])(OC3([H])OC([H])([H])[H])C(=O)C4([H])C([H])([H])[H])C12C([H])([H])[H]

$$$$
28:0:1
     RDKit          3D

 54 57  0  0  1  0  0  0  0  0999 V2000
    1.7087   -5.6046    0.5712 C   0  0  0  0  0  0  0  0  0  0  0  0
    2.4558   -4.6835    1.3426 O   0  0  0  0  0  0  0  0  0  0  0  0
    3.2196   -5.2166    2.3762 C   0  0  2  0  0  0  0  0  0  0  0  0
    3.0710   -4.3997    3.5276 O   0  0  0  0  0  0  0  0  0  0  0  0
    4.2958   -3.9118    4.1122 C   0  0  2  0  0  0  0  0  0  0  0  0
    5.0616   -3.1712    3.0264 C   0  0  0  0  0  0  0  0  0  0  0  0
    5.3399   -3.8915    1.9141 C   0  0  0  0  0  0  0  0  0  0  0  0
    6.2233   -3.4684    0.7144 C   0  0  2  0  0  0  0  0  0  0  0  0
    7.5437   -4.2973    0.8034 C   0  0  0  0  0  0  0  0  0  0  0  0
    6.6739   -1.9611    0.7758 C   0  0  1  0  0  0  0  0  0  0  0  0
    7.8643   -1.7335    0.0442 O   0  0  0  0  0  0  0  0  0  0  0  0
    5.6826   -0.9483    0.2007 C   0  0  0  0  0  0  0  0  0  0  0  0
    5.2946   -1.3452   -1.2278 C   0  0  0  0  0  0  0  0  0  0  0  0
    4.5606   -2.7007   -1.2629 C   0  0  0  0  0  0  0  0  0  0  0  0
    3.2117   -2.4995   -0.5422 C   0  0  0  0  0  0  0  0  0  0  0  0
    4.2823   -3.0181   -2.7466 C   0  0  0  0  0  0  0  0  0  0  0  0
    5.4859   -3.8241   -0.6292 C   0  0  2  0  0  0  0  0  0  0  0  0
    4.7676   -5.2137   -0.6084 C   0  0  0  0  0  0  0  0  0  0  0  0
    4.9116   -6.1021    0.6532 C   0  0  0  0  0  0  0  0  0  0  0  0
    4.7467   -5.3309    1.9803 C   0  0  2  0  0  0  0  0  0  0  0  0
    5.3325   -6.0788    3.2520 C   0  0  1  0  0  0  0  0  0  0  0  0
    6.7755   -6.6183    3.1957 C   0  0  0  0  0  0  0  0  0  0  0  0
    5.1584   -5.1307    4.4709 C   0  0  0  0  0  0  0  0  0  0  0  0
    5.6691   -5.3148    5.5637 O   0  0  0  0  0  0  0  0  0  0  0  0
    1.1990   -5.0793   -0.2335 H   0  0  0  0  0  0  0  0  0  0  0  0
    0.9498   -6.1303    1.1576 H   0  0  0  0  0  0  0  0  0  0  0  0
    2.3757   -6.3132    0.0870 H   0  0  0  0  0  0  0  0  0  0  0  0
    2.8125   -6.1907    2.6584 H   0  0  0  0  0  0  0  0  0  0  0  0
    4.1179   -3.2769    4.9880 H   0  0  0  0  0  0  0  0  0  0  0  0
    5.3915   -2.1634    3.2195 H   0  0  0  0  0  0  0  0  0  0  0  0
    8.1727   -4.1663   -0.0783 H   0  0  0  0  0  0  0  0  0  0  0  0
    7.4111   -5.3634    0.8732 H   0  0  0  0  0  0  0  0  0  0  0  0
    8.1317   -4.0071    1.6770 H   0  0  0  0  0  0  0  0  0  0  0  0
    6.9102   -1.6647    1.7979 H   0  0  0  0  0  0  0  0  0  0  0  0
    8.5564   -2.2526    0.4516 H   0  0  0  0  0  0  0  0  0  0  0  0
    4.8064   -0.8666    0.8371 H   0  0  0  0  0  0  0  0  0  0  0  0
    6.1328    0.0432    0.1911 H   0  0  0  0  0  0  0  0  0  0  0  0
    4.6638   -0.5645   -1.6649 H   0  0  0  0  0  0  0  0  0  0  0  0
    6.1754   -1.4056   -1.8691 H   0  0  0  0  0  0  0  0  0  0  0  0
    2.4789   -3.2583   -0.8053 H   0  0  0  0  0  0  0  0  0  0  0  0
    2.7709   -1.5566   -0.8562 H   0  0  0  0  0  0  0  0  0  0  0  0
    3.3013   -2.4664    0.5397 H   0  0  0  0  0  0  0  0  0  0  0  0
    3.6955   -3.9243   -2.8583 H   0  0  0  0  0  0  0  0  0  0  0  0
    5.2027   -3.1489   -3.3089 H   0  0  0  0  0  0  0  0  0  0  0  0
    3.7086   -2.2219   -3.2199 H   0  0  0  0  0  0  0  0  0  0  0  0
    6.3000   -3.9111   -1.3545 H   0  0  0  0  0  0  0  0  0  0  0  0
    3.6990   -5.0583   -0.7446 H   0  0  0  0  0  0  0  0  0  0  0  0
    5.0306   -5.7793   -1.4936 H   0  0  0  0  0  0  0  0  0  0  0  0
    4.2094   -6.9374    0.6194 H   0  0  0  0  0  0  0  0  0  0  0  0
    5.8586   -6.6184    0.5929 H   0  0  0  0  0  0  0  0  0  0  0  0
    4.7015   -6.9465    3.4538 H   0  0  0  0  0  0  0  0  0  0  0  0
    6.9937   -7.2107    4.0837 H   0  0  0  0  0  0  0  0  0  0  0  0
    7.5083   -5.8143    3.1617 H   0  0  0  0  0  0  0  0  0  0  0  0
    6.9413   -7.2806    2.3466 H   0  0  0  0  0  0  0  0  0  0  0  0
  1  2  1  0
  1 25  1  0
  1 26  1  0
  1 27  1  0
  2  3  1  0
  3 20  1  0
  3  4  1  0
  3 28  1  1
  4  5  1  0
  5 23  1  0
  5  6  1  0
  5 29  1  1
  6  7  2  0
  6 30  1  0
  7 20  1  0
  7  8  1  0
  8 17  1  0
  8  9  1  1
  8 10  1  0
  9 31  1  0
  9 32  1  0
  9 33  1  0
 10 11  1  0
 10 12  1  0
 10 34  1  1
 11 35  1  0
 12 13  1  0
 12 36  1  0
 12 37  1  0
 13 14  1  0
 13 38  1  0
 13 39  1  0
 14 15  1  0
 14 16  1  0
 14 17  1  0
 15 40  1  0
 15 41  1  0
 15 42  1  0
 16 43  1  0
 16 44  1  0
 16 45  1  0
 17 18  1  0
 17 46  1  6
 18 19  1  0
 18 47  1  0
 18 48  1  0
 20 19  1  6
 19 49  1  0
 19 50  1  0
 20 21  1  0
 21 22  1  0
 21 23  1  0
 21 51  1  1
 22 52  1  0
 22 53  1  0
 22 54  1  0
 23 24  2  0
M  END
>  <i_m_ct_stereo_status>  (74) 
1

>  <s_m_source_file>  (74) 
/var/tmp/pbs.5076255.sched01/tmpoa2zap1w/0_chicbso.sdf

>  <i_m_source_file_index>  (74) 
33

>  <i_lp_mmshare_version>  (74) 
48012

>  <i_f3d_flags>  (74) 
0

>  <s_epik_input>  (74) 
W0NIM11PW0NAQEhdMU9bQ0BASF0oQyg9TylbQ0BASF0yW0NIM10pW0NIXT1DKFtDQF0xMjMpW0NAQF00KFtDSDNdKVtDQEBIXShbQ0gyXVtDSDJdMylDKFtDSDNdKShbQ0gzXSlbQ0gyXVtDSDJdW0NAQEhdNFtPSF0=

>  <s_epik_cmdline>  (74) 
J2VwaWtfcHl0aG9uJywgJy1waHQnLCAnMi4wJywgJy1waCcsICc3LjAnLCAnLXRuJywgJzgnLCAnLW1hJywgJzIwMCcsICctaW1hZScsICc8aW5maWxlLm1hZT4nLCAnLW9tYWUnLCAnPG91dGZpbGUubWFlPic=

>  <r_lp_tautomer_probability>  (74) 
1

>  <r_epik_Ionization_Penalty>  (74) 
2.84591e-07

>  <r_epik_Ionization_Penalty_Charging>  (74) 
0

>  <r_epik_Ionization_Penalty_Neutral>  (74) 
2.84591e-07

>  <r_epik_State_Penalty>  (74) 
-0

>  <r_epik_Charging_Adjusted_Penalty>  (74) 
0

>  <i_epik_Tot_Q>  (74) 
0

>  <i_epik_Tot_abs_Q>  (74) 
0

>  <s_epik_Chemistry_Notes>  (74) 
This compound contains an acetal/aminal-like group ( X-CH(R)-Y where X, Y are N, S, or O) that may be acid/base labile, releasing an aldehyde.

>  <s_lp_Force_Field>  (74) 
OPLS3e

>  <r_lp_Energy>  (74) 
72.963

>  <b_lp_Chiralities_Consistent>  (74) 
1

>  <s_lp_Variant>  (74) 
28:0-1

>  <s_i_glide_gridfile>  (74) 
pfpi4k_grid

>  <i_i_glide_lignum>  (74) 
33

>  <i_i_glide_rotatable_bonds>  (74) 
2

>  <r_i_docking_score>  (74) 
-2.88732

>  <r_i_glide_ligand_efficiency>  (74) 
-0.120305

>  <r_i_glide_ligand_efficiency_sa>  (74) 
-0.34702

>  <r_i_glide_ligand_efficiency_ln>  (74) 
-0.691069

>  <r_i_glide_gscore>  (74) 
-2.88732

>  <r_i_glide_lipo>  (74) 
-0.650197

>  <r_i_glide_hbond>  (74) 
-0.104856

>  <r_i_glide_metal>  (74) 
-0

>  <r_i_glide_rewards>  (74) 
-1.12901

>  <r_i_glide_evdw>  (74) 
-17.5182

>  <r_i_glide_ecoul>  (74) 
-0.848968

>  <r_i_glide_erotb>  (74) 
0

>  <r_i_glide_esite>  (74) 
0

>  <r_i_glide_emodel>  (74) 
-18.6827

>  <r_i_glide_energy>  (74) 
-18.3672

>  <r_i_glide_einternal>  (74) 
4.26183

>  <r_i_glide_intrahb_reward>  (74) 
-0

>  <i_i_glide_confnum>  (74) 
1

>  <i_i_glide_posenum>  (74) 
4

>  <r_i_glide_eff_state_penalty>  (74) 
0

>  <ligand_id>  (74) 
28

>  <original_smiles>  (74) 
COC1OC2C=C3C4(C)C(O)CCC(C)(C)C4CCC31C(C)C2=O

>  <smiles>  (74) 
[H]OC1([H])C([H])([H])C([H])([H])C(C([H])([H])[H])(C([H])([H])[H])C2([H])C([H])([H])C([H])([H])C34C(=C([H])C([H])(OC3([H])OC([H])([H])[H])C(=O)C4([H])C([H])([H])[H])C12C([H])([H])[H]

$$$$
28:0:2
     RDKit          3D

 54 57  0  0  1  0  0  0  0  0999 V2000
    1.1054   -5.9862    0.3330 C   0  0  0  0  0  0  0  0  0  0  0  0
    2.1634   -5.1205    0.6881 O   0  0  0  0  0  0  0  0  0  0  0  0
    2.6332   -5.2567    1.9832 C   0  0  2  0  0  0  0  0  0  0  0  0
    1.8694   -4.4533    2.8628 O   0  0  0  0  0  0  0  0  0  0  0  0
    2.6213   -3.5220    3.6660 C   0  0  2  0  0  0  0  0  0  0  0  0
    3.4479   -2.6598    2.7325 C   0  0  0  0  0  0  0  0  0  0  0  0
    4.2449   -3.3228    1.8936 C   0  0  0  0  0  0  0  0  0  0  0  0
    5.2702   -2.7419    0.8970 C   0  0  2  0  0  0  0  0  0  0  0  0
    6.6572   -3.0400    1.4763 C   0  0  0  0  0  0  0  0  0  0  0  0
    5.2106   -1.1776    0.8303 C   0  0  1  0  0  0  0  0  0  0  0  0
    6.4450   -0.6503    0.4006 O   0  0  0  0  0  0  0  0  0  0  0  0
    4.2013   -0.6195   -0.1602 C   0  0  0  0  0  0  0  0  0  0  0  0
    4.4398   -1.1999   -1.5548 C   0  0  0  0  0  0  0  0  0  0  0  0
    4.2306   -2.7236   -1.5552 C   0  0  0  0  0  0  0  0  0  0  0  0
    2.7325   -2.9836   -1.3271 C   0  0  0  0  0  0  0  0  0  0  0  0
    4.5545   -3.2323   -2.9701 C   0  0  0  0  0  0  0  0  0  0  0  0
    5.1744   -3.4136   -0.4963 C   0  0  2  0  0  0  0  0  0  0  0  0
    4.9117   -4.9442   -0.4025 C   0  0  0  0  0  0  0  0  0  0  0  0
    4.9102   -5.6502    0.9727 C   0  0  0  0  0  0  0  0  0  0  0  0
    4.1487   -4.8678    2.0548 C   0  0  2  0  0  0  0  0  0  0  0  0
    4.4685   -5.3008    3.5381 C   0  0  1  0  0  0  0  0  0  0  0  0
    5.9255   -5.3085    3.9806 C   0  0  0  0  0  0  0  0  0  0  0  0
    3.6544   -4.3489    4.4399 C   0  0  0  0  0  0  0  0  0  0  0  0
    3.8201   -4.2622    5.6471 O   0  0  0  0  0  0  0  0  0  0  0  0
    0.8004   -5.7494   -0.6869 H   0  0  0  0  0  0  0  0  0  0  0  0
    0.2432   -5.8842    0.9913 H   0  0  0  0  0  0  0  0  0  0  0  0
    1.4134   -7.0268    0.3708 H   0  0  0  0  0  0  0  0  0  0  0  0
    2.5451   -6.3087    2.2845 H   0  0  0  0  0  0  0  0  0  0  0  0
    1.9942   -2.9196    4.3279 H   0  0  0  0  0  0  0  0  0  0  0  0
    3.3576   -1.5810    2.8232 H   0  0  0  0  0  0  0  0  0  0  0  0
    7.4956   -2.7356    0.8400 H   0  0  0  0  0  0  0  0  0  0  0  0
    6.8746   -4.0659    1.7319 H   0  0  0  0  0  0  0  0  0  0  0  0
    6.6123   -2.4532    2.3859 H   0  0  0  0  0  0  0  0  0  0  0  0
    5.0186   -0.7313    1.8062 H   0  0  0  0  0  0  0  0  0  0  0  0
    6.9234   -0.3443    1.1738 H   0  0  0  0  0  0  0  0  0  0  0  0
    3.1864   -0.8103    0.1657 H   0  0  0  0  0  0  0  0  0  0  0  0
    4.2753    0.4612   -0.1666 H   0  0  0  0  0  0  0  0  0  0  0  0
    3.7693   -0.7246   -2.2759 H   0  0  0  0  0  0  0  0  0  0  0  0
    5.4476   -0.9759   -1.9036 H   0  0  0  0  0  0  0  0  0  0  0  0
    2.3996   -3.9873   -1.5823 H   0  0  0  0  0  0  0  0  0  0  0  0
    2.1724   -2.3177   -1.9805 H   0  0  0  0  0  0  0  0  0  0  0  0
    2.4350   -2.7886   -0.2990 H   0  0  0  0  0  0  0  0  0  0  0  0
    4.3620   -4.2970   -3.0688 H   0  0  0  0  0  0  0  0  0  0  0  0
    5.5992   -3.0670   -3.2217 H   0  0  0  0  0  0  0  0  0  0  0  0
    3.9412   -2.7306   -3.7210 H   0  0  0  0  0  0  0  0  0  0  0  0
    6.1724   -3.3094   -0.9310 H   0  0  0  0  0  0  0  0  0  0  0  0
    3.9784   -5.1740   -0.8844 H   0  0  0  0  0  0  0  0  0  0  0  0
    5.6420   -5.4282   -1.0241 H   0  0  0  0  0  0  0  0  0  0  0  0
    4.5035   -6.6607    0.8693 H   0  0  0  0  0  0  0  0  0  0  0  0
    5.9410   -5.8280    1.2506 H   0  0  0  0  0  0  0  0  0  0  0  0
    4.1077   -6.3175    3.7088 H   0  0  0  0  0  0  0  0  0  0  0  0
    6.0512   -5.7151    4.9869 H   0  0  0  0  0  0  0  0  0  0  0  0
    6.2161   -4.2579    4.0201 H   0  0  0  0  0  0  0  0  0  0  0  0
    6.5994   -5.8769    3.3336 H   0  0  0  0  0  0  0  0  0  0  0  0
  1  2  1  0
  1 25  1  0
  1 26  1  0
  1 27  1  0
  2  3  1  0
  3 20  1  0
  3  4  1  0
  3 28  1  1
  4  5  1  0
  5 23  1  0
  5  6  1  0
  5 29  1  1
  6  7  2  0
  6 30  1  0
  7 20  1  0
  7  8  1  0
  8 17  1  0
  8  9  1  1
  8 10  1  0
  9 31  1  0
  9 32  1  0
  9 33  1  0
 10 11  1  0
 10 12  1  0
 10 34  1  1
 11 35  1  0
 12 13  1  0
 12 36  1  0
 12 37  1  0
 13 14  1  0
 13 38  1  0
 13 39  1  0
 14 15  1  0
 14 16  1  0
 14 17  1  0
 15 40  1  0
 15 41  1  0
 15 42  1  0
 16 43  1  0
 16 44  1  0
 16 45  1  0
 17 18  1  0
 17 46  1  6
 18 19  1  0
 18 47  1  0
 18 48  1  0
 20 19  1  6
 19 49  1  0
 19 50  1  0
 20 21  1  0
 21 22  1  0
 21 23  1  0
 21 51  1  6
 22 52  1  0
 22 53  1  0
 22 54  1  0
 23 24  2  0
M  END
>  <i_m_ct_stereo_status>  (75) 
1

>  <s_m_source_file>  (75) 
/var/tmp/pbs.5076255.sched01/tmpoa2zap1w/0_chicbso.sdf

>  <i_m_source_file_index>  (75) 
33

>  <i_lp_mmshare_version>  (75) 
48012

>  <i_f3d_flags>  (75) 
0

>  <s_epik_input>  (75) 
W0NIM11PW0NAQEhdMU9bQ0BASF0oQyg9TylbQ0BASF0yW0NIM10pW0NIXT1DKFtDQF0xMjMpW0NAQF00KFtDSDNdKVtDQEBIXShbQ0gyXVtDSDJdMylDKFtDSDNdKShbQ0gzXSlbQ0gyXVtDSDJdW0NAQEhdNFtPSF0=

>  <s_epik_cmdline>  (75) 
J2VwaWtfcHl0aG9uJywgJy1waHQnLCAnMi4wJywgJy1waCcsICc3LjAnLCAnLXRuJywgJzgnLCAnLW1hJywgJzIwMCcsICctaW1hZScsICc8aW5maWxlLm1hZT4nLCAnLW9tYWUnLCAnPG91dGZpbGUubWFlPic=

>  <r_lp_tautomer_probability>  (75) 
1

>  <r_epik_Ionization_Penalty>  (75) 
2.84591e-07

>  <r_epik_Ionization_Penalty_Charging>  (75) 
0

>  <r_epik_Ionization_Penalty_Neutral>  (75) 
2.84591e-07

>  <r_epik_State_Penalty>  (75) 
-0

>  <r_epik_Charging_Adjusted_Penalty>  (75) 
0

>  <i_epik_Tot_Q>  (75) 
0

>  <i_epik_Tot_abs_Q>  (75) 
0

>  <s_epik_Chemistry_Notes>  (75) 
This compound contains an acetal/aminal-like group ( X-CH(R)-Y where X, Y are N, S, or O) that may be acid/base labile, releasing an aldehyde.

>  <s_lp_Force_Field>  (75) 
OPLS3e

>  <r_lp_Energy>  (75) 
72.963

>  <b_lp_Chiralities_Consistent>  (75) 
1

>  <s_lp_Variant>  (75) 
28:0-1

>  <s_i_glide_gridfile>  (75) 
pfpi4k_grid

>  <i_i_glide_lignum>  (75) 
33

>  <i_i_glide_rotatable_bonds>  (75) 
2

>  <r_i_docking_score>  (75) 
-2.75417

>  <r_i_glide_ligand_efficiency>  (75) 
-0.114757

>  <r_i_glide_ligand_efficiency_sa>  (75) 
-0.331017

>  <r_i_glide_ligand_efficiency_ln>  (75) 
-0.6592

>  <r_i_glide_gscore>  (75) 
-2.75417

>  <r_i_glide_lipo>  (75) 
-0.447191

>  <r_i_glide_hbond>  (75) 
-0.271929

>  <r_i_glide_metal>  (75) 
-0

>  <r_i_glide_rewards>  (75) 
-1.12875

>  <r_i_glide_evdw>  (75) 
-15.5384

>  <r_i_glide_ecoul>  (75) 
-0.781115

>  <r_i_glide_erotb>  (75) 
0

>  <r_i_glide_esite>  (75) 
-0.012215

>  <r_i_glide_emodel>  (75) 
-17.9247

>  <r_i_glide_energy>  (75) 
-16.3195

>  <r_i_glide_einternal>  (75) 
2.08521

>  <r_i_glide_intrahb_reward>  (75) 
-0

>  <i_i_glide_confnum>  (75) 
1

>  <i_i_glide_posenum>  (75) 
13

>  <r_i_glide_eff_state_penalty>  (75) 
0

>  <ligand_id>  (75) 
28

>  <original_smiles>  (75) 
COC1OC2C=C3C4(C)C(O)CCC(C)(C)C4CCC31C(C)C2=O

>  <smiles>  (75) 
[H]OC1([H])C([H])([H])C([H])([H])C(C([H])([H])[H])(C([H])([H])[H])C2([H])C([H])([H])C([H])([H])C34C(=C([H])C([H])(OC3([H])OC([H])([H])[H])C(=O)C4([H])C([H])([H])[H])C12C([H])([H])[H]

$$$$
30:0:0
     RDKit          3D

 47 52  0  0  1  0  0  0  0  0999 V2000
   -0.5230    1.6238   10.9522 C   0  0  0  0  0  0  0  0  0  0  0  0
    0.4063    1.7800    9.8797 O   0  0  0  0  0  0  0  0  0  0  0  0
   -0.1187    1.6925    8.6220 C   0  0  0  0  0  0  0  0  0  0  0  0
    0.5470    0.8938    7.6713 C   0  0  0  0  0  0  0  0  0  0  0  0
    0.0350    0.6867    6.3608 C   0  0  0  0  0  0  0  0  0  0  0  0
   -1.1511    1.3986    5.9717 C   0  0  0  0  0  0  0  0  0  0  0  0
   -1.7840    2.2170    6.9189 C   0  0  0  0  0  0  0  0  0  0  0  0
   -1.2876    2.3717    8.1942 C   0  0  0  0  0  0  0  0  0  0  0  0
   -2.0723    3.2351    8.8828 O   0  0  0  0  0  0  0  0  0  0  0  0
   -3.1706    3.4954    8.0623 C   0  0  0  0  0  0  0  0  0  0  0  0
   -2.9168    2.9698    6.7837 O   0  0  0  0  0  0  0  0  0  0  0  0
   -1.7072    1.3257    4.5601 C   0  0  0  0  0  0  0  0  0  0  0  0
   -0.6840    0.8286    3.5371 C   0  0  2  0  0  0  0  0  0  0  0  0
   -0.0072   -0.4340    4.0648 C   0  0  2  0  0  0  0  0  0  0  0  0
   -0.8730   -1.4681    4.4868 O   0  0  0  0  0  0  0  0  0  0  0  0
   -0.0856   -2.3787    5.1918 C   0  0  2  0  0  0  0  0  0  0  0  0
   -0.7132   -2.8666    6.3468 O   0  0  0  0  0  0  0  0  0  0  0  0
    0.1284   -2.7284    7.4079 C   0  0  0  0  0  0  0  0  0  0  0  0
    1.2109   -2.0182    7.1083 C   0  0  0  0  0  0  0  0  0  0  0  0
    1.1785   -1.6041    5.6733 C   0  0  2  0  0  0  0  0  0  0  0  0
    0.8181   -0.1315    5.3100 C   0  0  2  0  0  0  0  0  0  0  0  0
    1.9821    0.7432    4.7954 C   0  0  0  0  0  0  0  0  0  0  0  0
    1.4398    2.0608    4.1838 C   0  0  0  0  0  0  0  0  0  0  0  0
    0.3483    1.8604    3.1711 N   0  0  1  0  0  0  0  0  0  0  0  0
    0.8806    1.6967    1.7963 C   0  0  0  0  0  0  0  0  0  0  0  0
   -0.0429    1.8572   11.9034 H   0  0  0  0  0  0  0  0  0  0  0  0
   -0.8525    0.5853   10.9806 H   0  0  0  0  0  0  0  0  0  0  0  0
   -1.4157    2.2479   10.9059 H   0  0  0  0  0  0  0  0  0  0  0  0
    1.4719    0.4209    7.9767 H   0  0  0  0  0  0  0  0  0  0  0  0
   -4.0210    2.9672    8.4893 H   0  0  0  0  0  0  0  0  0  0  0  0
   -3.3766    4.5670    8.0604 H   0  0  0  0  0  0  0  0  0  0  0  0
   -2.5162    0.6067    4.5865 H   0  0  0  0  0  0  0  0  0  0  0  0
   -2.1552    2.2763    4.2588 H   0  0  0  0  0  0  0  0  0  0  0  0
   -1.2426    0.5946    2.6358 H   0  0  0  0  0  0  0  0  0  0  0  0
    0.6202   -0.8560    3.2829 H   0  0  0  0  0  0  0  0  0  0  0  0
    0.1844   -3.2287    4.5559 H   0  0  0  0  0  0  0  0  0  0  0  0
   -0.1045   -3.2835    8.3036 H   0  0  0  0  0  0  0  0  0  0  0  0
    2.0553   -1.8869    7.7541 H   0  0  0  0  0  0  0  0  0  0  0  0
    2.0490   -1.9799    5.1184 H   0  0  0  0  0  0  0  0  0  0  0  0
    2.6870    0.9659    5.5959 H   0  0  0  0  0  0  0  0  0  0  0  0
    2.5444    0.1977    4.0372 H   0  0  0  0  0  0  0  0  0  0  0  0
    1.0736    2.7156    4.9727 H   0  0  0  0  0  0  0  0  0  0  0  0
    2.2575    2.6050    3.7252 H   0  0  0  0  0  0  0  0  0  0  0  0
    1.4682    0.7926    1.7180 H   0  0  0  0  0  0  0  0  0  0  0  0
    1.5114    2.5421    1.5444 H   0  0  0  0  0  0  0  0  0  0  0  0
    0.0825    1.6585    1.0629 H   0  0  0  0  0  0  0  0  0  0  0  0
   -0.1445    2.7478    3.1139 H   0  0  0  0  0  0  0  0  0  0  0  0
  1  2  1  0
  1 26  1  0
  1 27  1  0
  1 28  1  0
  2  3  1  0
  3  8  2  0
  3  4  1  0
  4  5  2  0
  4 29  1  0
  5 21  1  0
  5  6  1  0
  6  7  2  0
  6 12  1  0
  7 11  1  0
  7  8  1  0
  8  9  1  0
  9 10  1  0
 10 11  1  0
 10 30  1  0
 10 31  1  0
 12 13  1  0
 12 32  1  0
 12 33  1  0
 13 24  1  0
 13 14  1  0
 13 34  1  6
 14 21  1  0
 14 15  1  0
 14 35  1  6
 15 16  1  0
 16 20  1  0
 16 17  1  0
 16 36  1  6
 17 18  1  0
 18 19  2  0
 18 37  1  0
 19 20  1  0
 19 38  1  0
 20 21  1  0
 20 39  1  6
 21 22  1  6
 22 23  1  0
 22 40  1  0
 22 41  1  0
 23 24  1  0
 23 42  1  0
 23 43  1  0
 24 25  1  0
 24 47  1  6
 25 44  1  0
 25 45  1  0
 25 46  1  0
M  CHG  1  24   1
M  END
>  <i_m_ct_stereo_status>  (76) 
1

>  <s_m_source_file>  (76) 
/var/tmp/pbs.5076255.sched01/tmpoa2zap1w/0_chicbso.sdf

>  <i_m_source_file_index>  (76) 
35

>  <i_lp_mmshare_version>  (76) 
48012

>  <i_f3d_flags>  (76) 
0

>  <s_epik_input>  (76) 
W0NIM11PYyhbY0hdMSljKE9bQ0gyXU8yKWMyYyhjMVtDQF0zNDUpW0NIMl1bQ0BASF0oTihbQ0gzXSlbQ0gyXVtDSDJdNSlbQ0BASF0zT1tDQEhdNltDQEBIXTRbQ0hdPVtDSF1PNg==

>  <s_epik_cmdline>  (76) 
J2VwaWtfcHl0aG9uJywgJy1waHQnLCAnMi4wJywgJy1waCcsICc3LjAnLCAnLXRuJywgJzgnLCAnLW1hJywgJzIwMCcsICctaW1hZScsICc8aW5maWxlLm1hZT4nLCAnLW9tYWUnLCAnPG91dGZpbGUubWFlPic=

>  <r_lp_tautomer_probability>  (76) 
1

>  <r_epik_Ionization_Penalty>  (76) 
0.133085

>  <r_epik_Ionization_Penalty_Charging>  (76) 
0.133085

>  <r_epik_Ionization_Penalty_Neutral>  (76) 
0

>  <r_epik_State_Penalty>  (76) 
0.12246

>  <r_epik_Charging_Adjusted_Penalty>  (76) 
0.255545

>  <i_epik_Tot_Q>  (76) 
1

>  <i_epik_Tot_abs_Q>  (76) 
1

>  <s_epik_Chemistry_Notes>  (76) 
This compound contains an acetal/aminal-like group ( X-CH(R)-Y where X, Y are N, S, or O) that may be acid/base labile, releasing an aldehyde.

>  <s_lp_Force_Field>  (76) 
OPLS3e

>  <r_lp_Energy>  (76) 
54.0098

>  <b_lp_Chiralities_Consistent>  (76) 
1

>  <s_lp_Variant>  (76) 
30:0-1

>  <s_i_glide_gridfile>  (76) 
pfpi4k_grid

>  <i_i_glide_lignum>  (76) 
35

>  <i_i_glide_rotatable_bonds>  (76) 
1

>  <r_i_docking_score>  (76) 
-3.00972

>  <r_i_glide_ligand_efficiency>  (76) 
-0.120389

>  <r_i_glide_ligand_efficiency_sa>  (76) 
-0.352019

>  <r_i_glide_ligand_efficiency_ln>  (76) 
-0.713395

>  <r_i_glide_gscore>  (76) 
-3.00972

>  <r_i_glide_lipo>  (76) 
0

>  <r_i_glide_hbond>  (76) 
0

>  <r_i_glide_metal>  (76) 
-0

>  <r_i_glide_rewards>  (76) 
-1.17724

>  <r_i_glide_evdw>  (76) 
-19.5374

>  <r_i_glide_ecoul>  (76) 
-5.33359

>  <r_i_glide_erotb>  (76) 
0

>  <r_i_glide_esite>  (76) 
-0.0555703

>  <r_i_glide_emodel>  (76) 
-27.2636

>  <r_i_glide_energy>  (76) 
-24.871

>  <r_i_glide_einternal>  (76) 
5.736

>  <r_i_glide_intrahb_reward>  (76) 
-0

>  <i_i_glide_confnum>  (76) 
2

>  <i_i_glide_posenum>  (76) 
20

>  <r_i_glide_eff_state_penalty>  (76) 
0

>  <ligand_id>  (76) 
30

>  <original_smiles>  (76) 
COc1cc2c(c3c1OCO3)CC1C3OC4OC=CC4C23CCN1C

>  <smiles>  (76) 
[H]C1=C([H])C2([H])C([H])(O1)OC1([H])C23c2c([H])c(OC([H])([H])[H])c4c(c2C([H])([H])C1([H])[N+]([H])(C([H])([H])[H])C([H])([H])C3([H])[H])OC([H])([H])O4

$$$$
30:0:1
     RDKit          3D

 47 52  0  0  1  0  0  0  0  0999 V2000
   -1.9743    2.6321    8.6592 C   0  0  0  0  0  0  0  0  0  0  0  0
   -2.3209    2.6520    7.2831 O   0  0  0  0  0  0  0  0  0  0  0  0
   -1.4667    3.2791    6.4121 C   0  0  0  0  0  0  0  0  0  0  0  0
   -0.2167    3.8545    6.7712 C   0  0  0  0  0  0  0  0  0  0  0  0
    0.6300    4.4670    5.8063 C   0  0  0  0  0  0  0  0  0  0  0  0
    0.1772    4.5576    4.4545 C   0  0  0  0  0  0  0  0  0  0  0  0
   -1.0612    3.9877    4.1225 C   0  0  0  0  0  0  0  0  0  0  0  0
   -1.8464    3.3714    5.0676 C   0  0  0  0  0  0  0  0  0  0  0  0
   -2.9894    2.9423    4.4775 O   0  0  0  0  0  0  0  0  0  0  0  0
   -2.8117    3.1375    3.1025 C   0  0  0  0  0  0  0  0  0  0  0  0
   -1.6972    3.9579    2.9226 O   0  0  0  0  0  0  0  0  0  0  0  0
    0.9847    5.2757    3.3810 C   0  0  0  0  0  0  0  0  0  0  0  0
    2.0167    6.2522    3.9615 C   0  0  2  0  0  0  0  0  0  0  0  0
    2.8229    5.5489    5.0596 C   0  0  2  0  0  0  0  0  0  0  0  0
    3.4324    4.3199    4.7113 O   0  0  0  0  0  0  0  0  0  0  0  0
    3.8317    3.7170    5.8980 C   0  0  2  0  0  0  0  0  0  0  0  0
    3.5815    2.3422    5.9201 O   0  0  0  0  0  0  0  0  0  0  0  0
    2.9336    2.0269    7.0734 C   0  0  0  0  0  0  0  0  0  0  0  0
    2.5597    3.0998    7.7582 C   0  0  0  0  0  0  0  0  0  0  0  0
    2.9792    4.3399    7.0339 C   0  0  2  0  0  0  0  0  0  0  0  0
    1.9320    5.1792    6.2427 C   0  0  2  0  0  0  0  0  0  0  0  0
    1.5402    6.5373    6.8620 C   0  0  0  0  0  0  0  0  0  0  0  0
    0.7382    7.3931    5.8346 C   0  0  0  0  0  0  0  0  0  0  0  0
    1.3953    7.5152    4.4869 N   0  0  1  0  0  0  0  0  0  0  0  0
    2.3104    8.6779    4.4367 C   0  0  0  0  0  0  0  0  0  0  0  0
   -2.7465    2.1008    9.2136 H   0  0  0  0  0  0  0  0  0  0  0  0
   -1.9166    3.6424    9.0618 H   0  0  0  0  0  0  0  0  0  0  0  0
   -1.0290    2.1181    8.8318 H   0  0  0  0  0  0  0  0  0  0  0  0
    0.1031    3.8498    7.8000 H   0  0  0  0  0  0  0  0  0  0  0  0
   -2.6046    2.1695    2.6400 H   0  0  0  0  0  0  0  0  0  0  0  0
   -3.7128    3.5627    2.6572 H   0  0  0  0  0  0  0  0  0  0  0  0
    1.5209    4.5075    2.8256 H   0  0  0  0  0  0  0  0  0  0  0  0
    0.3375    5.7719    2.6559 H   0  0  0  0  0  0  0  0  0  0  0  0
    2.6851    6.5235    3.1475 H   0  0  0  0  0  0  0  0  0  0  0  0
    3.6302    6.2105    5.3826 H   0  0  0  0  0  0  0  0  0  0  0  0
    4.8967    3.8770    6.0548 H   0  0  0  0  0  0  0  0  0  0  0  0
    2.8780    0.9855    7.3392 H   0  0  0  0  0  0  0  0  0  0  0  0
    2.1243    3.0902    8.7437 H   0  0  0  0  0  0  0  0  0  0  0  0
    3.6299    4.9620    7.6508 H   0  0  0  0  0  0  0  0  0  0  0  0
    0.9477    6.3897    7.7677 H   0  0  0  0  0  0  0  0  0  0  0  0
    2.4360    7.0828    7.1716 H   0  0  0  0  0  0  0  0  0  0  0  0
   -0.2612    6.9662    5.7090 H   0  0  0  0  0  0  0  0  0  0  0  0
    0.5709    8.3862    6.2593 H   0  0  0  0  0  0  0  0  0  0  0  0
    3.1353    8.5548    5.1365 H   0  0  0  0  0  0  0  0  0  0  0  0
    1.7712    9.5875    4.6997 H   0  0  0  0  0  0  0  0  0  0  0  0
    2.7088    8.8169    3.4324 H   0  0  0  0  0  0  0  0  0  0  0  0
    0.6783    7.7691    3.8056 H   0  0  0  0  0  0  0  0  0  0  0  0
  1  2  1  0
  1 26  1  0
  1 27  1  0
  1 28  1  0
  2  3  1  0
  3  8  2  0
  3  4  1  0
  4  5  2  0
  4 29  1  0
  5 21  1  0
  5  6  1  0
  6  7  2  0
  6 12  1  0
  7 11  1  0
  7  8  1  0
  8  9  1  0
  9 10  1  0
 10 11  1  0
 10 30  1  0
 10 31  1  0
 12 13  1  0
 12 32  1  0
 12 33  1  0
 13 24  1  0
 13 14  1  0
 13 34  1  6
 14 21  1  0
 14 15  1  0
 14 35  1  1
 15 16  1  0
 16 20  1  0
 16 17  1  0
 16 36  1  1
 17 18  1  0
 18 19  2  0
 18 37  1  0
 19 20  1  0
 19 38  1  0
 20 21  1  0
 20 39  1  1
 21 22  1  1
 22 23  1  0
 22 40  1  0
 22 41  1  0
 23 24  1  0
 23 42  1  0
 23 43  1  0
 24 25  1  0
 24 47  1  6
 25 44  1  0
 25 45  1  0
 25 46  1  0
M  CHG  1  24   1
M  END
>  <i_m_ct_stereo_status>  (77) 
1

>  <s_m_source_file>  (77) 
/var/tmp/pbs.5076255.sched01/tmpoa2zap1w/0_chicbso.sdf

>  <i_m_source_file_index>  (77) 
35

>  <i_lp_mmshare_version>  (77) 
48012

>  <i_f3d_flags>  (77) 
0

>  <s_epik_input>  (77) 
W0NIM11PYyhbY0hdMSljKE9bQ0gyXU8yKWMyYyhjMVtDQF0zNDUpW0NIMl1bQ0BASF0oTihbQ0gzXSlbQ0gyXVtDSDJdNSlbQ0BASF0zT1tDQEhdNltDQEBIXTRbQ0hdPVtDSF1PNg==

>  <s_epik_cmdline>  (77) 
J2VwaWtfcHl0aG9uJywgJy1waHQnLCAnMi4wJywgJy1waCcsICc3LjAnLCAnLXRuJywgJzgnLCAnLW1hJywgJzIwMCcsICctaW1hZScsICc8aW5maWxlLm1hZT4nLCAnLW9tYWUnLCAnPG91dGZpbGUubWFlPic=

>  <r_lp_tautomer_probability>  (77) 
1

>  <r_epik_Ionization_Penalty>  (77) 
0.133085

>  <r_epik_Ionization_Penalty_Charging>  (77) 
0.133085

>  <r_epik_Ionization_Penalty_Neutral>  (77) 
0

>  <r_epik_State_Penalty>  (77) 
0.12246

>  <r_epik_Charging_Adjusted_Penalty>  (77) 
0.255545

>  <i_epik_Tot_Q>  (77) 
1

>  <i_epik_Tot_abs_Q>  (77) 
1

>  <s_epik_Chemistry_Notes>  (77) 
This compound contains an acetal/aminal-like group ( X-CH(R)-Y where X, Y are N, S, or O) that may be acid/base labile, releasing an aldehyde.

>  <s_lp_Force_Field>  (77) 
OPLS3e

>  <r_lp_Energy>  (77) 
54.0098

>  <b_lp_Chiralities_Consistent>  (77) 
1

>  <s_lp_Variant>  (77) 
30:0-1

>  <s_i_glide_gridfile>  (77) 
pfpi4k_grid

>  <i_i_glide_lignum>  (77) 
35

>  <i_i_glide_rotatable_bonds>  (77) 
1

>  <r_i_docking_score>  (77) 
-2.92806

>  <r_i_glide_ligand_efficiency>  (77) 
-0.117122

>  <r_i_glide_ligand_efficiency_sa>  (77) 
-0.342467

>  <r_i_glide_ligand_efficiency_ln>  (77) 
-0.694037

>  <r_i_glide_gscore>  (77) 
-2.92806

>  <r_i_glide_lipo>  (77) 
-0.0401034

>  <r_i_glide_hbond>  (77) 
-0.2

>  <r_i_glide_metal>  (77) 
-0

>  <r_i_glide_rewards>  (77) 
-1.06103

>  <r_i_glide_evdw>  (77) 
-19.1391

>  <r_i_glide_ecoul>  (77) 
-3.60326

>  <r_i_glide_erotb>  (77) 
0

>  <r_i_glide_esite>  (77) 
-0.129474

>  <r_i_glide_emodel>  (77) 
-28.0438

>  <r_i_glide_energy>  (77) 
-22.7424

>  <r_i_glide_einternal>  (77) 
0.0457828

>  <r_i_glide_intrahb_reward>  (77) 
-0

>  <i_i_glide_confnum>  (77) 
1

>  <i_i_glide_posenum>  (77) 
2

>  <r_i_glide_eff_state_penalty>  (77) 
0

>  <ligand_id>  (77) 
30

>  <original_smiles>  (77) 
COc1cc2c(c3c1OCO3)CC1C3OC4OC=CC4C23CCN1C

>  <smiles>  (77) 
[H]C1=C([H])C2([H])C([H])(O1)OC1([H])C23c2c([H])c(OC([H])([H])[H])c4c(c2C([H])([H])C1([H])[N+]([H])(C([H])([H])[H])C([H])([H])C3([H])[H])OC([H])([H])O4

$$$$
30:0:2
     RDKit          3D

 47 52  0  0  1  0  0  0  0  0999 V2000
    0.8530   -0.7295    8.7327 C   0  0  0  0  0  0  0  0  0  0  0  0
   -0.2508    0.1547    8.6537 O   0  0  0  0  0  0  0  0  0  0  0  0
   -0.2881    1.0526    7.6216 C   0  0  0  0  0  0  0  0  0  0  0  0
    0.6853    1.1411    6.5868 C   0  0  0  0  0  0  0  0  0  0  0  0
    0.5637    2.0720    5.5210 C   0  0  0  0  0  0  0  0  0  0  0  0
   -0.5312    2.9879    5.5323 C   0  0  0  0  0  0  0  0  0  0  0  0
   -1.4797    2.8887    6.5611 C   0  0  0  0  0  0  0  0  0  0  0  0
   -1.3650    1.9493    7.5630 C   0  0  0  0  0  0  0  0  0  0  0  0
   -2.4203    2.0664    8.4135 O   0  0  0  0  0  0  0  0  0  0  0  0
   -3.2577    3.0419    7.8526 C   0  0  0  0  0  0  0  0  0  0  0  0
   -2.5945    3.6347    6.7659 O   0  0  0  0  0  0  0  0  0  0  0  0
   -0.6809    4.0798    4.4852 C   0  0  0  0  0  0  0  0  0  0  0  0
    0.6303    4.3907    3.7520 C   0  0  2  0  0  0  0  0  0  0  0  0
    1.2654    3.0762    3.2764 C   0  0  2  0  0  0  0  0  0  0  0  0
    0.4385    2.1914    2.5446 O   0  0  0  0  0  0  0  0  0  0  0  0
    1.1076    0.9823    2.4662 C   0  0  2  0  0  0  0  0  0  0  0  0
    0.2448   -0.1023    2.6262 O   0  0  0  0  0  0  0  0  0  0  0  0
    0.7376   -0.9250    3.5878 C   0  0  0  0  0  0  0  0  0  0  0  0
    1.7799   -0.4061    4.2218 C   0  0  0  0  0  0  0  0  0  0  0  0
    2.0902    0.9444    3.6654 C   0  0  2  0  0  0  0  0  0  0  0  0
    1.6886    2.2180    4.4674 C   0  0  2  0  0  0  0  0  0  0  0  0
    2.8444    3.0019    5.1281 C   0  0  0  0  0  0  0  0  0  0  0  0
    2.3472    4.3874    5.6275 C   0  0  0  0  0  0  0  0  0  0  0  0
    1.6030    5.1742    4.5901 N   0  0  1  0  0  0  0  0  0  0  0  0
    2.5094    6.0235    3.7784 C   0  0  0  0  0  0  0  0  0  0  0  0
    0.7275   -1.3714    9.6028 H   0  0  0  0  0  0  0  0  0  0  0  0
    1.7859   -0.1815    8.8547 H   0  0  0  0  0  0  0  0  0  0  0  0
    0.9180   -1.3704    7.8541 H   0  0  0  0  0  0  0  0  0  0  0  0
    1.5471    0.4978    6.6061 H   0  0  0  0  0  0  0  0  0  0  0  0
   -4.1491    2.5467    7.4677 H   0  0  0  0  0  0  0  0  0  0  0  0
   -3.5647    3.7696    8.6078 H   0  0  0  0  0  0  0  0  0  0  0  0
   -1.3946    3.7149    3.7492 H   0  0  0  0  0  0  0  0  0  0  0  0
   -1.1187    4.9777    4.9193 H   0  0  0  0  0  0  0  0  0  0  0  0
    0.3678    5.0032    2.8858 H   0  0  0  0  0  0  0  0  0  0  0  0
    2.1280    3.3091    2.6471 H   0  0  0  0  0  0  0  0  0  0  0  0
    1.6116    0.8942    1.5072 H   0  0  0  0  0  0  0  0  0  0  0  0
    0.3088   -1.9091    3.6589 H   0  0  0  0  0  0  0  0  0  0  0  0
    2.3892   -0.9216    4.9433 H   0  0  0  0  0  0  0  0  0  0  0  0
    3.1108    1.0013    3.2778 H   0  0  0  0  0  0  0  0  0  0  0  0
    3.2673    2.4369    5.9636 H   0  0  0  0  0  0  0  0  0  0  0  0
    3.6553    3.1439    4.4044 H   0  0  0  0  0  0  0  0  0  0  0  0
    1.7031    4.2594    6.5039 H   0  0  0  0  0  0  0  0  0  0  0  0
    3.2007    4.9641    5.9837 H   0  0  0  0  0  0  0  0  0  0  0  0
    3.1960    5.4157    3.1940 H   0  0  0  0  0  0  0  0  0  0  0  0
    3.0937    6.6773    4.4246 H   0  0  0  0  0  0  0  0  0  0  0  0
    1.9348    6.6590    3.1065 H   0  0  0  0  0  0  0  0  0  0  0  0
    1.0430    5.8355    5.1074 H   0  0  0  0  0  0  0  0  0  0  0  0
  1  2  1  0
  1 26  1  0
  1 27  1  0
  1 28  1  0
  2  3  1  0
  3  8  2  0
  3  4  1  0
  4  5  2  0
  4 29  1  0
  5 21  1  0
  5  6  1  0
  6  7  2  0
  6 12  1  0
  7 11  1  0
  7  8  1  0
  8  9  1  0
  9 10  1  0
 10 11  1  0
 10 30  1  0
 10 31  1  0
 12 13  1  0
 12 32  1  0
 12 33  1  0
 13 24  1  0
 13 14  1  0
 13 34  1  6
 14 21  1  0
 14 15  1  0
 14 35  1  6
 15 16  1  0
 16 20  1  0
 16 17  1  0
 16 36  1  6
 17 18  1  0
 18 19  2  0
 18 37  1  0
 19 20  1  0
 19 38  1  0
 20 21  1  0
 20 39  1  6
 21 22  1  1
 22 23  1  0
 22 40  1  0
 22 41  1  0
 23 24  1  0
 23 42  1  0
 23 43  1  0
 24 25  1  0
 24 47  1  1
 25 44  1  0
 25 45  1  0
 25 46  1  0
M  CHG  1  24   1
M  END
>  <i_m_ct_stereo_status>  (78) 
1

>  <s_m_source_file>  (78) 
/var/tmp/pbs.5076255.sched01/tmpoa2zap1w/0_chicbso.sdf

>  <i_m_source_file_index>  (78) 
35

>  <i_lp_mmshare_version>  (78) 
48012

>  <i_f3d_flags>  (78) 
0

>  <s_epik_input>  (78) 
W0NIM11PYyhbY0hdMSljKE9bQ0gyXU8yKWMyYyhjMVtDQF0zNDUpW0NIMl1bQ0BASF0oTihbQ0gzXSlbQ0gyXVtDSDJdNSlbQ0BASF0zT1tDQEhdNltDQEBIXTRbQ0hdPVtDSF1PNg==

>  <s_epik_cmdline>  (78) 
J2VwaWtfcHl0aG9uJywgJy1waHQnLCAnMi4wJywgJy1waCcsICc3LjAnLCAnLXRuJywgJzgnLCAnLW1hJywgJzIwMCcsICctaW1hZScsICc8aW5maWxlLm1hZT4nLCAnLW9tYWUnLCAnPG91dGZpbGUubWFlPic=

>  <r_lp_tautomer_probability>  (78) 
1

>  <r_epik_Ionization_Penalty>  (78) 
0.133085

>  <r_epik_Ionization_Penalty_Charging>  (78) 
0.133085

>  <r_epik_Ionization_Penalty_Neutral>  (78) 
0

>  <r_epik_State_Penalty>  (78) 
0.12246

>  <r_epik_Charging_Adjusted_Penalty>  (78) 
0.255545

>  <i_epik_Tot_Q>  (78) 
1

>  <i_epik_Tot_abs_Q>  (78) 
1

>  <s_epik_Chemistry_Notes>  (78) 
This compound contains an acetal/aminal-like group ( X-CH(R)-Y where X, Y are N, S, or O) that may be acid/base labile, releasing an aldehyde.

>  <s_lp_Force_Field>  (78) 
OPLS3e

>  <r_lp_Energy>  (78) 
54.0098

>  <b_lp_Chiralities_Consistent>  (78) 
1

>  <s_lp_Variant>  (78) 
30:0-1

>  <s_i_glide_gridfile>  (78) 
pfpi4k_grid

>  <i_i_glide_lignum>  (78) 
35

>  <i_i_glide_rotatable_bonds>  (78) 
1

>  <r_i_docking_score>  (78) 
-2.57171

>  <r_i_glide_ligand_efficiency>  (78) 
-0.102868

>  <r_i_glide_ligand_efficiency_sa>  (78) 
-0.300789

>  <r_i_glide_ligand_efficiency_ln>  (78) 
-0.609573

>  <r_i_glide_gscore>  (78) 
-2.57171

>  <r_i_glide_lipo>  (78) 
-0.0387606

>  <r_i_glide_hbond>  (78) 
0

>  <r_i_glide_metal>  (78) 
-0

>  <r_i_glide_rewards>  (78) 
-1.19027

>  <r_i_glide_evdw>  (78) 
-17.8159

>  <r_i_glide_ecoul>  (78) 
-2.63986

>  <r_i_glide_erotb>  (78) 
0

>  <r_i_glide_esite>  (78) 
-0.0559036

>  <r_i_glide_emodel>  (78) 
-25.1554

>  <r_i_glide_energy>  (78) 
-20.4558

>  <r_i_glide_einternal>  (78) 
0.0154407

>  <r_i_glide_intrahb_reward>  (78) 
-0

>  <i_i_glide_confnum>  (78) 
1

>  <i_i_glide_posenum>  (78) 
24

>  <r_i_glide_eff_state_penalty>  (78) 
0

>  <ligand_id>  (78) 
30

>  <original_smiles>  (78) 
COc1cc2c(c3c1OCO3)CC1C3OC4OC=CC4C23CCN1C

>  <smiles>  (78) 
[H]C1=C([H])C2([H])C([H])(O1)OC1([H])C23c2c([H])c(OC([H])([H])[H])c4c(c2C([H])([H])C1([H])[N+]([H])(C([H])([H])[H])C([H])([H])C3([H])[H])OC([H])([H])O4

$$$$
30:1:0
     RDKit          3D

 46 51  0  0  1  0  0  0  0  0999 V2000
    3.8512   -0.4933    5.9721 C   0  0  0  0  0  0  0  0  0  0  0  0
    3.3243   -1.6120    5.2683 O   0  0  0  0  0  0  0  0  0  0  0  0
    3.4674   -1.5490    3.9078 C   0  0  0  0  0  0  0  0  0  0  0  0
    3.9866   -2.6729    3.2289 C   0  0  0  0  0  0  0  0  0  0  0  0
    4.1651   -2.6897    1.8213 C   0  0  0  0  0  0  0  0  0  0  0  0
    3.8490   -1.5107    1.0805 C   0  0  0  0  0  0  0  0  0  0  0  0
    3.2855   -0.4214    1.7660 C   0  0  0  0  0  0  0  0  0  0  0  0
    3.0756   -0.4354    3.1301 C   0  0  0  0  0  0  0  0  0  0  0  0
    2.4812    0.7238    3.5272 O   0  0  0  0  0  0  0  0  0  0  0  0
    2.2410    1.4388    2.3377 C   0  0  0  0  0  0  0  0  0  0  0  0
    2.8558    0.7771    1.2869 O   0  0  0  0  0  0  0  0  0  0  0  0
    4.0990   -1.3940   -0.4173 C   0  0  0  0  0  0  0  0  0  0  0  0
    5.0494   -2.4684   -0.9651 C   0  0  2  0  0  0  0  0  0  0  0  0
    4.6372   -3.8458   -0.4177 C   0  0  2  0  0  0  0  0  0  0  0  0
    3.2833   -4.2204   -0.5780 O   0  0  0  0  0  0  0  0  0  0  0  0
    3.0954   -5.3431    0.2149 C   0  0  2  0  0  0  0  0  0  0  0  0
    1.8495   -5.3746    0.8474 O   0  0  0  0  0  0  0  0  0  0  0  0
    2.0467   -5.5787    2.1749 C   0  0  0  0  0  0  0  0  0  0  0  0
    3.3220   -5.5317    2.5259 C   0  0  0  0  0  0  0  0  0  0  0  0
    4.1740   -5.2925    1.3191 C   0  0  2  0  0  0  0  0  0  0  0  0
    4.8243   -3.8988    1.0927 C   0  0  2  0  0  0  0  0  0  0  0  0
    6.3496   -3.8035    1.2933 C   0  0  0  0  0  0  0  0  0  0  0  0
    6.8907   -2.4731    0.6904 C   0  0  0  0  0  0  0  0  0  0  0  0
    6.4796   -2.1797   -0.7022 N   0  0  0  0  0  0  0  0  0  0  0  0
    7.3791   -2.7828   -1.6909 C   0  0  0  0  0  0  0  0  0  0  0  0
    3.5811   -0.5743    7.0305 H   0  0  0  0  0  0  0  0  0  0  0  0
    3.4917    0.4803    5.6274 H   0  0  0  0  0  0  0  0  0  0  0  0
    4.9425   -0.5048    5.8811 H   0  0  0  0  0  0  0  0  0  0  0  0
    4.2783   -3.5210    3.8369 H   0  0  0  0  0  0  0  0  0  0  0  0
    1.1622    1.4598    2.1470 H   0  0  0  0  0  0  0  0  0  0  0  0
    2.5995    2.4713    2.4105 H   0  0  0  0  0  0  0  0  0  0  0  0
    3.1375   -1.5101   -0.9133 H   0  0  0  0  0  0  0  0  0  0  0  0
    4.4657   -0.4024   -0.6787 H   0  0  0  0  0  0  0  0  0  0  0  0
    4.9028   -2.4670   -2.0477 H   0  0  0  0  0  0  0  0  0  0  0  0
    5.2398   -4.6218   -0.8995 H   0  0  0  0  0  0  0  0  0  0  0  0
    3.1988   -6.2593   -0.3404 H   0  0  0  0  0  0  0  0  0  0  0  0
    1.1783   -5.8084    2.7767 H   0  0  0  0  0  0  0  0  0  0  0  0
    3.7063   -5.7781    3.4974 H   0  0  0  0  0  0  0  0  0  0  0  0
    4.8693   -6.1185    1.1488 H   0  0  0  0  0  0  0  0  0  0  0  0
    6.6019   -3.8825    2.3520 H   0  0  0  0  0  0  0  0  0  0  0  0
    6.8413   -4.6461    0.8072 H   0  0  0  0  0  0  0  0  0  0  0  0
    6.5790   -1.6419    1.3296 H   0  0  0  0  0  0  0  0  0  0  0  0
    7.9777   -2.4894    0.7545 H   0  0  0  0  0  0  0  0  0  0  0  0
    8.4190   -2.4678   -1.5416 H   0  0  0  0  0  0  0  0  0  0  0  0
    7.0956   -2.4906   -2.7068 H   0  0  0  0  0  0  0  0  0  0  0  0
    7.3517   -3.8538   -1.6495 H   0  0  0  0  0  0  0  0  0  0  0  0
  1  2  1  0
  1 26  1  0
  1 27  1  0
  1 28  1  0
  2  3  1  0
  3  8  2  0
  3  4  1  0
  4  5  2  0
  4 29  1  0
  5 21  1  0
  5  6  1  0
  6  7  2  0
  6 12  1  0
  7 11  1  0
  7  8  1  0
  8  9  1  0
  9 10  1  0
 10 11  1  0
 10 30  1  0
 10 31  1  0
 12 13  1  0
 12 32  1  0
 12 33  1  0
 13 24  1  0
 13 14  1  0
 13 34  1  6
 14 21  1  0
 14 15  1  0
 14 35  1  6
 15 16  1  0
 16 20  1  0
 16 17  1  0
 16 36  1  6
 17 18  1  0
 18 19  2  0
 18 37  1  0
 19 20  1  0
 19 38  1  0
 20 21  1  0
 20 39  1  6
 21 22  1  6
 22 23  1  0
 22 40  1  0
 22 41  1  0
 23 24  1  0
 23 42  1  0
 23 43  1  0
 24 25  1  0
 25 44  1  0
 25 45  1  0
 25 46  1  0
M  END
>  <i_m_ct_stereo_status>  (79) 
1

>  <s_m_source_file>  (79) 
/var/tmp/pbs.5076255.sched01/tmpoa2zap1w/0_chicbso.sdf

>  <i_m_source_file_index>  (79) 
36

>  <i_lp_mmshare_version>  (79) 
48012

>  <i_f3d_flags>  (79) 
0

>  <s_epik_input>  (79) 
W0NIM11PYyhbY0hdMSljKE9bQ0gyXU8yKWMyYyhjMVtDQF0zNDUpW0NIMl1bQ0BASF0oTihbQ0gzXSlbQ0gyXVtDSDJdNSlbQ0BASF0zT1tDQEhdNltDQEBIXTRbQ0hdPVtDSF1PNg==

>  <s_epik_cmdline>  (79) 
J2VwaWtfcHl0aG9uJywgJy1waHQnLCAnMi4wJywgJy1waCcsICc3LjAnLCAnLXRuJywgJzgnLCAnLW1hJywgJzIwMCcsICctaW1hZScsICc8aW5maWxlLm1hZT4nLCAnLW9tYWUnLCAnPG91dGZpbGUubWFlPic=

>  <r_lp_tautomer_probability>  (79) 
1

>  <r_epik_Ionization_Penalty>  (79) 
0.950078

>  <r_epik_Ionization_Penalty_Charging>  (79) 
0

>  <r_epik_Ionization_Penalty_Neutral>  (79) 
0.950078

>  <r_epik_State_Penalty>  (79) 
0.994257

>  <r_epik_Charging_Adjusted_Penalty>  (79) 
0.994257

>  <i_epik_Tot_Q>  (79) 
0

>  <i_epik_Tot_abs_Q>  (79) 
0

>  <s_epik_Chemistry_Notes>  (79) 
This compound contains an acetal/aminal-like group ( X-CH(R)-Y where X, Y are N, S, or O) that may be acid/base labile, releasing an aldehyde.

>  <s_lp_Force_Field>  (79) 
OPLS3e

>  <r_lp_Energy>  (79) 
49.8718

>  <b_lp_Chiralities_Consistent>  (79) 
1

>  <s_lp_Variant>  (79) 
30:0-2

>  <s_i_glide_gridfile>  (79) 
pfpi4k_grid

>  <i_i_glide_lignum>  (79) 
36

>  <i_i_glide_rotatable_bonds>  (79) 
1

>  <r_i_docking_score>  (79) 
-2.91826

>  <r_i_glide_ligand_efficiency>  (79) 
-0.11673

>  <r_i_glide_ligand_efficiency_sa>  (79) 
-0.341321

>  <r_i_glide_ligand_efficiency_ln>  (79) 
-0.691714

>  <r_i_glide_gscore>  (79) 
-2.91826

>  <r_i_glide_lipo>  (79) 
-0.259001

>  <r_i_glide_hbond>  (79) 
-0.167346

>  <r_i_glide_metal>  (79) 
-0

>  <r_i_glide_rewards>  (79) 
-1.13846

>  <r_i_glide_evdw>  (79) 
-19.3874

>  <r_i_glide_ecoul>  (79) 
-2.32422

>  <r_i_glide_erotb>  (79) 
0

>  <r_i_glide_esite>  (79) 
-0.0354496

>  <r_i_glide_emodel>  (79) 
-22.8106

>  <r_i_glide_energy>  (79) 
-21.7116

>  <r_i_glide_einternal>  (79) 
5.80538

>  <r_i_glide_intrahb_reward>  (79) 
-0

>  <i_i_glide_confnum>  (79) 
1

>  <i_i_glide_posenum>  (79) 
29

>  <r_i_glide_eff_state_penalty>  (79) 
0

>  <ligand_id>  (79) 
30

>  <original_smiles>  (79) 
COc1cc2c(c3c1OCO3)CC1C3OC4OC=CC4C23CCN1C

>  <smiles>  (79) 
[H]C1=C([H])C2([H])C([H])(O1)OC1([H])C3([H])N(C([H])([H])[H])C([H])([H])C([H])([H])C12c1c([H])c(OC([H])([H])[H])c2c(c1C3([H])[H])OC([H])([H])O2

$$$$
30:1:1
     RDKit          3D

 46 51  0  0  1  0  0  0  0  0999 V2000
    0.9691   -1.1943    8.4457 C   0  0  0  0  0  0  0  0  0  0  0  0
   -0.1067   -0.2805    8.3012 O   0  0  0  0  0  0  0  0  0  0  0  0
   -0.0356    0.6416    7.2858 C   0  0  0  0  0  0  0  0  0  0  0  0
    1.0075    0.7155    6.3214 C   0  0  0  0  0  0  0  0  0  0  0  0
    0.9920    1.6754    5.2738 C   0  0  0  0  0  0  0  0  0  0  0  0
   -0.0556    2.6393    5.2454 C   0  0  0  0  0  0  0  0  0  0  0  0
   -1.0817    2.5458    6.1990 C   0  0  0  0  0  0  0  0  0  0  0  0
   -1.0745    1.5790    7.1783 C   0  0  0  0  0  0  0  0  0  0  0  0
   -2.1783    1.7091    7.9554 O   0  0  0  0  0  0  0  0  0  0  0  0
   -2.9402    2.7278    7.3663 C   0  0  0  0  0  0  0  0  0  0  0  0
   -2.1919    3.3212    6.3411 O   0  0  0  0  0  0  0  0  0  0  0  0
   -0.0897    3.7714    4.2304 C   0  0  0  0  0  0  0  0  0  0  0  0
    1.2531    3.9930    3.5217 C   0  0  2  0  0  0  0  0  0  0  0  0
    1.8205    2.6422    3.0549 C   0  0  2  0  0  0  0  0  0  0  0  0
    0.9651    1.8160    2.2902 O   0  0  0  0  0  0  0  0  0  0  0  0
    1.5600    0.5655    2.2372 C   0  0  2  0  0  0  0  0  0  0  0  0
    0.6409   -0.4792    2.3654 O   0  0  0  0  0  0  0  0  0  0  0  0
    1.0781   -1.3359    3.3239 C   0  0  0  0  0  0  0  0  0  0  0  0
    2.1284   -0.8775    3.9916 C   0  0  0  0  0  0  0  0  0  0  0  0
    2.5126    0.4707    3.4632 C   0  0  2  0  0  0  0  0  0  0  0  0
    2.1632    1.7656    4.2566 C   0  0  2  0  0  0  0  0  0  0  0  0
    3.3373    2.4952    4.9422 C   0  0  0  0  0  0  0  0  0  0  0  0
    2.8997    3.9216    5.3779 C   0  0  0  0  0  0  0  0  0  0  0  0
    2.2439    4.7341    4.3315 N   0  0  0  0  0  0  0  0  0  0  0  0
    3.1853    5.4833    3.5143 C   0  0  0  0  0  0  0  0  0  0  0  0
    0.7687   -1.8486    9.2919 H   0  0  0  0  0  0  0  0  0  0  0  0
    1.9058   -0.6741    8.6431 H   0  0  0  0  0  0  0  0  0  0  0  0
    1.0813   -1.8211    7.5628 H   0  0  0  0  0  0  0  0  0  0  0  0
    1.8384    0.0300    6.3777 H   0  0  0  0  0  0  0  0  0  0  0  0
   -3.8104    2.2588    6.9158 H   0  0  0  0  0  0  0  0  0  0  0  0
   -3.2743    3.4534    8.1151 H   0  0  0  0  0  0  0  0  0  0  0  0
   -0.8361    3.5157    3.4783 H   0  0  0  0  0  0  0  0  0  0  0  0
   -0.4224    4.6984    4.6959 H   0  0  0  0  0  0  0  0  0  0  0  0
    1.0265    4.6082    2.6502 H   0  0  0  0  0  0  0  0  0  0  0  0
    2.7077    2.8206    2.4456 H   0  0  0  0  0  0  0  0  0  0  0  0
    2.0884    0.4511    1.2926 H   0  0  0  0  0  0  0  0  0  0  0  0
    0.5934   -2.2999    3.3764 H   0  0  0  0  0  0  0  0  0  0  0  0
    2.6939   -1.4247    4.7235 H   0  0  0  0  0  0  0  0  0  0  0  0
    3.5384    0.4754    3.1000 H   0  0  0  0  0  0  0  0  0  0  0  0
    3.6981    1.9353    5.8071 H   0  0  0  0  0  0  0  0  0  0  0  0
    4.1801    2.5706    4.2565 H   0  0  0  0  0  0  0  0  0  0  0  0
    2.2245    3.8462    6.2354 H   0  0  0  0  0  0  0  0  0  0  0  0
    3.7713    4.4581    5.7550 H   0  0  0  0  0  0  0  0  0  0  0  0
    3.8264    6.1144    4.1279 H   0  0  0  0  0  0  0  0  0  0  0  0
    2.6584    6.1430    2.8298 H   0  0  0  0  0  0  0  0  0  0  0  0
    3.8108    4.8277    2.9107 H   0  0  0  0  0  0  0  0  0  0  0  0
  1  2  1  0
  1 26  1  0
  1 27  1  0
  1 28  1  0
  2  3  1  0
  3  8  2  0
  3  4  1  0
  4  5  2  0
  4 29  1  0
  5 21  1  0
  5  6  1  0
  6  7  2  0
  6 12  1  0
  7 11  1  0
  7  8  1  0
  8  9  1  0
  9 10  1  0
 10 11  1  0
 10 30  1  0
 10 31  1  0
 12 13  1  0
 12 32  1  0
 12 33  1  0
 13 24  1  0
 13 14  1  0
 13 34  1  6
 14 21  1  0
 14 15  1  0
 14 35  1  6
 15 16  1  0
 16 20  1  0
 16 17  1  0
 16 36  1  6
 17 18  1  0
 18 19  2  0
 18 37  1  0
 19 20  1  0
 19 38  1  0
 20 21  1  0
 20 39  1  6
 21 22  1  1
 22 23  1  0
 22 40  1  0
 22 41  1  0
 23 24  1  0
 23 42  1  0
 23 43  1  0
 24 25  1  0
 25 44  1  0
 25 45  1  0
 25 46  1  0
M  END
>  <i_m_ct_stereo_status>  (80) 
1

>  <s_m_source_file>  (80) 
/var/tmp/pbs.5076255.sched01/tmpoa2zap1w/0_chicbso.sdf

>  <i_m_source_file_index>  (80) 
36

>  <i_lp_mmshare_version>  (80) 
48012

>  <i_f3d_flags>  (80) 
0

>  <s_epik_input>  (80) 
W0NIM11PYyhbY0hdMSljKE9bQ0gyXU8yKWMyYyhjMVtDQF0zNDUpW0NIMl1bQ0BASF0oTihbQ0gzXSlbQ0gyXVtDSDJdNSlbQ0BASF0zT1tDQEhdNltDQEBIXTRbQ0hdPVtDSF1PNg==

>  <s_epik_cmdline>  (80) 
J2VwaWtfcHl0aG9uJywgJy1waHQnLCAnMi4wJywgJy1waCcsICc3LjAnLCAnLXRuJywgJzgnLCAnLW1hJywgJzIwMCcsICctaW1hZScsICc8aW5maWxlLm1hZT4nLCAnLW9tYWUnLCAnPG91dGZpbGUubWFlPic=

>  <r_lp_tautomer_probability>  (80) 
1

>  <r_epik_Ionization_Penalty>  (80) 
0.950078

>  <r_epik_Ionization_Penalty_Charging>  (80) 
0

>  <r_epik_Ionization_Penalty_Neutral>  (80) 
0.950078

>  <r_epik_State_Penalty>  (80) 
0.994257

>  <r_epik_Charging_Adjusted_Penalty>  (80) 
0.994257

>  <i_epik_Tot_Q>  (80) 
0

>  <i_epik_Tot_abs_Q>  (80) 
0

>  <s_epik_Chemistry_Notes>  (80) 
This compound contains an acetal/aminal-like group ( X-CH(R)-Y where X, Y are N, S, or O) that may be acid/base labile, releasing an aldehyde.

>  <s_lp_Force_Field>  (80) 
OPLS3e

>  <r_lp_Energy>  (80) 
49.8718

>  <b_lp_Chiralities_Consistent>  (80) 
1

>  <s_lp_Variant>  (80) 
30:0-2

>  <s_i_glide_gridfile>  (80) 
pfpi4k_grid

>  <i_i_glide_lignum>  (80) 
36

>  <i_i_glide_rotatable_bonds>  (80) 
1

>  <r_i_docking_score>  (80) 
-2.70805

>  <r_i_glide_ligand_efficiency>  (80) 
-0.108322

>  <r_i_glide_ligand_efficiency_sa>  (80) 
-0.316735

>  <r_i_glide_ligand_efficiency_ln>  (80) 
-0.641888

>  <r_i_glide_gscore>  (80) 
-2.70805

>  <r_i_glide_lipo>  (80) 
-0.114255

>  <r_i_glide_hbond>  (80) 
-0.0288582

>  <r_i_glide_metal>  (80) 
-0

>  <r_i_glide_rewards>  (80) 
-1.33543

>  <r_i_glide_evdw>  (80) 
-18.3593

>  <r_i_glide_ecoul>  (80) 
-1.84199

>  <r_i_glide_erotb>  (80) 
0

>  <r_i_glide_esite>  (80) 
-0.0352379

>  <r_i_glide_emodel>  (80) 
-24.0036

>  <r_i_glide_energy>  (80) 
-20.2013

>  <r_i_glide_einternal>  (80) 
0.0209589

>  <r_i_glide_intrahb_reward>  (80) 
-0

>  <i_i_glide_confnum>  (80) 
2

>  <i_i_glide_posenum>  (80) 
8

>  <r_i_glide_eff_state_penalty>  (80) 
0

>  <ligand_id>  (80) 
30

>  <original_smiles>  (80) 
COc1cc2c(c3c1OCO3)CC1C3OC4OC=CC4C23CCN1C

>  <smiles>  (80) 
[H]C1=C([H])C2([H])C([H])(O1)OC1([H])C3([H])N(C([H])([H])[H])C([H])([H])C([H])([H])C12c1c([H])c(OC([H])([H])[H])c2c(c1C3([H])[H])OC([H])([H])O2

$$$$
30:1:2
     RDKit          3D

 46 51  0  0  1  0  0  0  0  0999 V2000
    1.0536    6.5611    4.6354 C   0  0  0  0  0  0  0  0  0  0  0  0
   -0.1782    6.0122    4.2075 O   0  0  0  0  0  0  0  0  0  0  0  0
   -0.2392    4.6451    4.0459 C   0  0  0  0  0  0  0  0  0  0  0  0
    0.7598    3.7262    4.4642 C   0  0  0  0  0  0  0  0  0  0  0  0
    0.6040    2.3271    4.3023 C   0  0  0  0  0  0  0  0  0  0  0  0
   -0.5506    1.8410    3.6158 C   0  0  0  0  0  0  0  0  0  0  0  0
   -1.5210    2.7669    3.2132 C   0  0  0  0  0  0  0  0  0  0  0  0
   -1.3882    4.1143    3.4249 C   0  0  0  0  0  0  0  0  0  0  0  0
   -2.4758    4.7746    2.9229 O   0  0  0  0  0  0  0  0  0  0  0  0
   -3.3574    3.7618    2.5170 C   0  0  0  0  0  0  0  0  0  0  0  0
   -2.7021    2.5480    2.5633 O   0  0  0  0  0  0  0  0  0  0  0  0
   -0.7297    0.3742    3.2766 C   0  0  0  0  0  0  0  0  0  0  0  0
    0.5488   -0.4650    3.4212 C   0  0  2  0  0  0  0  0  0  0  0  0
    1.2435   -0.1103    4.7414 C   0  0  2  0  0  0  0  0  0  0  0  0
    0.4606   -0.2128    5.9149 O   0  0  0  0  0  0  0  0  0  0  0  0
    1.2004    0.4059    6.9147 C   0  0  2  0  0  0  0  0  0  0  0  0
    0.4092    1.1978    7.7617 O   0  0  0  0  0  0  0  0  0  0  0  0
    0.9514    2.4386    7.8581 C   0  0  0  0  0  0  0  0  0  0  0  0
    1.9463    2.6320    7.0015 C   0  0  0  0  0  0  0  0  0  0  0  0
    2.1860    1.3780    6.2114 C   0  0  2  0  0  0  0  0  0  0  0  0
    1.7263    1.3353    4.7277 C   0  0  2  0  0  0  0  0  0  0  0  0
    2.8238    1.3763    3.6431 C   0  0  0  0  0  0  0  0  0  0  0  0
    2.2368    0.9378    2.2705 C   0  0  0  0  0  0  0  0  0  0  0  0
    1.4806   -0.3341    2.2891 N   0  0  0  0  0  0  0  0  0  0  0  0
    2.3154   -1.5078    2.0676 C   0  0  0  0  0  0  0  0  0  0  0  0
    0.9394    7.6438    4.6983 H   0  0  0  0  0  0  0  0  0  0  0  0
    1.8468    6.3449    3.9171 H   0  0  0  0  0  0  0  0  0  0  0  0
    1.3381    6.1982    5.6250 H   0  0  0  0  0  0  0  0  0  0  0  0
    1.6733    4.0903    4.9208 H   0  0  0  0  0  0  0  0  0  0  0  0
   -4.1766    3.7089    3.2308 H   0  0  0  0  0  0  0  0  0  0  0  0
   -3.7961    3.9595    1.5403 H   0  0  0  0  0  0  0  0  0  0  0  0
   -1.4787   -0.0192    3.9618 H   0  0  0  0  0  0  0  0  0  0  0  0
   -1.1457    0.2685    2.2747 H   0  0  0  0  0  0  0  0  0  0  0  0
    0.2135   -1.5014    3.4540 H   0  0  0  0  0  0  0  0  0  0  0  0
    2.0934   -0.7876    4.8791 H   0  0  0  0  0  0  0  0  0  0  0  0
    1.7195   -0.3289    7.5114 H   0  0  0  0  0  0  0  0  0  0  0  0
    0.5850    3.0876    8.6488 H   0  0  0  0  0  0  0  0  0  0  0  0
    2.5975    3.4901    6.9977 H   0  0  0  0  0  0  0  0  0  0  0  0
    3.2091    1.0014    6.3446 H   0  0  0  0  0  0  0  0  0  0  0  0
    3.2765    2.3675    3.5683 H   0  0  0  0  0  0  0  0  0  0  0  0
    3.6353    0.6960    3.9171 H   0  0  0  0  0  0  0  0  0  0  0  0
    1.5994    1.7397    1.8831 H   0  0  0  0  0  0  0  0  0  0  0  0
    3.0560    0.8624    1.5584 H   0  0  0  0  0  0  0  0  0  0  0  0
    2.8788   -1.4115    1.1439 H   0  0  0  0  0  0  0  0  0  0  0  0
    1.6965   -2.3949    1.9630 H   0  0  0  0  0  0  0  0  0  0  0  0
    3.0105   -1.6710    2.8838 H   0  0  0  0  0  0  0  0  0  0  0  0
  1  2  1  0
  1 26  1  0
  1 27  1  0
  1 28  1  0
  2  3  1  0
  3  8  2  0
  3  4  1  0
  4  5  2  0
  4 29  1  0
  5 21  1  0
  5  6  1  0
  6  7  2  0
  6 12  1  0
  7 11  1  0
  7  8  1  0
  8  9  1  0
  9 10  1  0
 10 11  1  0
 10 30  1  0
 10 31  1  0
 12 13  1  0
 12 32  1  0
 12 33  1  0
 13 24  1  0
 13 14  1  0
 13 34  1  1
 14 21  1  0
 14 15  1  0
 14 35  1  1
 15 16  1  0
 16 20  1  0
 16 17  1  0
 16 36  1  1
 17 18  1  0
 18 19  2  0
 18 37  1  0
 19 20  1  0
 19 38  1  0
 20 21  1  0
 20 39  1  6
 21 22  1  6
 22 23  1  0
 22 40  1  0
 22 41  1  0
 23 24  1  0
 23 42  1  0
 23 43  1  0
 24 25  1  0
 25 44  1  0
 25 45  1  0
 25 46  1  0
M  END
>  <i_m_ct_stereo_status>  (81) 
1

>  <s_m_source_file>  (81) 
/var/tmp/pbs.5076255.sched01/tmpoa2zap1w/0_chicbso.sdf

>  <i_m_source_file_index>  (81) 
36

>  <i_lp_mmshare_version>  (81) 
48012

>  <i_f3d_flags>  (81) 
0

>  <s_epik_input>  (81) 
W0NIM11PYyhbY0hdMSljKE9bQ0gyXU8yKWMyYyhjMVtDQF0zNDUpW0NIMl1bQ0BASF0oTihbQ0gzXSlbQ0gyXVtDSDJdNSlbQ0BASF0zT1tDQEhdNltDQEBIXTRbQ0hdPVtDSF1PNg==

>  <s_epik_cmdline>  (81) 
J2VwaWtfcHl0aG9uJywgJy1waHQnLCAnMi4wJywgJy1waCcsICc3LjAnLCAnLXRuJywgJzgnLCAnLW1hJywgJzIwMCcsICctaW1hZScsICc8aW5maWxlLm1hZT4nLCAnLW9tYWUnLCAnPG91dGZpbGUubWFlPic=

>  <r_lp_tautomer_probability>  (81) 
1

>  <r_epik_Ionization_Penalty>  (81) 
0.950078

>  <r_epik_Ionization_Penalty_Charging>  (81) 
0

>  <r_epik_Ionization_Penalty_Neutral>  (81) 
0.950078

>  <r_epik_State_Penalty>  (81) 
0.994257

>  <r_epik_Charging_Adjusted_Penalty>  (81) 
0.994257

>  <i_epik_Tot_Q>  (81) 
0

>  <i_epik_Tot_abs_Q>  (81) 
0

>  <s_epik_Chemistry_Notes>  (81) 
This compound contains an acetal/aminal-like group ( X-CH(R)-Y where X, Y are N, S, or O) that may be acid/base labile, releasing an aldehyde.

>  <s_lp_Force_Field>  (81) 
OPLS3e

>  <r_lp_Energy>  (81) 
49.8718

>  <b_lp_Chiralities_Consistent>  (81) 
1

>  <s_lp_Variant>  (81) 
30:0-2

>  <s_i_glide_gridfile>  (81) 
pfpi4k_grid

>  <i_i_glide_lignum>  (81) 
36

>  <i_i_glide_rotatable_bonds>  (81) 
1

>  <r_i_docking_score>  (81) 
-2.47761

>  <r_i_glide_ligand_efficiency>  (81) 
-0.0991042

>  <r_i_glide_ligand_efficiency_sa>  (81) 
-0.289783

>  <r_i_glide_ligand_efficiency_ln>  (81) 
-0.587267

>  <r_i_glide_gscore>  (81) 
-2.47761

>  <r_i_glide_lipo>  (81) 
0

>  <r_i_glide_hbond>  (81) 
-0.172592

>  <r_i_glide_metal>  (81) 
-0

>  <r_i_glide_rewards>  (81) 
-1.09582

>  <r_i_glide_evdw>  (81) 
-17.9736

>  <r_i_glide_ecoul>  (81) 
-2.06717

>  <r_i_glide_erotb>  (81) 
0

>  <r_i_glide_esite>  (81) 
-0.00043598

>  <r_i_glide_emodel>  (81) 
-23.2192

>  <r_i_glide_energy>  (81) 
-20.0407

>  <r_i_glide_einternal>  (81) 
0.225187

>  <r_i_glide_intrahb_reward>  (81) 
-0

>  <i_i_glide_confnum>  (81) 
1

>  <i_i_glide_posenum>  (81) 
3

>  <r_i_glide_eff_state_penalty>  (81) 
0

>  <ligand_id>  (81) 
30

>  <original_smiles>  (81) 
COc1cc2c(c3c1OCO3)CC1C3OC4OC=CC4C23CCN1C

>  <smiles>  (81) 
[H]C1=C([H])C2([H])C([H])(O1)OC1([H])C3([H])N(C([H])([H])[H])C([H])([H])C([H])([H])C12c1c([H])c(OC([H])([H])[H])c2c(c1C3([H])[H])OC([H])([H])O2

$$$$
32:0:0
     RDKit          3D

 89 95  0  0  1  0  0  0  0  0999 V2000
    0.1294   -9.9190    7.2612 C   0  0  0  0  0  0  0  0  0  0  0  0
    0.1982   -9.6528    5.7393 C   0  0  2  0  0  0  0  0  0  0  0  0
    0.5895  -10.8280    4.8415 C   0  0  0  0  0  0  0  0  0  0  0  0
    0.5420  -12.0288    5.1497 O   0  0  0  0  0  0  0  0  0  0  0  0
    0.8652  -10.5232    3.3782 C   0  0  0  0  0  0  0  0  0  0  0  0
    0.6085  -11.3093    2.4999 O   0  0  0  0  0  0  0  0  0  0  0  0
    1.4900   -9.1866    3.0865 C   0  0  0  0  0  0  0  0  0  0  0  0
    0.9448   -8.0406    3.9546 C   0  0  2  0  0  0  0  0  0  0  0  0
   -0.0386   -7.2264    3.1754 C   0  0  0  0  0  0  0  0  0  0  0  0
    1.2139   -6.5499    3.7347 C   0  0  1  0  0  0  0  0  0  0  0  0
    0.8086   -5.4489    4.7112 C   0  0  0  0  0  0  0  0  0  0  0  0
    1.8249   -5.1364    5.8176 C   0  0  0  0  0  0  0  0  0  0  0  0
    3.3263   -5.1872    5.4274 C   0  0  2  0  0  0  0  0  0  0  0  0
    4.1088   -5.3133    6.7662 C   0  0  0  0  0  0  0  0  0  0  0  0
    3.7606   -3.8251    4.8213 C   0  0  0  0  0  0  0  0  0  0  0  0
    2.9653   -3.2471    3.6449 C   0  0  0  0  0  0  0  0  0  0  0  0
    3.1439   -3.8169    2.2112 C   0  0  1  0  0  0  0  0  0  0  0  0
    4.1896   -3.0178    1.3080 C   0  0  2  0  0  0  0  0  0  0  0  0
    5.4875   -2.7547    2.1224 C   0  0  0  0  0  0  0  0  0  0  0  0
    3.5848   -1.6337    0.9207 C   0  0  0  0  0  0  0  0  0  0  0  0
    4.4374   -0.8335   -0.0625 C   0  0  0  0  0  0  0  0  0  0  0  0
    4.6163   -1.6165   -1.3532 C   0  0  1  0  0  0  0  0  0  0  0  0
    5.3781   -0.8165   -2.2198 O   0  0  0  0  0  0  0  0  0  0  0  0
    5.2677   -2.9997   -1.1559 C   0  0  0  0  0  0  0  0  0  0  0  0
    5.0945   -3.7109   -2.5089 C   0  0  0  0  0  0  0  0  0  0  0  0
    6.7956   -2.8822   -0.8718 C   0  0  0  0  0  0  0  0  0  0  0  0
    4.4578   -3.7775   -0.0408 C   0  0  1  0  0  0  0  0  0  0  0  0
    4.9895   -5.1867    0.2687 C   0  0  0  0  0  0  0  0  0  0  0  0
    3.9875   -6.0684    1.0138 C   0  0  0  0  0  0  0  0  0  0  0  0
    2.9283   -5.3904    1.9707 C   0  0  2  0  0  0  0  0  0  0  0  0
    1.6531   -5.4596    1.1090 C   0  0  0  0  0  0  0  0  0  0  0  0
    2.6608   -6.3603    3.2138 C   0  0  1  0  0  0  0  0  0  0  0  0
    3.6316   -6.3901    4.4570 C   0  0  1  0  0  0  0  0  0  0  0  0
    5.1014   -6.3379    3.9724 C   0  0  0  0  0  0  0  0  0  0  0  0
    3.5882   -7.7904    5.2009 C   0  0  0  0  0  0  0  0  0  0  0  0
    2.3852   -8.3269    6.0430 C   0  0  0  0  0  0  0  0  0  0  0  0
    0.9553   -8.3723    5.4409 C   0  0  2  0  0  0  0  0  0  0  0  0
   -0.4758  -10.8168    7.4010 H   0  0  0  0  0  0  0  0  0  0  0  0
   -0.3653   -9.1103    7.8333 H   0  0  0  0  0  0  0  0  0  0  0  0
    1.1058  -10.2401    7.6761 H   0  0  0  0  0  0  0  0  0  0  0  0
   -0.8289   -9.4099    5.4345 H   0  0  0  0  0  0  0  0  0  0  0  0
    2.5485   -9.3446    3.2273 H   0  0  0  0  0  0  0  0  0  0  0  0
    1.3100   -8.9987    2.0293 H   0  0  0  0  0  0  0  0  0  0  0  0
   -0.1173   -7.4153    2.1093 H   0  0  0  0  0  0  0  0  0  0  0  0
   -1.0063   -7.0606    3.6550 H   0  0  0  0  0  0  0  0  0  0  0  0
    0.5230   -4.5844    4.1256 H   0  0  0  0  0  0  0  0  0  0  0  0
   -0.1340   -5.7071    5.1965 H   0  0  0  0  0  0  0  0  0  0  0  0
    1.5868   -4.1674    6.2379 H   0  0  0  0  0  0  0  0  0  0  0  0
    1.6347   -5.8181    6.6405 H   0  0  0  0  0  0  0  0  0  0  0  0
    5.1891   -5.3445    6.6248 H   0  0  0  0  0  0  0  0  0  0  0  0
    3.8310   -6.1974    7.3367 H   0  0  0  0  0  0  0  0  0  0  0  0
    3.9063   -4.4633    7.4193 H   0  0  0  0  0  0  0  0  0  0  0  0
    3.6755   -3.0846    5.6139 H   0  0  0  0  0  0  0  0  0  0  0  0
    4.8274   -3.8205    4.6024 H   0  0  0  0  0  0  0  0  0  0  0  0
    1.9185   -3.1768    3.9029 H   0  0  0  0  0  0  0  0  0  0  0  0
    3.2065   -2.1896    3.6148 H   0  0  0  0  0  0  0  0  0  0  0  0
    2.2200   -3.4021    1.8057 H   0  0  0  0  0  0  0  0  0  0  0  0
    6.2240   -2.1824    1.5768 H   0  0  0  0  0  0  0  0  0  0  0  0
    5.9850   -3.6641    2.4466 H   0  0  0  0  0  0  0  0  0  0  0  0
    5.3005   -2.1545    3.0107 H   0  0  0  0  0  0  0  0  0  0  0  0
    2.6189   -1.7858    0.4374 H   0  0  0  0  0  0  0  0  0  0  0  0
    3.3869   -1.0173    1.7940 H   0  0  0  0  0  0  0  0  0  0  0  0
    3.9439    0.1006   -0.3072 H   0  0  0  0  0  0  0  0  0  0  0  0
    5.3981   -0.5583    0.3707 H   0  0  0  0  0  0  0  0  0  0  0  0
    3.6376   -1.7423   -1.8198 H   0  0  0  0  0  0  0  0  0  0  0  0
    4.8978   -0.0268   -2.3911 H   0  0  0  0  0  0  0  0  0  0  0  0
    5.6460   -4.6509   -2.4831 H   0  0  0  0  0  0  0  0  0  0  0  0
    5.5229   -3.1560   -3.3464 H   0  0  0  0  0  0  0  0  0  0  0  0
    4.0492   -3.9214   -2.7370 H   0  0  0  0  0  0  0  0  0  0  0  0
    7.1834   -3.7218   -0.2987 H   0  0  0  0  0  0  0  0  0  0  0  0
    7.0655   -1.9738   -0.3393 H   0  0  0  0  0  0  0  0  0  0  0  0
    7.3796   -2.8537   -1.7935 H   0  0  0  0  0  0  0  0  0  0  0  0
    3.4778   -3.9101   -0.4997 H   0  0  0  0  0  0  0  0  0  0  0  0
    5.2427   -5.7158   -0.6480 H   0  0  0  0  0  0  0  0  0  0  0  0
    5.9064   -5.1411    0.8475 H   0  0  0  0  0  0  0  0  0  0  0  0
    3.4769   -6.6567    0.2503 H   0  0  0  0  0  0  0  0  0  0  0  0
    4.5664   -6.8350    1.5227 H   0  0  0  0  0  0  0  0  0  0  0  0
    1.4226   -6.4951    0.7950 H   0  0  0  0  0  0  0  0  0  0  0  0
    1.6785   -4.8692    0.2079 H   0  0  0  0  0  0  0  0  0  0  0  0
    0.8072   -5.1447    1.7079 H   0  0  0  0  0  0  0  0  0  0  0  0
    2.8796   -7.2992    2.7298 H   0  0  0  0  0  0  0  0  0  0  0  0
    5.3822   -7.2567    3.4537 H   0  0  0  0  0  0  0  0  0  0  0  0
    5.8131   -6.2367    4.7913 H   0  0  0  0  0  0  0  0  0  0  0  0
    5.2772   -5.5134    3.2931 H   0  0  0  0  0  0  0  0  0  0  0  0
    3.8588   -8.5687    4.4892 H   0  0  0  0  0  0  0  0  0  0  0  0
    4.4358   -7.8260    5.8917 H   0  0  0  0  0  0  0  0  0  0  0  0
    2.6856   -9.3395    6.3159 H   0  0  0  0  0  0  0  0  0  0  0  0
    2.3294   -7.8211    7.0078 H   0  0  0  0  0  0  0  0  0  0  0  0
    0.3550   -7.6265    5.9628 H   0  0  0  0  0  0  0  0  0  0  0  0
  1  2  1  0
  1 38  1  0
  1 39  1  0
  1 40  1  0
  2 37  1  0
  2  3  1  0
  2 41  1  6
  3  4  2  0
  3  5  1  0
  5  6  2  0
  5  7  1  0
  8  7  1  6
  7 42  1  0
  7 43  1  0
  8 10  1  0
  8 37  1  0
  8  9  1  0
 10  9  1  6
  9 44  1  0
  9 45  1  0
 10 32  1  0
 10 11  1  0
 11 12  1  0
 11 46  1  0
 11 47  1  0
 12 13  1  0
 12 48  1  0
 12 49  1  0
 13 33  1  0
 13 14  1  1
 13 15  1  0
 14 50  1  0
 14 51  1  0
 14 52  1  0
 15 16  1  0
 15 53  1  0
 15 54  1  0
 16 17  1  0
 16 55  1  0
 16 56  1  0
 17 30  1  0
 17 18  1  0
 17 57  1  6
 18 27  1  0
 18 19  1  1
 18 20  1  0
 19 58  1  0
 19 59  1  0
 19 60  1  0
 20 21  1  0
 20 61  1  0
 20 62  1  0
 21 22  1  0
 21 63  1  0
 21 64  1  0
 22 23  1  0
 22 24  1  0
 22 65  1  6
 23 66  1  0
 24 25  1  0
 24 26  1  0
 24 27  1  0
 25 67  1  0
 25 68  1  0
 25 69  1  0
 26 70  1  0
 26 71  1  0
 26 72  1  0
 27 28  1  0
 27 73  1  6
 28 29  1  0
 28 74  1  0
 28 75  1  0
 29 30  1  0
 29 76  1  0
 29 77  1  0
 30 31  1  6
 30 32  1  0
 31 78  1  0
 31 79  1  0
 31 80  1  0
 32 33  1  0
 32 81  1  6
 33 34  1  6
 33 35  1  0
 34 82  1  0
 34 83  1  0
 34 84  1  0
 35 36  1  0
 35 85  1  0
 35 86  1  0
 36 37  1  0
 36 87  1  0
 36 88  1  0
 37 89  1  1
M  END
>  <i_m_ct_stereo_status>  (82) 
1

>  <s_m_source_file>  (82) 
/var/tmp/pbs.5076255.sched01/tmpoa2zap1w/0_chicbso.sdf

>  <i_m_source_file_index>  (82) 
38

>  <i_lp_mmshare_version>  (82) 
48012

>  <i_f3d_flags>  (82) 
0

>  <s_epik_input>  (82) 
Tz1DKFtDSDJdMSlDKD1PKVtDQEBIXShbQ0gzXSlbQ0BIXTJbQ0gyXVtDSDJdW0NAXTMoW0NIM10pW0NAXShbQ0gzXSkoW0NIMl1bQ0gyXTQpW0NIMl1bQ0gyXVtDQEhdKFtDQF01KFtDSDNdKVtDQEBIXTNbQ0BdNChbQ0BAXTEyNilbQ0gyXTYpW0NAQF03KFtDSDNdKVtDQEhdKFtDSDJdW0NIMl01KUMoW0NIM10pKFtDSDNdKVtDQEhdKFtPSF0pW0NIMl1bQ0gyXTc=

>  <s_epik_cmdline>  (82) 
J2VwaWtfcHl0aG9uJywgJy1waHQnLCAnMi4wJywgJy1waCcsICc3LjAnLCAnLXRuJywgJzgnLCAnLW1hJywgJzIwMCcsICctaW1hZScsICc8aW5maWxlLm1hZT4nLCAnLW9tYWUnLCAnPG91dGZpbGUubWFlPic=

>  <r_lp_tautomer_probability>  (82) 
1

>  <r_epik_Ionization_Penalty>  (82) 
3.2422e-06

>  <r_epik_Ionization_Penalty_Charging>  (82) 
0

>  <r_epik_Ionization_Penalty_Neutral>  (82) 
3.2422e-06

>  <r_epik_State_Penalty>  (82) 
-0

>  <r_epik_Charging_Adjusted_Penalty>  (82) 
0

>  <i_epik_Tot_Q>  (82) 
0

>  <i_epik_Tot_abs_Q>  (82) 
0

>  <s_lp_Force_Field>  (82) 
OPLS3e

>  <r_lp_Energy>  (82) 
155.917

>  <b_lp_Chiralities_Consistent>  (82) 
1

>  <s_lp_Variant>  (82) 
32:0-1

>  <s_i_glide_gridfile>  (82) 
pfpi4k_grid

>  <i_i_glide_lignum>  (82) 
38

>  <i_i_glide_rotatable_bonds>  (82) 
1

>  <r_i_docking_score>  (82) 
-1.60063

>  <r_i_glide_ligand_efficiency>  (82) 
-0.0432603

>  <r_i_glide_ligand_efficiency_sa>  (82) 
-0.144153

>  <r_i_glide_ligand_efficiency_ln>  (82) 
-0.347139

>  <r_i_glide_gscore>  (82) 
-1.60063

>  <r_i_glide_lipo>  (82) 
-0.303252

>  <r_i_glide_hbond>  (82) 
-0.00105136

>  <r_i_glide_metal>  (82) 
-0

>  <r_i_glide_rewards>  (82) 
-0.127519

>  <r_i_glide_evdw>  (82) 
-13.9374

>  <r_i_glide_ecoul>  (82) 
-2.67551

>  <r_i_glide_erotb>  (82) 
0

>  <r_i_glide_esite>  (82) 
-0.0706128

>  <r_i_glide_emodel>  (82) 
-17.4065

>  <r_i_glide_energy>  (82) 
-16.6129

>  <r_i_glide_einternal>  (82) 
0.330633

>  <r_i_glide_intrahb_reward>  (82) 
-0

>  <i_i_glide_confnum>  (82) 
2

>  <i_i_glide_posenum>  (82) 
5

>  <r_i_glide_eff_state_penalty>  (82) 
0

>  <ligand_id>  (82) 
32

>  <original_smiles>  (82) 
CC1C(=O)C(=O)CC23CC24CCC2(C)CCC5C6(C)CCC(O)C(C)(C)C6CCC5(C)C4C2(C)CCC13

>  <smiles>  (82) 
[H]OC1([H])C([H])([H])C([H])([H])C2(C([H])([H])[H])C([H])(C([H])([H])C([H])([H])C3(C([H])([H])[H])C2([H])C([H])([H])C([H])([H])C2(C([H])([H])[H])C([H])([H])C([H])([H])C45C([H])([H])C46C([H])([H])C(=O)C(=O)C([H])(C([H])([H])[H])C6([H])C([H])([H])C([H])([H])C2(C([H])([H])[H])C35[H])C1(C([H])([H])[H])C([H])([H])[H]

$$$$
32:0:1
     RDKit          3D

 89 95  0  0  1  0  0  0  0  0999 V2000
    0.4916   -9.8118    7.1134 C   0  0  0  0  0  0  0  0  0  0  0  0
    0.4613   -9.5735    5.5930 C   0  0  2  0  0  0  0  0  0  0  0  0
    0.9447  -10.7678    4.7832 C   0  0  0  0  0  0  0  0  0  0  0  0
    1.2350  -11.8450    5.2516 O   0  0  0  0  0  0  0  0  0  0  0  0
    1.0200  -10.5989    3.2969 C   0  0  0  0  0  0  0  0  0  0  0  0
    0.5650  -11.4532    2.5520 O   0  0  0  0  0  0  0  0  0  0  0  0
    1.6312   -9.2908    2.8248 C   0  0  0  0  0  0  0  0  0  0  0  0
    1.0791   -8.0733    3.6039 C   0  0  2  0  0  0  0  0  0  0  0  0
    0.0456   -7.3533    2.7849 C   0  0  0  0  0  0  0  0  0  0  0  0
    1.2902   -6.5943    3.2323 C   0  0  1  0  0  0  0  0  0  0  0  0
    0.8907   -5.4129    4.1141 C   0  0  0  0  0  0  0  0  0  0  0  0
    1.9433   -4.9510    5.1371 C   0  0  0  0  0  0  0  0  0  0  0  0
    3.4268   -4.9833    4.6864 C   0  0  2  0  0  0  0  0  0  0  0  0
    4.2684   -4.9586    5.9979 C   0  0  0  0  0  0  0  0  0  0  0  0
    3.7845   -3.6658    3.9419 C   0  0  0  0  0  0  0  0  0  0  0  0
    2.9101   -3.2265    2.7528 C   0  0  0  0  0  0  0  0  0  0  0  0
    3.0491   -3.9254    1.3689 C   0  0  1  0  0  0  0  0  0  0  0  0
    4.0524   -3.1683    0.3701 C   0  0  2  0  0  0  0  0  0  0  0  0
    5.3717   -2.7821    1.0927 C   0  0  0  0  0  0  0  0  0  0  0  0
    3.3941   -1.8593   -0.1339 C   0  0  0  0  0  0  0  0  0  0  0  0
    4.1444   -1.1280   -1.2511 C   0  0  0  0  0  0  0  0  0  0  0  0
    4.2544   -2.0328   -2.4585 C   0  0  1  0  0  0  0  0  0  0  0  0
    4.8567   -1.3543   -3.5030 O   0  0  0  0  0  0  0  0  0  0  0  0
    5.0024   -3.3352   -2.1378 C   0  0  0  0  0  0  0  0  0  0  0  0
    4.8231   -4.1785   -3.4202 C   0  0  0  0  0  0  0  0  0  0  0  0
    6.5290   -3.1002   -1.9109 C   0  0  0  0  0  0  0  0  0  0  0  0
    4.2867   -4.0276   -0.9071 C   0  0  1  0  0  0  0  0  0  0  0  0
    4.8755   -5.3767   -0.4772 C   0  0  0  0  0  0  0  0  0  0  0  0
    3.9535   -6.2150    0.3987 C   0  0  0  0  0  0  0  0  0  0  0  0
    2.8397   -5.5220    1.2704 C   0  0  2  0  0  0  0  0  0  0  0  0
    1.5245   -5.7898    0.4606 C   0  0  0  0  0  0  0  0  0  0  0  0
    2.7004   -6.3880    2.6208 C   0  0  1  0  0  0  0  0  0  0  0  0
    3.7347   -6.2612    3.8184 C   0  0  1  0  0  0  0  0  0  0  0  0
    5.1826   -6.1938    3.2616 C   0  0  0  0  0  0  0  0  0  0  0  0
    3.7642   -7.5894    4.6913 C   0  0  0  0  0  0  0  0  0  0  0  0
    2.6180   -8.0970    5.6399 C   0  0  0  0  0  0  0  0  0  0  0  0
    1.1546   -8.2717    5.1262 C   0  0  2  0  0  0  0  0  0  0  0  0
   -0.1913  -10.6244    7.3895 H   0  0  0  0  0  0  0  0  0  0  0  0
    0.1972   -8.9263    7.6669 H   0  0  0  0  0  0  0  0  0  0  0  0
    1.4849  -10.1070    7.4638 H   0  0  0  0  0  0  0  0  0  0  0  0
   -0.5899   -9.4928    5.3224 H   0  0  0  0  0  0  0  0  0  0  0  0
    2.7125   -9.3667    2.9240 H   0  0  0  0  0  0  0  0  0  0  0  0
    1.4188   -9.1958    1.7543 H   0  0  0  0  0  0  0  0  0  0  0  0
   -0.0609   -7.6377    1.7407 H   0  0  0  0  0  0  0  0  0  0  0  0
   -0.9084   -7.1479    3.2691 H   0  0  0  0  0  0  0  0  0  0  0  0
    0.5578   -4.6171    3.4634 H   0  0  0  0  0  0  0  0  0  0  0  0
   -0.0145   -5.6525    4.6740 H   0  0  0  0  0  0  0  0  0  0  0  0
    1.6805   -3.9532    5.4861 H   0  0  0  0  0  0  0  0  0  0  0  0
    1.8190   -5.5608    6.0264 H   0  0  0  0  0  0  0  0  0  0  0  0
    5.3420   -4.9693    5.8161 H   0  0  0  0  0  0  0  0  0  0  0  0
    4.0450   -5.7969    6.6564 H   0  0  0  0  0  0  0  0  0  0  0  0
    4.0603   -4.0628    6.5852 H   0  0  0  0  0  0  0  0  0  0  0  0
    3.7002   -2.8527    4.6638 H   0  0  0  0  0  0  0  0  0  0  0  0
    4.8355   -3.6373    3.6703 H   0  0  0  0  0  0  0  0  0  0  0  0
    1.8736   -3.1686    3.0520 H   0  0  0  0  0  0  0  0  0  0  0  0
    3.1163   -2.1683    2.6107 H   0  0  0  0  0  0  0  0  0  0  0  0
    2.0947   -3.5916    0.9712 H   0  0  0  0  0  0  0  0  0  0  0  0
    6.0507   -2.2286    0.4568 H   0  0  0  0  0  0  0  0  0  0  0  0
    5.9224   -3.6435    1.4710 H   0  0  0  0  0  0  0  0  0  0  0  0
    5.1879   -2.1070    1.9271 H   0  0  0  0  0  0  0  0  0  0  0  0
    2.4512   -2.1861   -0.5659 H   0  0  0  0  0  0  0  0  0  0  0  0
    3.1689   -1.1684    0.6778 H   0  0  0  0  0  0  0  0  0  0  0  0
    3.5851   -0.2700   -1.5865 H   0  0  0  0  0  0  0  0  0  0  0  0
    5.0952   -0.7316   -0.9017 H   0  0  0  0  0  0  0  0  0  0  0  0
    3.2593   -2.2630   -2.8319 H   0  0  0  0  0  0  0  0  0  0  0  0
    4.3985   -0.5409   -3.6362 H   0  0  0  0  0  0  0  0  0  0  0  0
    5.3727   -5.0899   -3.2924 H   0  0  0  0  0  0  0  0  0  0  0  0
    5.2261   -3.7141   -4.3185 H   0  0  0  0  0  0  0  0  0  0  0  0
    3.7734   -4.4027   -3.6314 H   0  0  0  0  0  0  0  0  0  0  0  0
    6.9910   -3.8470   -1.2552 H   0  0  0  0  0  0  0  0  0  0  0  0
    6.7739   -2.1145   -1.5135 H   0  0  0  0  0  0  0  0  0  0  0  0
    7.0493   -3.1737   -2.8634 H   0  0  0  0  0  0  0  0  0  0  0  0
    3.2972   -4.2517   -1.3101 H   0  0  0  0  0  0  0  0  0  0  0  0
    5.0159   -5.9755   -1.3731 H   0  0  0  0  0  0  0  0  0  0  0  0
    5.8436   -5.2659    0.0099 H   0  0  0  0  0  0  0  0  0  0  0  0
    3.4802   -6.8973   -0.2834 H   0  0  0  0  0  0  0  0  0  0  0  0
    4.5908   -6.8987    0.9444 H   0  0  0  0  0  0  0  0  0  0  0  0
    1.3789   -6.8393    0.1933 H   0  0  0  0  0  0  0  0  0  0  0  0
    1.5094   -5.2396   -0.4767 H   0  0  0  0  0  0  0  0  0  0  0  0
    0.6570   -5.4656    1.0081 H   0  0  0  0  0  0  0  0  0  0  0  0
    2.9390   -7.3607    2.2123 H   0  0  0  0  0  0  0  0  0  0  0  0
    5.4868   -7.1397    2.8139 H   0  0  0  0  0  0  0  0  0  0  0  0
    5.9233   -5.9849    4.0260 H   0  0  0  0  0  0  0  0  0  0  0  0
    5.2976   -5.4275    2.5035 H   0  0  0  0  0  0  0  0  0  0  0  0
    4.0405   -8.4180    4.0464 H   0  0  0  0  0  0  0  0  0  0  0  0
    4.6341   -7.5273    5.3408 H   0  0  0  0  0  0  0  0  0  0  0  0
    2.9665   -9.0668    6.0031 H   0  0  0  0  0  0  0  0  0  0  0  0
    2.5801   -7.5041    6.5521 H   0  0  0  0  0  0  0  0  0  0  0  0
    0.5447   -7.5027    5.6001 H   0  0  0  0  0  0  0  0  0  0  0  0
  1  2  1  0
  1 38  1  0
  1 39  1  0
  1 40  1  0
  2 37  1  0
  2  3  1  0
  2 41  1  6
  3  4  2  0
  3  5  1  0
  5  6  2  0
  5  7  1  0
  8  7  1  6
  7 42  1  0
  7 43  1  0
  8 10  1  0
  8 37  1  0
  8  9  1  0
 10  9  1  6
  9 44  1  0
  9 45  1  0
 10 32  1  0
 10 11  1  0
 11 12  1  0
 11 46  1  0
 11 47  1  0
 12 13  1  0
 12 48  1  0
 12 49  1  0
 13 33  1  0
 13 14  1  1
 13 15  1  0
 14 50  1  0
 14 51  1  0
 14 52  1  0
 15 16  1  0
 15 53  1  0
 15 54  1  0
 16 17  1  0
 16 55  1  0
 16 56  1  0
 17 30  1  0
 17 18  1  0
 17 57  1  6
 18 27  1  0
 18 19  1  1
 18 20  1  0
 19 58  1  0
 19 59  1  0
 19 60  1  0
 20 21  1  0
 20 61  1  0
 20 62  1  0
 21 22  1  0
 21 63  1  0
 21 64  1  0
 22 23  1  0
 22 24  1  0
 22 65  1  6
 23 66  1  0
 24 25  1  0
 24 26  1  0
 24 27  1  0
 25 67  1  0
 25 68  1  0
 25 69  1  0
 26 70  1  0
 26 71  1  0
 26 72  1  0
 27 28  1  0
 27 73  1  6
 28 29  1  0
 28 74  1  0
 28 75  1  0
 29 30  1  0
 29 76  1  0
 29 77  1  0
 30 31  1  6
 30 32  1  0
 31 78  1  0
 31 79  1  0
 31 80  1  0
 32 33  1  0
 32 81  1  6
 33 34  1  6
 33 35  1  0
 34 82  1  0
 34 83  1  0
 34 84  1  0
 35 36  1  0
 35 85  1  0
 35 86  1  0
 36 37  1  0
 36 87  1  0
 36 88  1  0
 37 89  1  1
M  END
>  <i_m_ct_stereo_status>  (83) 
1

>  <s_m_source_file>  (83) 
/var/tmp/pbs.5076255.sched01/tmpoa2zap1w/0_chicbso.sdf

>  <i_m_source_file_index>  (83) 
38

>  <i_lp_mmshare_version>  (83) 
48012

>  <i_f3d_flags>  (83) 
0

>  <s_epik_input>  (83) 
Tz1DKFtDSDJdMSlDKD1PKVtDQEBIXShbQ0gzXSlbQ0BIXTJbQ0gyXVtDSDJdW0NAXTMoW0NIM10pW0NAXShbQ0gzXSkoW0NIMl1bQ0gyXTQpW0NIMl1bQ0gyXVtDQEhdKFtDQF01KFtDSDNdKVtDQEBIXTNbQ0BdNChbQ0BAXTEyNilbQ0gyXTYpW0NAQF03KFtDSDNdKVtDQEhdKFtDSDJdW0NIMl01KUMoW0NIM10pKFtDSDNdKVtDQEhdKFtPSF0pW0NIMl1bQ0gyXTc=

>  <s_epik_cmdline>  (83) 
J2VwaWtfcHl0aG9uJywgJy1waHQnLCAnMi4wJywgJy1waCcsICc3LjAnLCAnLXRuJywgJzgnLCAnLW1hJywgJzIwMCcsICctaW1hZScsICc8aW5maWxlLm1hZT4nLCAnLW9tYWUnLCAnPG91dGZpbGUubWFlPic=

>  <r_lp_tautomer_probability>  (83) 
1

>  <r_epik_Ionization_Penalty>  (83) 
3.2422e-06

>  <r_epik_Ionization_Penalty_Charging>  (83) 
0

>  <r_epik_Ionization_Penalty_Neutral>  (83) 
3.2422e-06

>  <r_epik_State_Penalty>  (83) 
-0

>  <r_epik_Charging_Adjusted_Penalty>  (83) 
0

>  <i_epik_Tot_Q>  (83) 
0

>  <i_epik_Tot_abs_Q>  (83) 
0

>  <s_lp_Force_Field>  (83) 
OPLS3e

>  <r_lp_Energy>  (83) 
155.917

>  <b_lp_Chiralities_Consistent>  (83) 
1

>  <s_lp_Variant>  (83) 
32:0-1

>  <s_i_glide_gridfile>  (83) 
pfpi4k_grid

>  <i_i_glide_lignum>  (83) 
38

>  <i_i_glide_rotatable_bonds>  (83) 
1

>  <r_i_docking_score>  (83) 
-0.886783

>  <r_i_glide_ligand_efficiency>  (83) 
-0.0239671

>  <r_i_glide_ligand_efficiency_sa>  (83) 
-0.0798637

>  <r_i_glide_ligand_efficiency_ln>  (83) 
-0.192322

>  <r_i_glide_gscore>  (83) 
-0.886783

>  <r_i_glide_lipo>  (83) 
-0.38117

>  <r_i_glide_hbond>  (83) 
0

>  <r_i_glide_metal>  (83) 
-0

>  <r_i_glide_rewards>  (83) 
-0.202824

>  <r_i_glide_evdw>  (83) 
-3.17502

>  <r_i_glide_ecoul>  (83) 
-0.648238

>  <r_i_glide_erotb>  (83) 
0

>  <r_i_glide_esite>  (83) 
-0.0468027

>  <r_i_glide_emodel>  (83) 
-3.22642

>  <r_i_glide_energy>  (83) 
-3.82326

>  <r_i_glide_einternal>  (83) 
0.330767

>  <r_i_glide_intrahb_reward>  (83) 
-0

>  <i_i_glide_confnum>  (83) 
1

>  <i_i_glide_posenum>  (83) 
13

>  <r_i_glide_eff_state_penalty>  (83) 
0

>  <ligand_id>  (83) 
32

>  <original_smiles>  (83) 
CC1C(=O)C(=O)CC23CC24CCC2(C)CCC5C6(C)CCC(O)C(C)(C)C6CCC5(C)C4C2(C)CCC13

>  <smiles>  (83) 
[H]OC1([H])C([H])([H])C([H])([H])C2(C([H])([H])[H])C([H])(C([H])([H])C([H])([H])C3(C([H])([H])[H])C2([H])C([H])([H])C([H])([H])C2(C([H])([H])[H])C([H])([H])C([H])([H])C45C([H])([H])C46C([H])([H])C(=O)C(=O)C([H])(C([H])([H])[H])C6([H])C([H])([H])C([H])([H])C2(C([H])([H])[H])C35[H])C1(C([H])([H])[H])C([H])([H])[H]

$$$$
33:0:0
     RDKit          3D

 72 78  0  0  1  0  0  0  0  0999 V2000
    1.8764   -2.8904    8.1619 C   0  0  0  0  0  0  0  0  0  0  0  0
    1.8959   -1.8560    7.1835 O   0  0  0  0  0  0  0  0  0  0  0  0
    1.1951   -0.6629    7.5278 C   0  0  2  0  0  0  0  0  0  0  0  0
    0.3231   -0.4197    6.2888 C   0  0  0  0  0  0  0  0  0  0  0  0
    0.9331    0.3213    5.0813 C   0  0  2  0  0  0  0  0  0  0  0  0
    0.6016   -0.5725    3.8495 C   0  0  0  0  0  0  0  0  0  0  0  0
    2.3628    0.2067    4.9230 O   0  0  0  0  0  0  0  0  0  0  0  0
    3.3548    0.8248    5.7403 C   0  0  0  0  0  0  0  0  0  0  0  0
    4.3581   -0.3206    6.0504 C   0  0  0  0  0  0  0  0  0  0  0  0
    4.2885    1.7396    4.9034 C   0  0  0  0  0  0  0  0  0  0  0  0
    2.7544    1.5380    7.0005 C   0  0  1  0  0  0  0  0  0  0  0  0
    2.1516    3.0329    6.8021 C   0  0  2  0  0  0  0  0  0  0  0  0
    1.0857    3.6825    7.6559 C   0  0  1  0  0  0  0  0  0  0  0  0
    1.4213    5.2096    7.5171 C   0  0  0  0  0  0  0  0  0  0  0  0
    2.1463    5.4364    6.2117 C   0  0  1  0  0  0  0  0  0  0  0  0
    3.4170    4.9233    5.8219 O   0  0  0  0  0  0  0  0  0  0  0  0
    2.2970    4.0403    5.6203 C   0  0  1  0  0  0  0  0  0  0  0  0
    1.4422    4.0173    4.2878 C   0  0  2  0  0  0  0  0  0  0  0  0
    2.2875    4.7490    3.2054 C   0  0  0  0  0  0  0  0  0  0  0  0
    0.0152    4.7203    4.4439 C   0  0  1  0  0  0  0  0  0  0  0  0
   -0.4613    5.3980    3.2887 O   0  0  0  0  0  0  0  0  0  0  0  0
   -1.1160    3.7777    4.8821 C   0  0  0  0  0  0  0  0  0  0  0  0
   -0.6221    2.6324    5.7916 C   0  0  1  0  0  0  0  0  0  0  0  0
    0.3263    1.7569    4.8290 C   0  0  1  0  0  0  0  0  0  0  0  0
    1.1694    2.5733    3.8067 C   0  0  1  0  0  0  0  0  0  0  0  0
    0.4841    2.5103    2.5582 O   0  0  0  0  0  0  0  0  0  0  0  0
   -0.3429    3.1001    7.3173 C   0  0  2  0  0  0  0  0  0  0  0  0
   -1.3945    4.1550    7.7645 C   0  0  0  0  0  0  0  0  0  0  0  0
   -0.6972    1.9389    8.2891 C   0  0  0  0  0  0  0  0  0  0  0  0
   -1.7761    1.3496    8.1491 O   0  0  0  0  0  0  0  0  0  0  0  0
    0.1698    1.6348    9.4327 C   0  0  0  0  0  0  0  0  0  0  0  0
    1.4120    1.1435    9.2937 C   0  0  0  0  0  0  0  0  0  0  0  0
    2.0901    0.5237    8.0636 C   0  0  1  0  0  0  0  0  0  0  0  0
    3.1747   -0.1522    8.6858 O   0  0  0  0  0  0  0  0  0  0  0  0
    2.4794   -3.7262    7.8096 H   0  0  0  0  0  0  0  0  0  0  0  0
    0.8646   -3.2607    8.3325 H   0  0  0  0  0  0  0  0  0  0  0  0
    2.2898   -2.5631    9.1153 H   0  0  0  0  0  0  0  0  0  0  0  0
    0.5020   -0.9503    8.3207 H   0  0  0  0  0  0  0  0  0  0  0  0
   -0.0139   -1.4104    5.9781 H   0  0  0  0  0  0  0  0  0  0  0  0
   -0.6237    0.0334    6.5312 H   0  0  0  0  0  0  0  0  0  0  0  0
   -0.4701   -0.7290    3.7096 H   0  0  0  0  0  0  0  0  0  0  0  0
    1.0582   -1.5587    3.9462 H   0  0  0  0  0  0  0  0  0  0  0  0
    0.9921   -0.1475    2.9247 H   0  0  0  0  0  0  0  0  0  0  0  0
    5.1696    0.0202    6.6941 H   0  0  0  0  0  0  0  0  0  0  0  0
    4.8179   -0.7036    5.1404 H   0  0  0  0  0  0  0  0  0  0  0  0
    3.9335   -1.1948    6.5184 H   0  0  0  0  0  0  0  0  0  0  0  0
    5.1255    2.0940    5.5052 H   0  0  0  0  0  0  0  0  0  0  0  0
    3.8576    2.6265    4.4759 H   0  0  0  0  0  0  0  0  0  0  0  0
    4.7002    1.2038    4.0486 H   0  0  0  0  0  0  0  0  0  0  0  0
    3.6959    1.7535    7.5142 H   0  0  0  0  0  0  0  0  0  0  0  0
    2.9700    3.4433    7.3876 H   0  0  0  0  0  0  0  0  0  0  0  0
    1.3235    3.5857    8.7114 H   0  0  0  0  0  0  0  0  0  0  0  0
    0.5616    5.8725    7.5799 H   0  0  0  0  0  0  0  0  0  0  0  0
    2.0895    5.5330    8.3210 H   0  0  0  0  0  0  0  0  0  0  0  0
    1.9004    6.3305    5.6482 H   0  0  0  0  0  0  0  0  0  0  0  0
    1.8250    4.7321    2.2198 H   0  0  0  0  0  0  0  0  0  0  0  0
    3.2703    4.2928    3.0807 H   0  0  0  0  0  0  0  0  0  0  0  0
    2.4380    5.8017    3.4497 H   0  0  0  0  0  0  0  0  0  0  0  0
    0.0105    5.5124    5.1815 H   0  0  0  0  0  0  0  0  0  0  0  0
   -0.1909    4.9406    2.4958 H   0  0  0  0  0  0  0  0  0  0  0  0
   -1.9568    4.3334    5.2854 H   0  0  0  0  0  0  0  0  0  0  0  0
   -1.5516    3.3329    3.9883 H   0  0  0  0  0  0  0  0  0  0  0  0
   -1.5251    2.0243    5.8681 H   0  0  0  0  0  0  0  0  0  0  0  0
   -0.5102    1.4234    4.2122 H   0  0  0  0  0  0  0  0  0  0  0  0
    2.1014    2.0795    3.5745 H   0  0  0  0  0  0  0  0  0  0  0  0
    0.6499    3.2657    1.9944 H   0  0  0  0  0  0  0  0  0  0  0  0
   -1.3393    5.0812    7.2036 H   0  0  0  0  0  0  0  0  0  0  0  0
   -1.2633    4.4268    8.8132 H   0  0  0  0  0  0  0  0  0  0  0  0
   -2.4175    3.7904    7.6516 H   0  0  0  0  0  0  0  0  0  0  0  0
   -0.1643    1.9486   10.4129 H   0  0  0  0  0  0  0  0  0  0  0  0
    1.9633    1.0569   10.2178 H   0  0  0  0  0  0  0  0  0  0  0  0
    3.7726    0.4783    9.0533 H   0  0  0  0  0  0  0  0  0  0  0  0
  1  2  1  0
  1 35  1  0
  1 36  1  0
  1 37  1  0
  2  3  1  0
  3 33  1  0
  3  4  1  0
  3 38  1  1
  4  5  1  0
  4 39  1  0
  4 40  1  0
  5 24  1  0
  5  6  1  6
  5  7  1  0
  6 41  1  0
  6 42  1  0
  6 43  1  0
  7  8  1  0
  8  9  1  0
  8 10  1  0
  8 11  1  0
  9 44  1  0
  9 45  1  0
  9 46  1  0
 10 47  1  0
 10 48  1  0
 10 49  1  0
 11 33  1  0
 11 12  1  0
 11 50  1  1
 12 17  1  0
 12 13  1  0
 12 51  1  1
 13 27  1  0
 13 14  1  0
 13 52  1  1
 14 15  1  0
 14 53  1  0
 14 54  1  0
 15 17  1  0
 15 16  1  0
 15 55  1  6
 17 16  1  6
 17 18  1  0
 18 25  1  0
 18 19  1  6
 18 20  1  0
 19 56  1  0
 19 57  1  0
 19 58  1  0
 20 21  1  0
 20 22  1  0
 20 59  1  1
 21 60  1  0
 22 23  1  0
 22 61  1  0
 22 62  1  0
 23 24  1  0
 23 27  1  0
 23 63  1  1
 24 25  1  0
 24 64  1  6
 25 26  1  0
 25 65  1  6
 26 66  1  0
 27 28  1  1
 27 29  1  0
 28 67  1  0
 28 68  1  0
 28 69  1  0
 29 30  2  0
 29 31  1  0
 31 32  2  3
 31 70  1  0
 32 33  1  0
 32 71  1  0
 33 34  1  1
 34 72  1  0
M  END
>  <i_m_ct_stereo_status>  (84) 
1

>  <s_m_source_file>  (84) 
/var/tmp/pbs.5076255.sched01/tmpoa2zap1w/0_chicbso.sdf

>  <i_m_source_file_index>  (84) 
39

>  <i_lp_mmshare_version>  (84) 
48012

>  <i_f3d_flags>  (84) 
0

>  <s_epik_input>  (84) 
W0NAXTEyM1tDQEBIXTRbQ0BIXTVbQ0BdNihbT0hdKVtDQEhdKE9bQ0gzXSlbQ0gyXVtDQF0oW0NIM10pKE9DNShbQ0gzXSlbQ0gzXSlbQ0hdN1tDQEBIXShbQ0BdKFtDSDNdKShbQ0BASF00W0NIMl1bQ0BIXTFPMilDKD1PKS9bQ0hdPVtDSF1cNilbQ0gyXVtDQEhdKFtPSF0pW0NAXTMoW0NIM10pW0NAQEhdN1tPSF0=

>  <s_epik_cmdline>  (84) 
J2VwaWtfcHl0aG9uJywgJy1waHQnLCAnMi4wJywgJy1waCcsICc3LjAnLCAnLXRuJywgJzgnLCAnLW1hJywgJzIwMCcsICctaW1hZScsICc8aW5maWxlLm1hZT4nLCAnLW9tYWUnLCAnPG91dGZpbGUubWFlPic=

>  <r_lp_tautomer_probability>  (84) 
1

>  <r_epik_Ionization_Penalty>  (84) 
4.00192e-07

>  <r_epik_Ionization_Penalty_Charging>  (84) 
0

>  <r_epik_Ionization_Penalty_Neutral>  (84) 
4.00192e-07

>  <r_epik_State_Penalty>  (84) 
-0

>  <r_epik_Charging_Adjusted_Penalty>  (84) 
0

>  <i_epik_Tot_Q>  (84) 
0

>  <i_epik_Tot_abs_Q>  (84) 
0

>  <s_lp_Force_Field>  (84) 
OPLS3e

>  <r_lp_Energy>  (84) 
196.007

>  <b_lp_Chiralities_Consistent>  (84) 
1

>  <s_lp_Variant>  (84) 
33:0-1

>  <s_i_glide_gridfile>  (84) 
pfpi4k_grid

>  <i_i_glide_lignum>  (84) 
39

>  <i_i_glide_rotatable_bonds>  (84) 
4

>  <r_i_docking_score>  (84) 
-2.3642

>  <r_i_glide_ligand_efficiency>  (84) 
-0.0695354

>  <r_i_glide_ligand_efficiency_sa>  (84) 
-0.225268

>  <r_i_glide_ligand_efficiency_ln>  (84) 
-0.522319

>  <r_i_glide_gscore>  (84) 
-2.3642

>  <r_i_glide_lipo>  (84) 
-0.00301247

>  <r_i_glide_hbond>  (84) 
-0.070638

>  <r_i_glide_metal>  (84) 
-0

>  <r_i_glide_rewards>  (84) 
-0.173274

>  <r_i_glide_evdw>  (84) 
-14.3234

>  <r_i_glide_ecoul>  (84) 
-9.23189

>  <r_i_glide_erotb>  (84) 
0

>  <r_i_glide_esite>  (84) 
-0.0163266

>  <r_i_glide_emodel>  (84) 
-26.3994

>  <r_i_glide_energy>  (84) 
-23.5553

>  <r_i_glide_einternal>  (84) 
1.8148

>  <r_i_glide_intrahb_reward>  (84) 
-0

>  <i_i_glide_confnum>  (84) 
1

>  <i_i_glide_posenum>  (84) 
40

>  <r_i_glide_eff_state_penalty>  (84) 
0

>  <ligand_id>  (84) 
33

>  <original_smiles>  (84) 
COC1CC2(C)OC(C)(C)C3C4C5CC6OC64C4(C)C(O)CC(C2C4O)C5(C)C(=O)C=CC13O

>  <smiles>  (84) 
[H]OC1([H])C([H])([H])C2([H])C3([H])C([H])(O[H])C1(C([H])([H])[H])C14OC1([H])C([H])([H])C1([H])C4([H])C4([H])C(O[H])(C([H])=C([H])C(=O)C21C([H])([H])[H])C([H])(OC([H])([H])[H])C([H])([H])C3(C([H])([H])[H])OC4(C([H])([H])[H])C([H])([H])[H]

$$$$
33:0:1
     RDKit          3D

 72 78  0  0  1  0  0  0  0  0999 V2000
   -3.4252    2.5777    7.9590 C   0  0  0  0  0  0  0  0  0  0  0  0
   -2.6315    1.5145    7.4244 O   0  0  0  0  0  0  0  0  0  0  0  0
   -1.9887    1.7184    6.1733 C   0  0  2  0  0  0  0  0  0  0  0  0
   -2.0329    0.3405    5.4490 C   0  0  0  0  0  0  0  0  0  0  0  0
   -0.9818   -0.7584    5.7349 C   0  0  2  0  0  0  0  0  0  0  0  0
   -1.7378   -2.1543    5.9455 C   0  0  0  0  0  0  0  0  0  0  0  0
   -0.3924   -0.6838    7.0415 O   0  0  0  0  0  0  0  0  0  0  0  0
    0.5151    0.3105    7.4801 C   0  0  0  0  0  0  0  0  0  0  0  0
   -0.0442    0.6941    8.8775 C   0  0  0  0  0  0  0  0  0  0  0  0
    1.8351   -0.3634    7.9128 C   0  0  0  0  0  0  0  0  0  0  0  0
    0.7074    1.4959    6.4739 C   0  0  1  0  0  0  0  0  0  0  0  0
    1.7216    1.2674    5.2446 C   0  0  2  0  0  0  0  0  0  0  0  0
    1.6566    1.9940    3.9355 C   0  0  1  0  0  0  0  0  0  0  0  0
    3.1490    1.9621    3.4645 C   0  0  0  0  0  0  0  0  0  0  0  0
    3.8548    0.8011    4.0927 C   0  0  1  0  0  0  0  0  0  0  0  0
    4.0514    0.5895    5.4772 O   0  0  0  0  0  0  0  0  0  0  0  0
    2.7840    0.1674    4.9771 C   0  0  1  0  0  0  0  0  0  0  0  0
    2.5098   -1.2678    4.4028 C   0  0  2  0  0  0  0  0  0  0  0  0
    3.6538   -2.1905    4.8559 C   0  0  0  0  0  0  0  0  0  0  0  0
    2.4165   -1.2554    2.8276 C   0  0  1  0  0  0  0  0  0  0  0  0
    2.8032   -2.4800    2.2234 O   0  0  0  0  0  0  0  0  0  0  0  0
    1.0048   -1.0262    2.3069 C   0  0  0  0  0  0  0  0  0  0  0  0
    0.1415   -0.1210    3.2049 C   0  0  1  0  0  0  0  0  0  0  0  0
   -0.0374   -0.9893    4.5157 C   0  0  1  0  0  0  0  0  0  0  0  0
    1.1763   -1.8565    4.9224 C   0  0  1  0  0  0  0  0  0  0  0  0
    0.9661   -3.2095    4.4905 O   0  0  0  0  0  0  0  0  0  0  0  0
    0.5057    1.4264    3.0456 C   0  0  2  0  0  0  0  0  0  0  0  0
    0.9006    1.7185    1.5863 C   0  0  0  0  0  0  0  0  0  0  0  0
   -0.7809    2.3219    3.1702 C   0  0  0  0  0  0  0  0  0  0  0  0
   -1.7752    2.0387    2.5240 O   0  0  0  0  0  0  0  0  0  0  0  0
   -0.7356    3.5620    3.9587 C   0  0  0  0  0  0  0  0  0  0  0  0
   -0.5426    3.5781    5.2796 C   0  0  0  0  0  0  0  0  0  0  0  0
   -0.5965    2.4319    6.3053 C   0  0  1  0  0  0  0  0  0  0  0  0
   -0.6561    3.1750    7.5258 O   0  0  0  0  0  0  0  0  0  0  0  0
   -3.7015    2.2532    8.9553 H   0  0  0  0  0  0  0  0  0  0  0  0
   -4.3243    2.7351    7.3604 H   0  0  0  0  0  0  0  0  0  0  0  0
   -2.9239    3.5464    8.0903 H   0  0  0  0  0  0  0  0  0  0  0  0
   -2.6767    2.3755    5.6390 H   0  0  0  0  0  0  0  0  0  0  0  0
   -2.9754   -0.0921    5.7488 H   0  0  0  0  0  0  0  0  0  0  0  0
   -2.1938    0.4701    4.3752 H   0  0  0  0  0  0  0  0  0  0  0  0
   -2.5019   -2.2588    5.1733 H   0  0  0  0  0  0  0  0  0  0  0  0
   -2.3870   -2.3014    6.8240 H   0  0  0  0  0  0  0  0  0  0  0  0
   -0.9847   -2.9818    5.9986 H   0  0  0  0  0  0  0  0  0  0  0  0
    0.5738    1.4596    9.3443 H   0  0  0  0  0  0  0  0  0  0  0  0
   -0.0618   -0.1625    9.5571 H   0  0  0  0  0  0  0  0  0  0  0  0
   -1.0596    1.0617    8.9035 H   0  0  0  0  0  0  0  0  0  0  0  0
    2.4828    0.3674    8.3990 H   0  0  0  0  0  0  0  0  0  0  0  0
    2.4270   -0.8057    7.1337 H   0  0  0  0  0  0  0  0  0  0  0  0
    1.6539   -1.1811    8.6174 H   0  0  0  0  0  0  0  0  0  0  0  0
    1.3190    2.1239    7.1242 H   0  0  0  0  0  0  0  0  0  0  0  0
    2.4036    1.9843    5.6645 H   0  0  0  0  0  0  0  0  0  0  0  0
    1.5743    3.0740    4.0566 H   0  0  0  0  0  0  0  0  0  0  0  0
    3.2782    1.9490    2.3832 H   0  0  0  0  0  0  0  0  0  0  0  0
    3.6589    2.8845    3.7854 H   0  0  0  0  0  0  0  0  0  0  0  0
    4.5492    0.2536    3.4725 H   0  0  0  0  0  0  0  0  0  0  0  0
    3.4771   -3.2122    4.5287 H   0  0  0  0  0  0  0  0  0  0  0  0
    3.7320   -2.1984    5.9414 H   0  0  0  0  0  0  0  0  0  0  0  0
    4.5981   -1.8671    4.4258 H   0  0  0  0  0  0  0  0  0  0  0  0
    3.0186   -0.5099    2.3145 H   0  0  0  0  0  0  0  0  0  0  0  0
    2.8334   -2.3324    1.2869 H   0  0  0  0  0  0  0  0  0  0  0  0
    1.0198   -0.6915    1.2845 H   0  0  0  0  0  0  0  0  0  0  0  0
    0.5570   -2.0179    2.2541 H   0  0  0  0  0  0  0  0  0  0  0  0
   -0.8305   -0.1723    2.7218 H   0  0  0  0  0  0  0  0  0  0  0  0
   -0.6711   -1.7076    3.9836 H   0  0  0  0  0  0  0  0  0  0  0  0
    1.1985   -1.9704    5.9921 H   0  0  0  0  0  0  0  0  0  0  0  0
    1.1024   -3.2219    3.5484 H   0  0  0  0  0  0  0  0  0  0  0  0
    1.7387    1.1411    1.2009 H   0  0  0  0  0  0  0  0  0  0  0  0
    1.2527    2.7491    1.5559 H   0  0  0  0  0  0  0  0  0  0  0  0
    0.0560    1.5568    0.9007 H   0  0  0  0  0  0  0  0  0  0  0  0
   -0.7442    4.4750    3.4015 H   0  0  0  0  0  0  0  0  0  0  0  0
   -0.4618    4.5601    5.7113 H   0  0  0  0  0  0  0  0  0  0  0  0
    0.1800    3.6011    7.6258 H   0  0  0  0  0  0  0  0  0  0  0  0
  1  2  1  0
  1 35  1  0
  1 36  1  0
  1 37  1  0
  2  3  1  0
  3 33  1  0
  3  4  1  0
  3 38  1  6
  4  5  1  0
  4 39  1  0
  4 40  1  0
  5 24  1  0
  5  6  1  1
  5  7  1  0
  6 41  1  0
  6 42  1  0
  6 43  1  0
  7  8  1  0
  8  9  1  0
  8 10  1  0
  8 11  1  0
  9 44  1  0
  9 45  1  0
  9 46  1  0
 10 47  1  0
 10 48  1  0
 10 49  1  0
 11 33  1  0
 11 12  1  0
 11 50  1  1
 12 17  1  0
 12 13  1  0
 12 51  1  1
 13 27  1  0
 13 14  1  0
 13 52  1  1
 14 15  1  0
 14 53  1  0
 14 54  1  0
 15 17  1  0
 15 16  1  0
 15 55  1  6
 17 16  1  1
 17 18  1  0
 18 25  1  0
 18 19  1  6
 18 20  1  0
 19 56  1  0
 19 57  1  0
 19 58  1  0
 20 21  1  0
 20 22  1  0
 20 59  1  6
 21 60  1  0
 22 23  1  0
 22 61  1  0
 22 62  1  0
 23 24  1  0
 23 27  1  0
 23 63  1  6
 24 25  1  0
 24 64  1  6
 25 26  1  0
 25 65  1  1
 26 66  1  0
 27 28  1  6
 27 29  1  0
 28 67  1  0
 28 68  1  0
 28 69  1  0
 29 30  2  0
 29 31  1  0
 31 32  2  3
 31 70  1  0
 32 33  1  0
 32 71  1  0
 33 34  1  1
 34 72  1  0
M  END
>  <i_m_ct_stereo_status>  (85) 
1

>  <s_m_source_file>  (85) 
/var/tmp/pbs.5076255.sched01/tmpoa2zap1w/0_chicbso.sdf

>  <i_m_source_file_index>  (85) 
39

>  <i_lp_mmshare_version>  (85) 
48012

>  <i_f3d_flags>  (85) 
0

>  <s_epik_input>  (85) 
W0NAXTEyM1tDQEBIXTRbQ0BIXTVbQ0BdNihbT0hdKVtDQEhdKE9bQ0gzXSlbQ0gyXVtDQF0oW0NIM10pKE9DNShbQ0gzXSlbQ0gzXSlbQ0hdN1tDQEBIXShbQ0BdKFtDSDNdKShbQ0BASF00W0NIMl1bQ0BIXTFPMilDKD1PKS9bQ0hdPVtDSF1cNilbQ0gyXVtDQEhdKFtPSF0pW0NAXTMoW0NIM10pW0NAQEhdN1tPSF0=

>  <s_epik_cmdline>  (85) 
J2VwaWtfcHl0aG9uJywgJy1waHQnLCAnMi4wJywgJy1waCcsICc3LjAnLCAnLXRuJywgJzgnLCAnLW1hJywgJzIwMCcsICctaW1hZScsICc8aW5maWxlLm1hZT4nLCAnLW9tYWUnLCAnPG91dGZpbGUubWFlPic=

>  <r_lp_tautomer_probability>  (85) 
1

>  <r_epik_Ionization_Penalty>  (85) 
4.00192e-07

>  <r_epik_Ionization_Penalty_Charging>  (85) 
0

>  <r_epik_Ionization_Penalty_Neutral>  (85) 
4.00192e-07

>  <r_epik_State_Penalty>  (85) 
-0

>  <r_epik_Charging_Adjusted_Penalty>  (85) 
0

>  <i_epik_Tot_Q>  (85) 
0

>  <i_epik_Tot_abs_Q>  (85) 
0

>  <s_lp_Force_Field>  (85) 
OPLS3e

>  <r_lp_Energy>  (85) 
196.007

>  <b_lp_Chiralities_Consistent>  (85) 
1

>  <s_lp_Variant>  (85) 
33:0-1

>  <s_i_glide_gridfile>  (85) 
pfpi4k_grid

>  <i_i_glide_lignum>  (85) 
39

>  <i_i_glide_rotatable_bonds>  (85) 
4

>  <r_i_docking_score>  (85) 
-1.76224

>  <r_i_glide_ligand_efficiency>  (85) 
-0.0518305

>  <r_i_glide_ligand_efficiency_sa>  (85) 
-0.167911

>  <r_i_glide_ligand_efficiency_ln>  (85) 
-0.389327

>  <r_i_glide_gscore>  (85) 
-1.76224

>  <r_i_glide_lipo>  (85) 
-0.0604853

>  <r_i_glide_hbond>  (85) 
-0.120473

>  <r_i_glide_metal>  (85) 
-0

>  <r_i_glide_rewards>  (85) 
-0.173274

>  <r_i_glide_evdw>  (85) 
-11.4723

>  <r_i_glide_ecoul>  (85) 
-5.15712

>  <r_i_glide_erotb>  (85) 
0

>  <r_i_glide_esite>  (85) 
-0.0608187

>  <r_i_glide_emodel>  (85) 
-16.6844

>  <r_i_glide_energy>  (85) 
-16.6295

>  <r_i_glide_einternal>  (85) 
2.07662

>  <r_i_glide_intrahb_reward>  (85) 
-0

>  <i_i_glide_confnum>  (85) 
1

>  <i_i_glide_posenum>  (85) 
2

>  <r_i_glide_eff_state_penalty>  (85) 
0

>  <ligand_id>  (85) 
33

>  <original_smiles>  (85) 
COC1CC2(C)OC(C)(C)C3C4C5CC6OC64C4(C)C(O)CC(C2C4O)C5(C)C(=O)C=CC13O

>  <smiles>  (85) 
[H]OC1([H])C([H])([H])C2([H])C3([H])C([H])(O[H])C1(C([H])([H])[H])C14OC1([H])C([H])([H])C1([H])C4([H])C4([H])C(O[H])(C([H])=C([H])C(=O)C21C([H])([H])[H])C([H])(OC([H])([H])[H])C([H])([H])C3(C([H])([H])[H])OC4(C([H])([H])[H])C([H])([H])[H]

$$$$
33:0:2
     RDKit          3D

 72 78  0  0  1  0  0  0  0  0999 V2000
    4.3735   -3.3128    7.2781 C   0  0  0  0  0  0  0  0  0  0  0  0
    3.6585   -2.3582    6.5010 O   0  0  0  0  0  0  0  0  0  0  0  0
    2.7697   -1.5102    7.2273 C   0  0  2  0  0  0  0  0  0  0  0  0
    1.4352   -1.6648    6.4832 C   0  0  0  0  0  0  0  0  0  0  0  0
    1.1797   -0.8138    5.2202 C   0  0  2  0  0  0  0  0  0  0  0  0
    0.7035   -1.8258    4.1354 C   0  0  0  0  0  0  0  0  0  0  0  0
    2.3574   -0.4102    4.4885 O   0  0  0  0  0  0  0  0  0  0  0  0
    3.3096    0.5716    4.8921 C   0  0  0  0  0  0  0  0  0  0  0  0
    4.6856   -0.1116    4.6366 C   0  0  0  0  0  0  0  0  0  0  0  0
    3.4090    1.7193    3.8523 C   0  0  0  0  0  0  0  0  0  0  0  0
    3.0856    1.0789    6.3596 C   0  0  1  0  0  0  0  0  0  0  0  0
    1.9847    2.2458    6.5954 C   0  0  2  0  0  0  0  0  0  0  0  0
    1.2113    2.4993    7.8659 C   0  0  1  0  0  0  0  0  0  0  0  0
    0.8981    4.0357    7.7752 C   0  0  0  0  0  0  0  0  0  0  0  0
    0.8829    4.4489    6.3196 C   0  0  1  0  0  0  0  0  0  0  0  0
    1.9625    4.4035    5.3970 O   0  0  0  0  0  0  0  0  0  0  0  0
    1.2490    3.1737    5.5791 C   0  0  1  0  0  0  0  0  0  0  0  0
   -0.0127    2.7720    4.7163 C   0  0  2  0  0  0  0  0  0  0  0  0
   -0.0224    3.7036    3.4689 C   0  0  0  0  0  0  0  0  0  0  0  0
   -1.3907    2.9247    5.5111 C   0  0  1  0  0  0  0  0  0  0  0  0
   -2.4792    3.3168    4.6889 O   0  0  0  0  0  0  0  0  0  0  0  0
   -1.8310    1.6543    6.2571 C   0  0  0  0  0  0  0  0  0  0  0  0
   -0.6335    0.8096    6.7501 C   0  0  1  0  0  0  0  0  0  0  0  0
    0.0538    0.2845    5.3902 C   0  0  1  0  0  0  0  0  0  0  0  0
    0.0607    1.3095    4.2223 C   0  0  1  0  0  0  0  0  0  0  0  0
   -1.0026    1.0277    3.3214 O   0  0  0  0  0  0  0  0  0  0  0  0
    0.0752    1.4164    8.0767 C   0  0  2  0  0  0  0  0  0  0  0  0
   -0.9902    2.0516    9.0197 C   0  0  0  0  0  0  0  0  0  0  0  0
    0.5923    0.2569    8.9859 C   0  0  0  0  0  0  0  0  0  0  0  0
   -0.1622   -0.6818    9.2583 O   0  0  0  0  0  0  0  0  0  0  0  0
    1.9041    0.3480    9.6262 C   0  0  0  0  0  0  0  0  0  0  0  0
    3.0590    0.3335    8.9400 C   0  0  0  0  0  0  0  0  0  0  0  0
    3.3236   -0.0541    7.4818 C   0  0  1  0  0  0  0  0  0  0  0  0
    4.7280   -0.2409    7.5211 O   0  0  0  0  0  0  0  0  0  0  0  0
    5.0239   -3.8923    6.6230 H   0  0  0  0  0  0  0  0  0  0  0  0
    3.7017   -4.0115    7.7805 H   0  0  0  0  0  0  0  0  0  0  0  0
    4.9998   -2.8317    8.0298 H   0  0  0  0  0  0  0  0  0  0  0  0
    2.6147   -1.9891    8.1963 H   0  0  0  0  0  0  0  0  0  0  0  0
    1.3691   -2.7250    6.2342 H   0  0  0  0  0  0  0  0  0  0  0  0
    0.5880   -1.5766    7.1448 H   0  0  0  0  0  0  0  0  0  0  0  0
   -0.1977   -2.3696    4.4265 H   0  0  0  0  0  0  0  0  0  0  0  0
    1.4716   -2.5749    3.9318 H   0  0  0  0  0  0  0  0  0  0  0  0
    0.4954   -1.3333    3.1846 H   0  0  0  0  0  0  0  0  0  0  0  0
    5.5160    0.5303    4.9317 H   0  0  0  0  0  0  0  0  0  0  0  0
    4.8244   -0.3407    3.5810 H   0  0  0  0  0  0  0  0  0  0  0  0
    4.8368   -1.0642    5.1168 H   0  0  0  0  0  0  0  0  0  0  0  0
    4.2250    2.3939    4.0990 H   0  0  0  0  0  0  0  0  0  0  0  0
    2.5561    2.3616    3.7376 H   0  0  0  0  0  0  0  0  0  0  0  0
    3.5889    1.3311    2.8496 H   0  0  0  0  0  0  0  0  0  0  0  0
    4.0190    1.6423    6.4661 H   0  0  0  0  0  0  0  0  0  0  0  0
    2.7754    2.9580    6.8403 H   0  0  0  0  0  0  0  0  0  0  0  0
    1.8853    2.5458    8.7161 H   0  0  0  0  0  0  0  0  0  0  0  0
   -0.0271    4.3375    8.2515 H   0  0  0  0  0  0  0  0  0  0  0  0
    1.6767    4.6170    8.2704 H   0  0  0  0  0  0  0  0  0  0  0  0
    0.1253    5.1680    6.0098 H   0  0  0  0  0  0  0  0  0  0  0  0
   -0.8320    3.4675    2.7764 H   0  0  0  0  0  0  0  0  0  0  0  0
    0.9030    3.6291    2.8955 H   0  0  0  0  0  0  0  0  0  0  0  0
   -0.1571    4.7510    3.7408 H   0  0  0  0  0  0  0  0  0  0  0  0
   -1.3804    3.7071    6.2607 H   0  0  0  0  0  0  0  0  0  0  0  0
   -2.5725    2.6640    4.0073 H   0  0  0  0  0  0  0  0  0  0  0  0
   -2.5644    1.8874    7.0254 H   0  0  0  0  0  0  0  0  0  0  0  0
   -2.4076    1.0346    5.5724 H   0  0  0  0  0  0  0  0  0  0  0  0
   -1.1321   -0.0831    7.1175 H   0  0  0  0  0  0  0  0  0  0  0  0
   -0.7926   -0.3477    5.1159 H   0  0  0  0  0  0  0  0  0  0  0  0
    0.9111    1.1635    3.5735 H   0  0  0  0  0  0  0  0  0  0  0  0
   -0.8546    1.5312    2.5318 H   0  0  0  0  0  0  0  0  0  0  0  0
   -1.5080    2.9038    8.5886 H   0  0  0  0  0  0  0  0  0  0  0  0
   -0.5427    2.4030    9.9520 H   0  0  0  0  0  0  0  0  0  0  0  0
   -1.7764    1.3433    9.2864 H   0  0  0  0  0  0  0  0  0  0  0  0
    1.9184    0.5678   10.6844 H   0  0  0  0  0  0  0  0  0  0  0  0
    3.9420    0.5123    9.5373 H   0  0  0  0  0  0  0  0  0  0  0  0
    4.9775   -0.6781    6.7203 H   0  0  0  0  0  0  0  0  0  0  0  0
  1  2  1  0
  1 35  1  0
  1 36  1  0
  1 37  1  0
  2  3  1  0
  3 33  1  0
  3  4  1  0
  3 38  1  1
  4  5  1  0
  4 39  1  0
  4 40  1  0
  5 24  1  0
  5  6  1  6
  5  7  1  0
  6 41  1  0
  6 42  1  0
  6 43  1  0
  7  8  1  0
  8  9  1  0
  8 10  1  0
  8 11  1  0
  9 44  1  0
  9 45  1  0
  9 46  1  0
 10 47  1  0
 10 48  1  0
 10 49  1  0
 11 33  1  0
 11 12  1  0
 11 50  1  1
 12 17  1  0
 12 13  1  0
 12 51  1  1
 13 27  1  0
 13 14  1  0
 13 52  1  1
 14 15  1  0
 14 53  1  0
 14 54  1  0
 15 17  1  0
 15 16  1  0
 15 55  1  6
 17 16  1  6
 17 18  1  0
 18 25  1  0
 18 19  1  6
 18 20  1  0
 19 56  1  0
 19 57  1  0
 19 58  1  0
 20 21  1  0
 20 22  1  0
 20 59  1  1
 21 60  1  0
 22 23  1  0
 22 61  1  0
 22 62  1  0
 23 24  1  0
 23 27  1  0
 23 63  1  1
 24 25  1  0
 24 64  1  6
 25 26  1  0
 25 65  1  6
 26 66  1  0
 27 28  1  1
 27 29  1  0
 28 67  1  0
 28 68  1  0
 28 69  1  0
 29 30  2  0
 29 31  1  0
 31 32  2  3
 31 70  1  0
 32 33  1  0
 32 71  1  0
 33 34  1  1
 34 72  1  0
M  END
>  <i_m_ct_stereo_status>  (86) 
1

>  <s_m_source_file>  (86) 
/var/tmp/pbs.5076255.sched01/tmpoa2zap1w/0_chicbso.sdf

>  <i_m_source_file_index>  (86) 
39

>  <i_lp_mmshare_version>  (86) 
48012

>  <i_f3d_flags>  (86) 
0

>  <s_epik_input>  (86) 
W0NAXTEyM1tDQEBIXTRbQ0BIXTVbQ0BdNihbT0hdKVtDQEhdKE9bQ0gzXSlbQ0gyXVtDQF0oW0NIM10pKE9DNShbQ0gzXSlbQ0gzXSlbQ0hdN1tDQEBIXShbQ0BdKFtDSDNdKShbQ0BASF00W0NIMl1bQ0BIXTFPMilDKD1PKS9bQ0hdPVtDSF1cNilbQ0gyXVtDQEhdKFtPSF0pW0NAXTMoW0NIM10pW0NAQEhdN1tPSF0=

>  <s_epik_cmdline>  (86) 
J2VwaWtfcHl0aG9uJywgJy1waHQnLCAnMi4wJywgJy1waCcsICc3LjAnLCAnLXRuJywgJzgnLCAnLW1hJywgJzIwMCcsICctaW1hZScsICc8aW5maWxlLm1hZT4nLCAnLW9tYWUnLCAnPG91dGZpbGUubWFlPic=

>  <r_lp_tautomer_probability>  (86) 
1

>  <r_epik_Ionization_Penalty>  (86) 
4.00192e-07

>  <r_epik_Ionization_Penalty_Charging>  (86) 
0

>  <r_epik_Ionization_Penalty_Neutral>  (86) 
4.00192e-07

>  <r_epik_State_Penalty>  (86) 
-0

>  <r_epik_Charging_Adjusted_Penalty>  (86) 
0

>  <i_epik_Tot_Q>  (86) 
0

>  <i_epik_Tot_abs_Q>  (86) 
0

>  <s_lp_Force_Field>  (86) 
OPLS3e

>  <r_lp_Energy>  (86) 
196.007

>  <b_lp_Chiralities_Consistent>  (86) 
1

>  <s_lp_Variant>  (86) 
33:0-1

>  <s_i_glide_gridfile>  (86) 
pfpi4k_grid

>  <i_i_glide_lignum>  (86) 
39

>  <i_i_glide_rotatable_bonds>  (86) 
4

>  <r_i_docking_score>  (86) 
-1.40168

>  <r_i_glide_ligand_efficiency>  (86) 
-0.0412258

>  <r_i_glide_ligand_efficiency_sa>  (86) 
-0.133556

>  <r_i_glide_ligand_efficiency_ln>  (86) 
-0.30967

>  <r_i_glide_gscore>  (86) 
-1.40168

>  <r_i_glide_lipo>  (86) 
-0.0589843

>  <r_i_glide_hbond>  (86) 
-0.0664108

>  <r_i_glide_metal>  (86) 
-0

>  <r_i_glide_rewards>  (86) 
-0.173274

>  <r_i_glide_evdw>  (86) 
-15.1476

>  <r_i_glide_ecoul>  (86) 
-2.17913

>  <r_i_glide_erotb>  (86) 
0

>  <r_i_glide_esite>  (86) 
-0.01876

>  <r_i_glide_emodel>  (86) 
-19.4354

>  <r_i_glide_energy>  (86) 
-17.3267

>  <r_i_glide_einternal>  (86) 
0.490465

>  <r_i_glide_intrahb_reward>  (86) 
-0

>  <i_i_glide_confnum>  (86) 
1

>  <i_i_glide_posenum>  (86) 
16

>  <r_i_glide_eff_state_penalty>  (86) 
0

>  <ligand_id>  (86) 
33

>  <original_smiles>  (86) 
COC1CC2(C)OC(C)(C)C3C4C5CC6OC64C4(C)C(O)CC(C2C4O)C5(C)C(=O)C=CC13O

>  <smiles>  (86) 
[H]OC1([H])C([H])([H])C2([H])C3([H])C([H])(O[H])C1(C([H])([H])[H])C14OC1([H])C([H])([H])C1([H])C4([H])C4([H])C(O[H])(C([H])=C([H])C(=O)C21C([H])([H])[H])C([H])(OC([H])([H])[H])C([H])([H])C3(C([H])([H])[H])OC4(C([H])([H])[H])C([H])([H])[H]

$$$$
33:1:0
     RDKit          3D

 72 78  0  0  1  0  0  0  0  0999 V2000
   -0.5563    1.7526    2.5760 C   0  0  0  0  0  0  0  0  0  0  0  0
    0.0226    2.1533    3.8144 O   0  0  0  0  0  0  0  0  0  0  0  0
    0.9256    3.2537    3.7449 C   0  0  2  0  0  0  0  0  0  0  0  0
    2.0953    2.8121    4.6424 C   0  0  0  0  0  0  0  0  0  0  0  0
    1.8413    2.8606    6.1561 C   0  0  2  0  0  0  0  0  0  0  0  0
    2.1979    1.4251    6.6516 C   0  0  0  0  0  0  0  0  0  0  0  0
    0.4439    2.7644    6.5467 O   0  0  0  0  0  0  0  0  0  0  0  0
   -0.5430    3.7980    6.4412 C   0  0  0  0  0  0  0  0  0  0  0  0
   -1.8164    3.1616    5.8090 C   0  0  0  0  0  0  0  0  0  0  0  0
   -1.1184    4.1405    7.8451 C   0  0  0  0  0  0  0  0  0  0  0  0
   -0.0009    5.0222    5.6404 C   0  0  1  0  0  0  0  0  0  0  0  0
    0.8746    6.1315    6.4962 C   0  0  2  0  0  0  0  0  0  0  0  0
    1.8681    7.1852    5.9760 C   0  0  1  0  0  0  0  0  0  0  0  0
    1.6932    8.3457    7.0222 C   0  0  0  0  0  0  0  0  0  0  0  0
    1.3255    7.7334    8.3515 C   0  0  1  0  0  0  0  0  0  0  0  0
    0.1006    7.0765    8.6670 O   0  0  0  0  0  0  0  0  0  0  0  0
    1.1040    6.2583    8.0470 C   0  0  1  0  0  0  0  0  0  0  0  0
    2.1560    5.4368    8.9031 C   0  0  2  0  0  0  0  0  0  0  0  0
    1.6494    5.4255   10.3800 C   0  0  0  0  0  0  0  0  0  0  0  0
    3.6294    6.0396    8.8496 C   0  0  1  0  0  0  0  0  0  0  0  0
    4.3681    5.8517   10.0455 O   0  0  0  0  0  0  0  0  0  0  0  0
    4.5044    5.4748    7.7051 C   0  0  0  0  0  0  0  0  0  0  0  0
    3.6674    5.1695    6.4298 C   0  0  1  0  0  0  0  0  0  0  0  0
    2.7513    3.9053    6.9436 C   0  0  1  0  0  0  0  0  0  0  0  0
    2.2763    3.9850    8.4210 C   0  0  1  0  0  0  0  0  0  0  0  0
    3.1387    3.2393    9.2744 O   0  0  0  0  0  0  0  0  0  0  0  0
    3.2829    6.5633    5.6417 C   0  0  2  0  0  0  0  0  0  0  0  0
    4.3401    7.6814    5.9547 C   0  0  0  0  0  0  0  0  0  0  0  0
    3.4544    6.4089    4.0705 C   0  0  0  0  0  0  0  0  0  0  0  0
    4.4280    6.8912    3.4841 O   0  0  0  0  0  0  0  0  0  0  0  0
    2.5311    5.5905    3.3107 C   0  0  0  0  0  0  0  0  0  0  0  0
    1.2280    5.7445    3.5612 C   0  0  0  0  0  0  0  0  0  0  0  0
    0.3253    4.6722    4.0852 C   0  0  1  0  0  0  0  0  0  0  0  0
   -0.8332    4.8231    3.2809 O   0  0  0  0  0  0  0  0  0  0  0  0
   -1.2604    0.9415    2.7617 H   0  0  0  0  0  0  0  0  0  0  0  0
    0.2011    1.3894    1.8786 H   0  0  0  0  0  0  0  0  0  0  0  0
   -1.1087    2.5585    2.0955 H   0  0  0  0  0  0  0  0  0  0  0  0
    1.3010    3.2674    2.7207 H   0  0  0  0  0  0  0  0  0  0  0  0
    2.3444    1.8003    4.3169 H   0  0  0  0  0  0  0  0  0  0  0  0
    3.0325    3.3228    4.4636 H   0  0  0  0  0  0  0  0  0  0  0  0
    3.2379    1.1517    6.4572 H   0  0  0  0  0  0  0  0  0  0  0  0
    1.5807    0.6727    6.1557 H   0  0  0  0  0  0  0  0  0  0  0  0
    2.0237    1.3000    7.7202 H   0  0  0  0  0  0  0  0  0  0  0  0
   -2.7107    3.7460    6.0268 H   0  0  0  0  0  0  0  0  0  0  0  0
   -1.9847    2.1630    6.2095 H   0  0  0  0  0  0  0  0  0  0  0  0
   -1.8243    3.0693    4.7340 H   0  0  0  0  0  0  0  0  0  0  0  0
   -1.8579    4.9395    7.7833 H   0  0  0  0  0  0  0  0  0  0  0  0
   -0.4190    4.4600    8.5962 H   0  0  0  0  0  0  0  0  0  0  0  0
   -1.6111    3.2739    8.2892 H   0  0  0  0  0  0  0  0  0  0  0  0
   -0.9482    5.5468    5.4997 H   0  0  0  0  0  0  0  0  0  0  0  0
    0.0232    6.8100    6.4600 H   0  0  0  0  0  0  0  0  0  0  0  0
    1.5297    7.7506    5.1183 H   0  0  0  0  0  0  0  0  0  0  0  0
    2.5402    9.0175    7.1328 H   0  0  0  0  0  0  0  0  0  0  0  0
    0.8668    8.9989    6.7322 H   0  0  0  0  0  0  0  0  0  0  0  0
    1.8142    8.1243    9.2404 H   0  0  0  0  0  0  0  0  0  0  0  0
    2.2703    4.8178   11.0416 H   0  0  0  0  0  0  0  0  0  0  0  0
    0.6374    5.0281   10.4668 H   0  0  0  0  0  0  0  0  0  0  0  0
    1.6466    6.4261   10.8149 H   0  0  0  0  0  0  0  0  0  0  0  0
    3.6228    7.1165    8.7619 H   0  0  0  0  0  0  0  0  0  0  0  0
    4.4249    4.9196   10.2054 H   0  0  0  0  0  0  0  0  0  0  0  0
    5.3826    6.0920    7.5353 H   0  0  0  0  0  0  0  0  0  0  0  0
    4.9736    4.5486    8.0397 H   0  0  0  0  0  0  0  0  0  0  0  0
    4.3864    4.7068    5.7508 H   0  0  0  0  0  0  0  0  0  0  0  0
    3.6137    3.2425    7.0265 H   0  0  0  0  0  0  0  0  0  0  0  0
    1.3439    3.4589    8.5650 H   0  0  0  0  0  0  0  0  0  0  0  0
    2.7149    3.1618   10.1171 H   0  0  0  0  0  0  0  0  0  0  0  0
    4.3889    7.9929    6.9937 H   0  0  0  0  0  0  0  0  0  0  0  0
    4.1357    8.5935    5.3899 H   0  0  0  0  0  0  0  0  0  0  0  0
    5.3562    7.3727    5.7001 H   0  0  0  0  0  0  0  0  0  0  0  0
    2.9619    4.6524    3.0208 H   0  0  0  0  0  0  0  0  0  0  0  0
    0.7996    6.7155    3.7001 H   0  0  0  0  0  0  0  0  0  0  0  0
   -0.5825    4.6176    2.3709 H   0  0  0  0  0  0  0  0  0  0  0  0
  1  2  1  0
  1 35  1  0
  1 36  1  0
  1 37  1  0
  2  3  1  0
  3 33  1  0
  3  4  1  0
  3 38  1  6
  4  5  1  0
  4 39  1  0
  4 40  1  0
  5 24  1  0
  5  6  1  1
  5  7  1  0
  6 41  1  0
  6 42  1  0
  6 43  1  0
  7  8  1  0
  8  9  1  0
  8 10  1  0
  8 11  1  0
  9 44  1  0
  9 45  1  0
  9 46  1  0
 10 47  1  0
 10 48  1  0
 10 49  1  0
 11 33  1  0
 11 12  1  0
 11 50  1  6
 12 17  1  0
 12 13  1  0
 12 51  1  1
 13 27  1  0
 13 14  1  0
 13 52  1  6
 14 15  1  0
 14 53  1  0
 14 54  1  0
 15 17  1  0
 15 16  1  0
 15 55  1  1
 17 16  1  1
 17 18  1  0
 18 25  1  0
 18 19  1  1
 18 20  1  0
 19 56  1  0
 19 57  1  0
 19 58  1  0
 20 21  1  0
 20 22  1  0
 20 59  1  6
 21 60  1  0
 22 23  1  0
 22 61  1  0
 22 62  1  0
 23 24  1  0
 23 27  1  0
 23 63  1  6
 24 25  1  0
 24 64  1  1
 25 26  1  0
 25 65  1  6
 26 66  1  0
 27 28  1  1
 27 29  1  0
 28 67  1  0
 28 68  1  0
 28 69  1  0
 29 30  2  0
 29 31  1  0
 31 32  2  3
 31 70  1  0
 32 33  1  0
 32 71  1  0
 33 34  1  6
 34 72  1  0
M  END
>  <i_m_ct_stereo_status>  (87) 
1

>  <s_m_source_file>  (87) 
/var/tmp/pbs.5076255.sched01/tmpy176o0g7/39stoh4b52.sdf

>  <i_m_source_file_index>  (87) 
1

>  <i_lp_mmshare_version>  (87) 
48012

>  <i_f3d_flags>  (87) 
0

>  <s_epik_input>  (87) 
W0NAXTEyM1tDQEBIXTRbQ0BIXTVbQ0BdNihbT0hdKVtDQEhdKE9bQ0gzXSlbQ0gyXVtDQF0oW0NIM10pKE9DNShbQ0gzXSlbQ0gzXSlbQ0hdN1tDQEBIXShbQ0BdKFtDSDNdKShbQ0BASF00W0NIMl1bQ0BIXTFPMilDKD1PKS9bQ0hdPVtDSF1cNilbQ0gyXVtDQEhdKFtPSF0pW0NAXTMoW0NIM10pW0NAQEhdN1tPSF0=

>  <s_epik_cmdline>  (87) 
J2VwaWtfcHl0aG9uJywgJy1waHQnLCAnMi4wJywgJy1waCcsICc3LjAnLCAnLXRuJywgJzgnLCAnLW1hJywgJzIwMCcsICctaW1hZScsICc8aW5maWxlLm1hZT4nLCAnLW9tYWUnLCAnPG91dGZpbGUubWFlPic=

>  <r_lp_tautomer_probability>  (87) 
1

>  <r_epik_Ionization_Penalty>  (87) 
4.00192e-07

>  <r_epik_Ionization_Penalty_Charging>  (87) 
0

>  <r_epik_Ionization_Penalty_Neutral>  (87) 
4.00192e-07

>  <r_epik_State_Penalty>  (87) 
-0

>  <r_epik_Charging_Adjusted_Penalty>  (87) 
0

>  <i_epik_Tot_Q>  (87) 
0

>  <i_epik_Tot_abs_Q>  (87) 
0

>  <s_lp_Force_Field>  (87) 
OPLS3e

>  <r_lp_Energy>  (87) 
228.037

>  <b_lp_Chiralities_Consistent>  (87) 
1

>  <s_lp_Variant>  (87) 
33:0-2

>  <s_i_glide_gridfile>  (87) 
pfpi4k_grid

>  <i_i_glide_lignum>  (87) 
1

>  <i_i_glide_rotatable_bonds>  (87) 
4

>  <r_i_docking_score>  (87) 
-2.22178

>  <r_i_glide_ligand_efficiency>  (87) 
-0.0653464

>  <r_i_glide_ligand_efficiency_sa>  (87) 
-0.211697

>  <r_i_glide_ligand_efficiency_ln>  (87) 
-0.490853

>  <r_i_glide_gscore>  (87) 
-2.22178

>  <r_i_glide_lipo>  (87) 
-0.0513934

>  <r_i_glide_hbond>  (87) 
0

>  <r_i_glide_metal>  (87) 
-0

>  <r_i_glide_rewards>  (87) 
-0.211042

>  <r_i_glide_evdw>  (87) 
-19.1521

>  <r_i_glide_ecoul>  (87) 
-6.67827

>  <r_i_glide_erotb>  (87) 
0

>  <r_i_glide_esite>  (87) 
0

>  <r_i_glide_emodel>  (87) 
-29.8314

>  <r_i_glide_energy>  (87) 
-25.8303

>  <r_i_glide_einternal>  (87) 
0.349372

>  <r_i_glide_intrahb_reward>  (87) 
-0

>  <i_i_glide_confnum>  (87) 
2

>  <i_i_glide_posenum>  (87) 
17

>  <r_i_glide_eff_state_penalty>  (87) 
0

>  <ligand_id>  (87) 
33

>  <original_smiles>  (87) 
COC1CC2(C)OC(C)(C)C3C4C5CC6OC64C4(C)C(O)CC(C2C4O)C5(C)C(=O)C=CC13O

>  <smiles>  (87) 
[H]OC1([H])C([H])([H])C2([H])C3([H])C([H])(O[H])C1(C([H])([H])[H])C14OC1([H])C([H])([H])C1([H])C4([H])C4([H])C(O[H])(C([H])=C([H])C(=O)C21C([H])([H])[H])C([H])(OC([H])([H])[H])C([H])([H])C3(C([H])([H])[H])OC4(C([H])([H])[H])C([H])([H])[H]

$$$$
33:1:1
     RDKit          3D

 72 78  0  0  1  0  0  0  0  0999 V2000
   -1.3829   -1.8549    5.3326 C   0  0  0  0  0  0  0  0  0  0  0  0
   -0.8351   -0.5988    4.9563 O   0  0  0  0  0  0  0  0  0  0  0  0
   -1.1804    0.5171    5.7742 C   0  0  2  0  0  0  0  0  0  0  0  0
   -1.3317    1.6679    4.7626 C   0  0  0  0  0  0  0  0  0  0  0  0
   -0.0219    2.2430    4.2030 C   0  0  2  0  0  0  0  0  0  0  0  0
   -0.1990    2.1575    2.6573 C   0  0  0  0  0  0  0  0  0  0  0  0
    1.1069    1.3295    4.2346 O   0  0  0  0  0  0  0  0  0  0  0  0
    1.8789    0.9662    5.3834 C   0  0  0  0  0  0  0  0  0  0  0  0
    2.0386   -0.5811    5.3481 C   0  0  0  0  0  0  0  0  0  0  0  0
    3.3697    1.3638    5.1923 C   0  0  0  0  0  0  0  0  0  0  0  0
    1.2261    1.4909    6.6991 C   0  0  1  0  0  0  0  0  0  0  0  0
    1.5806    3.0420    7.1281 C   0  0  2  0  0  0  0  0  0  0  0  0
    0.8180    3.9755    8.0800 C   0  0  1  0  0  0  0  0  0  0  0  0
    1.9826    4.8425    8.6845 C   0  0  0  0  0  0  0  0  0  0  0  0
    3.0670    4.9726    7.6441 C   0  0  1  0  0  0  0  0  0  0  0  0
    3.9021    3.9218    7.1736 O   0  0  0  0  0  0  0  0  0  0  0  0
    2.6304    4.0412    6.5207 C   0  0  1  0  0  0  0  0  0  0  0  0
    2.4363    4.9203    5.2149 C   0  0  2  0  0  0  0  0  0  0  0  0
    3.8573    5.2652    4.6811 C   0  0  0  0  0  0  0  0  0  0  0  0
    1.6312    6.2686    5.4783 C   0  0  1  0  0  0  0  0  0  0  0  0
    2.0160    7.3612    4.6594 O   0  0  0  0  0  0  0  0  0  0  0  0
    0.1028    6.1288    5.3098 C   0  0  0  0  0  0  0  0  0  0  0  0
   -0.4074    4.7290    5.7548 C   0  0  1  0  0  0  0  0  0  0  0  0
    0.2512    3.7620    4.5991 C   0  0  1  0  0  0  0  0  0  0  0  0
    1.6694    4.1710    4.1093 C   0  0  1  0  0  0  0  0  0  0  0  0
    1.6046    4.9604    2.9165 O   0  0  0  0  0  0  0  0  0  0  0  0
   -0.4499    4.6270    7.3982 C   0  0  2  0  0  0  0  0  0  0  0  0
   -0.6060    6.0512    8.0408 C   0  0  0  0  0  0  0  0  0  0  0  0
   -1.7738    3.9116    7.9155 C   0  0  0  0  0  0  0  0  0  0  0  0
   -2.7000    4.5511    8.4167 O   0  0  0  0  0  0  0  0  0  0  0  0
   -1.9660    2.4915    7.6992 C   0  0  0  0  0  0  0  0  0  0  0  0
   -0.9462    1.6866    7.9894 C   0  0  0  0  0  0  0  0  0  0  0  0
   -0.2269    0.8291    6.9944 C   0  0  1  0  0  0  0  0  0  0  0  0
   -0.0828   -0.3876    7.7016 O   0  0  0  0  0  0  0  0  0  0  0  0
   -0.9908   -2.6119    4.6523 H   0  0  0  0  0  0  0  0  0  0  0  0
   -2.4727   -1.8497    5.2821 H   0  0  0  0  0  0  0  0  0  0  0  0
   -1.1015   -2.1629    6.3367 H   0  0  0  0  0  0  0  0  0  0  0  0
   -2.1805    0.2977    6.1479 H   0  0  0  0  0  0  0  0  0  0  0  0
   -1.9612    1.2741    3.9609 H   0  0  0  0  0  0  0  0  0  0  0  0
   -1.9276    2.5082    5.0982 H   0  0  0  0  0  0  0  0  0  0  0  0
   -1.0464    2.7435    2.2949 H   0  0  0  0  0  0  0  0  0  0  0  0
   -0.3669    1.1293    2.3304 H   0  0  0  0  0  0  0  0  0  0  0  0
    0.6858    2.5014    2.1222 H   0  0  0  0  0  0  0  0  0  0  0  0
    2.8877   -0.9123    5.9448 H   0  0  0  0  0  0  0  0  0  0  0  0
    2.2156   -0.9249    4.3294 H   0  0  0  0  0  0  0  0  0  0  0  0
    1.2137   -1.1578    5.7317 H   0  0  0  0  0  0  0  0  0  0  0  0
    3.9597    1.0959    6.0706 H   0  0  0  0  0  0  0  0  0  0  0  0
    3.5795    2.4021    5.0094 H   0  0  0  0  0  0  0  0  0  0  0  0
    3.8062    0.8471    4.3353 H   0  0  0  0  0  0  0  0  0  0  0  0
    1.8318    0.9193    7.4093 H   0  0  0  0  0  0  0  0  0  0  0  0
    2.2371    2.6604    7.9096 H   0  0  0  0  0  0  0  0  0  0  0  0
    0.5149    3.5285    9.0183 H   0  0  0  0  0  0  0  0  0  0  0  0
    1.6967    5.8183    9.0640 H   0  0  0  0  0  0  0  0  0  0  0  0
    2.4229    4.3368    9.5477 H   0  0  0  0  0  0  0  0  0  0  0  0
    3.5207    5.9520    7.5090 H   0  0  0  0  0  0  0  0  0  0  0  0
    3.8253    5.8034    3.7322 H   0  0  0  0  0  0  0  0  0  0  0  0
    4.4463    4.3658    4.5093 H   0  0  0  0  0  0  0  0  0  0  0  0
    4.4113    5.8975    5.3764 H   0  0  0  0  0  0  0  0  0  0  0  0
    1.8223    6.6623    6.4666 H   0  0  0  0  0  0  0  0  0  0  0  0
    1.6643    7.2215    3.7883 H   0  0  0  0  0  0  0  0  0  0  0  0
   -0.4114    6.9722    5.7599 H   0  0  0  0  0  0  0  0  0  0  0  0
   -0.1449    6.2697    4.2579 H   0  0  0  0  0  0  0  0  0  0  0  0
   -1.4635    4.7300    5.4941 H   0  0  0  0  0  0  0  0  0  0  0  0
   -0.3796    4.1814    3.8155 H   0  0  0  0  0  0  0  0  0  0  0  0
    2.2331    3.3105    3.7771 H   0  0  0  0  0  0  0  0  0  0  0  0
    1.0822    4.5290    2.2398 H   0  0  0  0  0  0  0  0  0  0  0  0
    0.2204    6.7314    7.8576 H   0  0  0  0  0  0  0  0  0  0  0  0
   -0.6986    5.9903    9.1273 H   0  0  0  0  0  0  0  0  0  0  0  0
   -1.4912    6.5763    7.6839 H   0  0  0  0  0  0  0  0  0  0  0  0
   -2.6595    2.2937    6.9046 H   0  0  0  0  0  0  0  0  0  0  0  0
   -0.3481    1.8475    8.8648 H   0  0  0  0  0  0  0  0  0  0  0  0
    0.6431   -0.3105    8.3030 H   0  0  0  0  0  0  0  0  0  0  0  0
  1  2  1  0
  1 35  1  0
  1 36  1  0
  1 37  1  0
  2  3  1  0
  3 33  1  0
  3  4  1  0
  3 38  1  1
  4  5  1  0
  4 39  1  0
  4 40  1  0
  5 24  1  0
  5  6  1  6
  5  7  1  0
  6 41  1  0
  6 42  1  0
  6 43  1  0
  7  8  1  0
  8  9  1  0
  8 10  1  0
  8 11  1  0
  9 44  1  0
  9 45  1  0
  9 46  1  0
 10 47  1  0
 10 48  1  0
 10 49  1  0
 11 33  1  0
 11 12  1  0
 11 50  1  1
 12 17  1  0
 12 13  1  0
 12 51  1  1
 13 27  1  0
 13 14  1  0
 13 52  1  1
 14 15  1  0
 14 53  1  0
 14 54  1  0
 15 17  1  0
 15 16  1  0
 15 55  1  6
 17 16  1  6
 17 18  1  0
 18 25  1  0
 18 19  1  6
 18 20  1  0
 19 56  1  0
 19 57  1  0
 19 58  1  0
 20 21  1  0
 20 22  1  0
 20 59  1  1
 21 60  1  0
 22 23  1  0
 22 61  1  0
 22 62  1  0
 23 24  1  0
 23 27  1  0
 23 63  1  6
 24 25  1  0
 24 64  1  6
 25 26  1  0
 25 65  1  6
 26 66  1  0
 27 28  1  1
 27 29  1  0
 28 67  1  0
 28 68  1  0
 28 69  1  0
 29 30  2  0
 29 31  1  0
 31 32  2  3
 31 70  1  0
 32 33  1  0
 32 71  1  0
 33 34  1  1
 34 72  1  0
M  END
>  <i_m_ct_stereo_status>  (88) 
1

>  <s_m_source_file>  (88) 
/var/tmp/pbs.5076255.sched01/tmpy176o0g7/39stoh4b52.sdf

>  <i_m_source_file_index>  (88) 
1

>  <i_lp_mmshare_version>  (88) 
48012

>  <i_f3d_flags>  (88) 
0

>  <s_epik_input>  (88) 
W0NAXTEyM1tDQEBIXTRbQ0BIXTVbQ0BdNihbT0hdKVtDQEhdKE9bQ0gzXSlbQ0gyXVtDQF0oW0NIM10pKE9DNShbQ0gzXSlbQ0gzXSlbQ0hdN1tDQEBIXShbQ0BdKFtDSDNdKShbQ0BASF00W0NIMl1bQ0BIXTFPMilDKD1PKS9bQ0hdPVtDSF1cNilbQ0gyXVtDQEhdKFtPSF0pW0NAXTMoW0NIM10pW0NAQEhdN1tPSF0=

>  <s_epik_cmdline>  (88) 
J2VwaWtfcHl0aG9uJywgJy1waHQnLCAnMi4wJywgJy1waCcsICc3LjAnLCAnLXRuJywgJzgnLCAnLW1hJywgJzIwMCcsICctaW1hZScsICc8aW5maWxlLm1hZT4nLCAnLW9tYWUnLCAnPG91dGZpbGUubWFlPic=

>  <r_lp_tautomer_probability>  (88) 
1

>  <r_epik_Ionization_Penalty>  (88) 
4.00192e-07

>  <r_epik_Ionization_Penalty_Charging>  (88) 
0

>  <r_epik_Ionization_Penalty_Neutral>  (88) 
4.00192e-07

>  <r_epik_State_Penalty>  (88) 
-0

>  <r_epik_Charging_Adjusted_Penalty>  (88) 
0

>  <i_epik_Tot_Q>  (88) 
0

>  <i_epik_Tot_abs_Q>  (88) 
0

>  <s_lp_Force_Field>  (88) 
OPLS3e

>  <r_lp_Energy>  (88) 
228.037

>  <b_lp_Chiralities_Consistent>  (88) 
1

>  <s_lp_Variant>  (88) 
33:0-2

>  <s_i_glide_gridfile>  (88) 
pfpi4k_grid

>  <i_i_glide_lignum>  (88) 
1

>  <i_i_glide_rotatable_bonds>  (88) 
4

>  <r_i_docking_score>  (88) 
-1.81985

>  <r_i_glide_ligand_efficiency>  (88) 
-0.053525

>  <r_i_glide_ligand_efficiency_sa>  (88) 
-0.1734

>  <r_i_glide_ligand_efficiency_ln>  (88) 
-0.402056

>  <r_i_glide_gscore>  (88) 
-1.81985

>  <r_i_glide_lipo>  (88) 
0

>  <r_i_glide_hbond>  (88) 
0

>  <r_i_glide_metal>  (88) 
-0

>  <r_i_glide_rewards>  (88) 
-0.180543

>  <r_i_glide_evdw>  (88) 
-20.3378

>  <r_i_glide_ecoul>  (88) 
-4.14943

>  <r_i_glide_erotb>  (88) 
0

>  <r_i_glide_esite>  (88) 
0

>  <r_i_glide_emodel>  (88) 
-27.194

>  <r_i_glide_energy>  (88) 
-24.4873

>  <r_i_glide_einternal>  (88) 
1.03871

>  <r_i_glide_intrahb_reward>  (88) 
-0

>  <i_i_glide_confnum>  (88) 
2

>  <i_i_glide_posenum>  (88) 
7

>  <r_i_glide_eff_state_penalty>  (88) 
0

>  <ligand_id>  (88) 
33

>  <original_smiles>  (88) 
COC1CC2(C)OC(C)(C)C3C4C5CC6OC64C4(C)C(O)CC(C2C4O)C5(C)C(=O)C=CC13O

>  <smiles>  (88) 
[H]OC1([H])C([H])([H])C2([H])C3([H])C([H])(O[H])C1(C([H])([H])[H])C14OC1([H])C([H])([H])C1([H])C4([H])C4([H])C(O[H])(C([H])=C([H])C(=O)C21C([H])([H])[H])C([H])(OC([H])([H])[H])C([H])([H])C3(C([H])([H])[H])OC4(C([H])([H])[H])C([H])([H])[H]

$$$$
33:1:2
     RDKit          3D

 72 78  0  0  1  0  0  0  0  0999 V2000
   -2.9724    2.5540    9.4713 C   0  0  0  0  0  0  0  0  0  0  0  0
   -2.2263    1.9721    8.4055 O   0  0  0  0  0  0  0  0  0  0  0  0
   -1.5561    2.8887    7.5445 C   0  0  2  0  0  0  0  0  0  0  0  0
   -1.7815    2.2959    6.1435 C   0  0  0  0  0  0  0  0  0  0  0  0
   -0.9470    1.0559    5.7994 C   0  0  2  0  0  0  0  0  0  0  0  0
   -1.9904   -0.0088    5.3479 C   0  0  0  0  0  0  0  0  0  0  0  0
   -0.5068    0.2831    6.9499 O   0  0  0  0  0  0  0  0  0  0  0  0
    0.5638    0.6284    7.8402 C   0  0  0  0  0  0  0  0  0  0  0  0
    0.0380    0.4043    9.2890 C   0  0  0  0  0  0  0  0  0  0  0  0
    1.6734   -0.4596    7.8188 C   0  0  0  0  0  0  0  0  0  0  0  0
    1.0733    2.0807    7.5860 C   0  0  1  0  0  0  0  0  0  0  0  0
    2.1998    2.2694    6.3980 C   0  0  2  0  0  0  0  0  0  0  0  0
    2.5863    3.5460    5.6339 C   0  0  1  0  0  0  0  0  0  0  0  0
    4.1100    3.3008    5.3435 C   0  0  0  0  0  0  0  0  0  0  0  0
    4.3305    1.8149    5.1975 C   0  0  1  0  0  0  0  0  0  0  0  0
    4.2313    0.8469    6.2351 O   0  0  0  0  0  0  0  0  0  0  0  0
    3.0016    1.1907    5.5831 C   0  0  1  0  0  0  0  0  0  0  0  0
    2.4656    0.3852    4.3255 C   0  0  2  0  0  0  0  0  0  0  0  0
    3.3039   -0.9272    4.2313 C   0  0  0  0  0  0  0  0  0  0  0  0
    2.5754    1.1871    2.9539 C   0  0  1  0  0  0  0  0  0  0  0  0
    2.8584    0.3826    1.8163 O   0  0  0  0  0  0  0  0  0  0  0  0
    1.3392    2.0478    2.6154 C   0  0  0  0  0  0  0  0  0  0  0  0
    0.6743    2.6357    3.8908 C   0  0  1  0  0  0  0  0  0  0  0  0
    0.0887    1.2758    4.6078 C   0  0  1  0  0  0  0  0  0  0  0  0
    0.9876    0.0143    4.4834 C   0  0  1  0  0  0  0  0  0  0  0  0
    0.5412   -0.8346    3.4332 O   0  0  0  0  0  0  0  0  0  0  0  0
    1.5581    3.8950    4.4808 C   0  0  2  0  0  0  0  0  0  0  0  0
    2.3859    4.5775    3.3344 C   0  0  0  0  0  0  0  0  0  0  0  0
    0.6228    5.0954    4.9356 C   0  0  0  0  0  0  0  0  0  0  0  0
    0.4746    6.1067    4.2448 O   0  0  0  0  0  0  0  0  0  0  0  0
   -0.1948    4.9738    6.1236 C   0  0  0  0  0  0  0  0  0  0  0  0
    0.3703    4.4807    7.2268 C   0  0  0  0  0  0  0  0  0  0  0  0
   -0.0506    3.2084    7.8904 C   0  0  1  0  0  0  0  0  0  0  0  0
   -0.0207    3.5579    9.2576 O   0  0  0  0  0  0  0  0  0  0  0  0
   -3.3905    1.7655   10.0916 H   0  0  0  0  0  0  0  0  0  0  0  0
   -3.8028    3.1526    9.0973 H   0  0  0  0  0  0  0  0  0  0  0  0
   -2.3609    3.1751   10.1238 H   0  0  0  0  0  0  0  0  0  0  0  0
   -2.1360    3.8113    7.5934 H   0  0  0  0  0  0  0  0  0  0  0  0
   -2.8495    2.0859    6.0963 H   0  0  0  0  0  0  0  0  0  0  0  0
   -1.6698    2.9864    5.3165 H   0  0  0  0  0  0  0  0  0  0  0  0
   -2.5668    0.3084    4.4823 H   0  0  0  0  0  0  0  0  0  0  0  0
   -2.7175   -0.2076    6.1334 H   0  0  0  0  0  0  0  0  0  0  0  0
   -1.5308   -0.9668    5.1056 H   0  0  0  0  0  0  0  0  0  0  0  0
    0.8562    0.2903   10.0006 H   0  0  0  0  0  0  0  0  0  0  0  0
   -0.5578   -0.5050    9.3507 H   0  0  0  0  0  0  0  0  0  0  0  0
   -0.5584    1.1960    9.7146 H   0  0  0  0  0  0  0  0  0  0  0  0
    2.4922   -0.1923    8.4891 H   0  0  0  0  0  0  0  0  0  0  0  0
    2.1398   -0.6682    6.8736 H   0  0  0  0  0  0  0  0  0  0  0  0
    1.2858   -1.4252    8.1470 H   0  0  0  0  0  0  0  0  0  0  0  0
    1.6808    2.1973    8.4891 H   0  0  0  0  0  0  0  0  0  0  0  0
    2.9601    2.4138    7.1667 H   0  0  0  0  0  0  0  0  0  0  0  0
    2.7290    4.4283    6.2454 H   0  0  0  0  0  0  0  0  0  0  0  0
    4.5077    3.8422    4.4923 H   0  0  0  0  0  0  0  0  0  0  0  0
    4.7168    3.6324    6.1896 H   0  0  0  0  0  0  0  0  0  0  0  0
    4.9587    1.4709    4.3801 H   0  0  0  0  0  0  0  0  0  0  0  0
    2.9532   -1.5866    3.4359 H   0  0  0  0  0  0  0  0  0  0  0  0
    3.2634   -1.5087    5.1527 H   0  0  0  0  0  0  0  0  0  0  0  0
    4.3542   -0.7244    4.0174 H   0  0  0  0  0  0  0  0  0  0  0  0
    3.4208    1.8540    2.9600 H   0  0  0  0  0  0  0  0  0  0  0  0
    2.0678   -0.0126    1.4799 H   0  0  0  0  0  0  0  0  0  0  0  0
    1.5714    2.7825    1.8493 H   0  0  0  0  0  0  0  0  0  0  0  0
    0.6040    1.4388    2.0947 H   0  0  0  0  0  0  0  0  0  0  0  0
   -0.2167    3.1384    3.5083 H   0  0  0  0  0  0  0  0  0  0  0  0
   -0.6366    1.1125    3.8114 H   0  0  0  0  0  0  0  0  0  0  0  0
    0.8568   -0.6484    5.3239 H   0  0  0  0  0  0  0  0  0  0  0  0
    0.6031   -0.3619    2.6188 H   0  0  0  0  0  0  0  0  0  0  0  0
    3.1403    3.9459    2.8753 H   0  0  0  0  0  0  0  0  0  0  0  0
    2.9235    5.4565    3.6955 H   0  0  0  0  0  0  0  0  0  0  0  0
    1.7529    4.9108    2.5087 H   0  0  0  0  0  0  0  0  0  0  0  0
   -1.2233    4.8034    5.8793 H   0  0  0  0  0  0  0  0  0  0  0  0
    1.3644    4.7569    7.5207 H   0  0  0  0  0  0  0  0  0  0  0  0
   -0.7540    4.1259    9.4387 H   0  0  0  0  0  0  0  0  0  0  0  0
  1  2  1  0
  1 35  1  0
  1 36  1  0
  1 37  1  0
  2  3  1  0
  3 33  1  0
  3  4  1  0
  3 38  1  6
  4  5  1  0
  4 39  1  0
  4 40  1  0
  5 24  1  0
  5  6  1  6
  5  7  1  0
  6 41  1  0
  6 42  1  0
  6 43  1  0
  7  8  1  0
  8  9  1  0
  8 10  1  0
  8 11  1  0
  9 44  1  0
  9 45  1  0
  9 46  1  0
 10 47  1  0
 10 48  1  0
 10 49  1  0
 11 33  1  0
 11 12  1  0
 11 50  1  1
 12 17  1  0
 12 13  1  0
 12 51  1  1
 13 27  1  0
 13 14  1  0
 13 52  1  1
 14 15  1  0
 14 53  1  0
 14 54  1  0
 15 17  1  0
 15 16  1  0
 15 55  1  6
 17 16  1  1
 17 18  1  0
 18 25  1  0
 18 19  1  6
 18 20  1  0
 19 56  1  0
 19 57  1  0
 19 58  1  0
 20 21  1  0
 20 22  1  0
 20 59  1  1
 21 60  1  0
 22 23  1  0
 22 61  1  0
 22 62  1  0
 23 24  1  0
 23 27  1  0
 23 63  1  6
 24 25  1  0
 24 64  1  6
 25 26  1  0
 25 65  1  1
 26 66  1  0
 27 28  1  6
 27 29  1  0
 28 67  1  0
 28 68  1  0
 28 69  1  0
 29 30  2  0
 29 31  1  0
 31 32  2  3
 31 70  1  0
 32 33  1  0
 32 71  1  0
 33 34  1  1
 34 72  1  0
M  END
>  <i_m_ct_stereo_status>  (89) 
1

>  <s_m_source_file>  (89) 
/var/tmp/pbs.5076255.sched01/tmpy176o0g7/39stoh4b52.sdf

>  <i_m_source_file_index>  (89) 
1

>  <i_lp_mmshare_version>  (89) 
48012

>  <i_f3d_flags>  (89) 
0

>  <s_epik_input>  (89) 
W0NAXTEyM1tDQEBIXTRbQ0BIXTVbQ0BdNihbT0hdKVtDQEhdKE9bQ0gzXSlbQ0gyXVtDQF0oW0NIM10pKE9DNShbQ0gzXSlbQ0gzXSlbQ0hdN1tDQEBIXShbQ0BdKFtDSDNdKShbQ0BASF00W0NIMl1bQ0BIXTFPMilDKD1PKS9bQ0hdPVtDSF1cNilbQ0gyXVtDQEhdKFtPSF0pW0NAXTMoW0NIM10pW0NAQEhdN1tPSF0=

>  <s_epik_cmdline>  (89) 
J2VwaWtfcHl0aG9uJywgJy1waHQnLCAnMi4wJywgJy1waCcsICc3LjAnLCAnLXRuJywgJzgnLCAnLW1hJywgJzIwMCcsICctaW1hZScsICc8aW5maWxlLm1hZT4nLCAnLW9tYWUnLCAnPG91dGZpbGUubWFlPic=

>  <r_lp_tautomer_probability>  (89) 
1

>  <r_epik_Ionization_Penalty>  (89) 
4.00192e-07

>  <r_epik_Ionization_Penalty_Charging>  (89) 
0

>  <r_epik_Ionization_Penalty_Neutral>  (89) 
4.00192e-07

>  <r_epik_State_Penalty>  (89) 
-0

>  <r_epik_Charging_Adjusted_Penalty>  (89) 
0

>  <i_epik_Tot_Q>  (89) 
0

>  <i_epik_Tot_abs_Q>  (89) 
0

>  <s_lp_Force_Field>  (89) 
OPLS3e

>  <r_lp_Energy>  (89) 
228.037

>  <b_lp_Chiralities_Consistent>  (89) 
1

>  <s_lp_Variant>  (89) 
33:0-2

>  <s_i_glide_gridfile>  (89) 
pfpi4k_grid

>  <i_i_glide_lignum>  (89) 
1

>  <i_i_glide_rotatable_bonds>  (89) 
4

>  <r_i_docking_score>  (89) 
-1.66925

>  <r_i_glide_ligand_efficiency>  (89) 
-0.0490956

>  <r_i_glide_ligand_efficiency_sa>  (89) 
-0.159051

>  <r_i_glide_ligand_efficiency_ln>  (89) 
-0.368784

>  <r_i_glide_gscore>  (89) 
-1.66925

>  <r_i_glide_lipo>  (89) 
-0.0286122

>  <r_i_glide_hbond>  (89) 
-0.00358184

>  <r_i_glide_metal>  (89) 
-0

>  <r_i_glide_rewards>  (89) 
-0.173274

>  <r_i_glide_evdw>  (89) 
-21.5285

>  <r_i_glide_ecoul>  (89) 
-2.39898

>  <r_i_glide_erotb>  (89) 
0

>  <r_i_glide_esite>  (89) 
-0.02751

>  <r_i_glide_emodel>  (89) 
-26.6979

>  <r_i_glide_energy>  (89) 
-23.9275

>  <r_i_glide_einternal>  (89) 
0.34386

>  <r_i_glide_intrahb_reward>  (89) 
-0

>  <i_i_glide_confnum>  (89) 
1

>  <i_i_glide_posenum>  (89) 
15

>  <r_i_glide_eff_state_penalty>  (89) 
0

>  <ligand_id>  (89) 
33

>  <original_smiles>  (89) 
COC1CC2(C)OC(C)(C)C3C4C5CC6OC64C4(C)C(O)CC(C2C4O)C5(C)C(=O)C=CC13O

>  <smiles>  (89) 
[H]OC1([H])C([H])([H])C2([H])C3([H])C([H])(O[H])C1(C([H])([H])[H])C14OC1([H])C([H])([H])C1([H])C4([H])C4([H])C(O[H])(C([H])=C([H])C(=O)C21C([H])([H])[H])C([H])(OC([H])([H])[H])C([H])([H])C3(C([H])([H])[H])OC4(C([H])([H])[H])C([H])([H])[H]

$$$$
35:0:0
     RDKit          3D

 56 61  0  0  1  0  0  0  0  0999 V2000
    4.4174   -7.6135    3.1500 C   0  0  0  0  0  0  0  0  0  0  0  0
    3.9577   -6.5474    2.1432 C   0  0  2  0  0  0  0  0  0  0  0  0
    4.9246   -6.4656    0.9131 C   0  0  0  0  0  0  0  0  0  0  0  0
    4.7639   -5.2256   -0.0342 C   0  0  0  0  0  0  0  0  0  0  0  0
    4.4246   -3.8251    0.6158 C   0  0  1  0  0  0  0  0  0  0  0  0
    5.6768   -3.2212    1.3377 C   0  0  1  0  0  0  0  0  0  0  0  0
    6.7194   -2.8829    0.4621 O   0  0  0  0  0  0  0  0  0  0  0  0
    6.5092   -2.4629   -0.8173 C   0  0  0  0  0  0  0  0  0  0  0  0
    7.4825   -2.2936   -1.5404 O   0  0  0  0  0  0  0  0  0  0  0  0
    5.0983   -2.1491   -1.2764 C   0  0  1  0  0  0  0  0  0  0  0  0
    4.8984   -0.6689   -1.7009 C   0  0  0  0  0  0  0  0  0  0  0  0
    4.4795   -1.1305   -3.0928 C   0  0  0  0  0  0  0  0  0  0  0  0
    4.1089   -0.5646   -4.1289 O   0  0  0  0  0  0  0  0  0  0  0  0
    4.8288   -2.5577   -2.7333 C   0  0  2  0  0  0  0  0  0  0  0  0
    3.6128   -3.4059   -2.7826 C   0  0  0  0  0  0  0  0  0  0  0  0
    2.9045   -3.1793   -1.4340 C   0  0  0  0  0  0  0  0  0  0  0  0
    3.9853   -2.7444   -0.4167 C   0  0  1  0  0  0  0  0  0  0  0  0
    5.3622   -2.1361    2.1793 O   0  0  0  0  0  0  0  0  0  0  0  0
    4.5182   -2.1818    3.3675 C   0  0  2  0  0  0  0  0  0  0  0  0
    5.0102   -0.9160    4.0977 C   0  0  0  0  0  0  0  0  0  0  0  0
    4.6063   -3.3825    4.3928 C   0  0  0  0  0  0  0  0  0  0  0  0
    3.7613   -4.6788    4.1531 C   0  0  0  0  0  0  0  0  0  0  0  0
    3.9477   -5.1161    2.7091 C   0  0  2  0  0  0  0  0  0  0  0  0
    3.3335   -4.1619    1.6552 C   0  0  1  0  0  0  0  0  0  0  0  0
    2.4016   -3.0385    2.1725 C   0  0  0  0  0  0  0  0  0  0  0  0
    3.0824   -1.8948    2.9219 C   0  0  0  0  0  0  0  0  0  0  0  0
    5.4089   -7.3894    3.5457 H   0  0  0  0  0  0  0  0  0  0  0  0
    4.4630   -8.5982    2.6865 H   0  0  0  0  0  0  0  0  0  0  0  0
    3.7306   -7.6847    3.9940 H   0  0  0  0  0  0  0  0  0  0  0  0
    2.9553   -6.8274    1.8038 H   0  0  0  0  0  0  0  0  0  0  0  0
    5.9539   -6.4725    1.2804 H   0  0  0  0  0  0  0  0  0  0  0  0
    4.8265   -7.3747    0.3238 H   0  0  0  0  0  0  0  0  0  0  0  0
    5.6191   -5.1563   -0.7021 H   0  0  0  0  0  0  0  0  0  0  0  0
    3.9376   -5.4933   -0.6886 H   0  0  0  0  0  0  0  0  0  0  0  0
    6.2259   -3.9310    1.9424 H   0  0  0  0  0  0  0  0  0  0  0  0
    4.1270   -0.1998   -1.1106 H   0  0  0  0  0  0  0  0  0  0  0  0
    5.8134   -0.0932   -1.6946 H   0  0  0  0  0  0  0  0  0  0  0  0
    5.6838   -2.9556   -3.2748 H   0  0  0  0  0  0  0  0  0  0  0  0
    2.9496   -3.2196   -3.6336 H   0  0  0  0  0  0  0  0  0  0  0  0
    4.0631   -4.3745   -2.8959 H   0  0  0  0  0  0  0  0  0  0  0  0
    2.2430   -2.3272   -1.5613 H   0  0  0  0  0  0  0  0  0  0  0  0
    2.2763   -4.0096   -1.1047 H   0  0  0  0  0  0  0  0  0  0  0  0
    3.5744   -1.9133    0.1583 H   0  0  0  0  0  0  0  0  0  0  0  0
    4.4224   -0.6989    4.9892 H   0  0  0  0  0  0  0  0  0  0  0  0
    4.9661   -0.0437    3.4477 H   0  0  0  0  0  0  0  0  0  0  0  0
    6.0393   -1.0180    4.4120 H   0  0  0  0  0  0  0  0  0  0  0  0
    5.6557   -3.6532    4.5174 H   0  0  0  0  0  0  0  0  0  0  0  0
    4.2989   -3.0183    5.3715 H   0  0  0  0  0  0  0  0  0  0  0  0
    4.1330   -5.4497    4.8279 H   0  0  0  0  0  0  0  0  0  0  0  0
    2.7126   -4.5401    4.4096 H   0  0  0  0  0  0  0  0  0  0  0  0
    5.0210   -5.0594    2.7804 H   0  0  0  0  0  0  0  0  0  0  0  0
    2.5983   -4.7551    1.1165 H   0  0  0  0  0  0  0  0  0  0  0  0
    1.8247   -2.6146    1.3495 H   0  0  0  0  0  0  0  0  0  0  0  0
    1.6384   -3.4749    2.8138 H   0  0  0  0  0  0  0  0  0  0  0  0
    2.4689   -1.6325    3.7886 H   0  0  0  0  0  0  0  0  0  0  0  0
    3.0867   -1.0101    2.2839 H   0  0  0  0  0  0  0  0  0  0  0  0
  1  2  1  0
  1 27  1  0
  1 28  1  0
  1 29  1  0
  2 23  1  0
  2  3  1  0
  2 30  1  6
  3  4  1  0
  3 31  1  0
  3 32  1  0
  5  4  1  6
  4 33  1  0
  4 34  1  0
  5 17  1  0
  5 24  1  0
  5  6  1  0
  6  7  1  0
  6 18  1  0
  6 35  1  1
  7  8  1  0
  8  9  2  0
  8 10  1  0
 10 14  1  0
 10 17  1  0
 10 11  1  6
 11 12  1  0
 11 36  1  0
 11 37  1  0
 12 13  2  0
 12 14  1  0
 14 15  1  0
 14 38  1  6
 15 16  1  0
 15 39  1  0
 15 40  1  0
 16 17  1  0
 16 41  1  0
 16 42  1  0
 17 43  1  1
 18 19  1  0
 19 26  1  0
 19 20  1  1
 19 21  1  0
 20 44  1  0
 20 45  1  0
 20 46  1  0
 21 22  1  0
 21 47  1  0
 21 48  1  0
 22 23  1  0
 22 49  1  0
 22 50  1  0
 23 24  1  0
 23 51  1  6
 24 25  1  0
 24 52  1  6
 25 26  1  0
 25 53  1  0
 25 54  1  0
 26 55  1  0
 26 56  1  0
M  END
>  <i_m_ct_stereo_status>  (90) 
1

>  <s_m_source_file>  (90) 
/var/tmp/pbs.5076255.sched01/tmpy176o0g7/39stoh4b52.sdf

>  <i_m_source_file_index>  (90) 
3

>  <i_lp_mmshare_version>  (90) 
48012

>  <i_f3d_flags>  (90) 
0

>  <s_epik_input>  (90) 
W0NIMl0xW0NIMl1bQ0BASF0oW0NIM10pW0NAQEhdKFtDQEhdMltDSDJdW0NIMl0zKVtDSDJdW0NIMl1bQ0BAXTMoW0NIM10pT1tDQEBIXShbQ0BAXTEyNClPQyg9TylbQ0BdNTZbQ0BIXShDKD1PKVtDSDJdNSlbQ0gyXVtDSDJdW0NAQEhdNDY=

>  <s_epik_cmdline>  (90) 
J2VwaWtfcHl0aG9uJywgJy1waHQnLCAnMi4wJywgJy1waCcsICc3LjAnLCAnLXRuJywgJzgnLCAnLW1hJywgJzIwMCcsICctaW1hZScsICc8aW5maWxlLm1hZT4nLCAnLW9tYWUnLCAnPG91dGZpbGUubWFlPic=

>  <r_lp_tautomer_probability>  (90) 
1

>  <r_epik_Ionization_Penalty>  (90) 
8.41052e-13

>  <r_epik_Ionization_Penalty_Charging>  (90) 
0

>  <r_epik_Ionization_Penalty_Neutral>  (90) 
8.41052e-13

>  <r_epik_State_Penalty>  (90) 
-0

>  <r_epik_Charging_Adjusted_Penalty>  (90) 
0

>  <i_epik_Tot_Q>  (90) 
0

>  <i_epik_Tot_abs_Q>  (90) 
0

>  <s_epik_Chemistry_Notes>  (90) 
This compound has an ester and may undergo hydrolysis at high or low pH. This compound contains an acetal/aminal-like group ( X-CH(R)-Y where X, Y are N, S, or O) that may be acid/base labile, releasing an aldehyde.

>  <s_lp_Force_Field>  (90) 
OPLS3e

>  <r_lp_Energy>  (90) 
85.4332

>  <b_lp_Chiralities_Consistent>  (90) 
1

>  <s_lp_Variant>  (90) 
35:0-1

>  <s_i_glide_gridfile>  (90) 
pfpi4k_grid

>  <i_i_glide_lignum>  (90) 
3

>  <i_i_glide_rotatable_bonds>  (90) 
0

>  <r_i_docking_score>  (90) 
-3.47522

>  <r_i_glide_ligand_efficiency>  (90) 
-0.133662

>  <r_i_glide_ligand_efficiency_sa>  (90) 
-0.395974

>  <r_i_glide_ligand_efficiency_ln>  (90) 
-0.816144

>  <r_i_glide_gscore>  (90) 
-3.47522

>  <r_i_glide_lipo>  (90) 
-0.472707

>  <r_i_glide_hbond>  (90) 
-0.16

>  <r_i_glide_metal>  (90) 
-0

>  <r_i_glide_rewards>  (90) 
-1.09699

>  <r_i_glide_evdw>  (90) 
-21.8628

>  <r_i_glide_ecoul>  (90) 
-4.13519

>  <r_i_glide_erotb>  (90) 
0

>  <r_i_glide_esite>  (90) 
-0.0320988

>  <r_i_glide_emodel>  (90) 
-30.938

>  <r_i_glide_energy>  (90) 
-25.998

>  <r_i_glide_einternal>  (90) 
0

>  <r_i_glide_intrahb_reward>  (90) 
-0

>  <i_i_glide_confnum>  (90) 
2

>  <i_i_glide_posenum>  (90) 
29

>  <r_i_glide_eff_state_penalty>  (90) 
0

>  <ligand_id>  (90) 
35

>  <original_smiles>  (90) 
CC1CCC23C(OC(=O)C45CC(=O)C4CCC52)OC2(C)CCC1C3CC2

>  <smiles>  (90) 
[H]C([H])([H])C1([H])C([H])([H])C([H])([H])C23C([H])(OC(=O)C45C([H])([H])C(=O)C4([H])C([H])([H])C([H])([H])C52[H])OC2(C([H])([H])[H])C([H])([H])C([H])([H])C1([H])C3([H])C([H])([H])C2([H])[H]

$$$$
35:0:1
     RDKit          3D

 56 61  0  0  1  0  0  0  0  0999 V2000
    4.2080   -1.4861   -3.8299 C   0  0  0  0  0  0  0  0  0  0  0  0
    3.9981   -2.1556   -2.4525 C   0  0  2  0  0  0  0  0  0  0  0  0
    3.5653   -1.0708   -1.4439 C   0  0  0  0  0  0  0  0  0  0  0  0
    3.4622   -1.4994    0.0721 C   0  0  0  0  0  0  0  0  0  0  0  0
    4.6288   -2.3808    0.6316 C   0  0  1  0  0  0  0  0  0  0  0  0
    5.9170   -1.5064    0.8006 C   0  0  1  0  0  0  0  0  0  0  0  0
    5.7960   -0.5193    1.7774 O   0  0  0  0  0  0  0  0  0  0  0  0
    5.0851   -0.7212    2.9463 C   0  0  0  0  0  0  0  0  0  0  0  0
    5.0036    0.2376    3.7217 O   0  0  0  0  0  0  0  0  0  0  0  0
    4.4663   -2.0667    3.2266 C   0  0  1  0  0  0  0  0  0  0  0  0
    4.9951   -2.6519    4.5597 C   0  0  0  0  0  0  0  0  0  0  0  0
    3.5477   -2.6271    5.1045 C   0  0  0  0  0  0  0  0  0  0  0  0
    2.9823   -3.0191    6.1304 O   0  0  0  0  0  0  0  0  0  0  0  0
    3.0463   -1.9445    3.8160 C   0  0  2  0  0  0  0  0  0  0  0  0
    2.1067   -2.8016    2.9923 C   0  0  0  0  0  0  0  0  0  0  0  0
    3.0213   -3.7465    2.1926 C   0  0  0  0  0  0  0  0  0  0  0  0
    4.3782   -3.0272    2.0407 C   0  0  1  0  0  0  0  0  0  0  0  0
    7.0777   -2.2609    0.9708 O   0  0  0  0  0  0  0  0  0  0  0  0
    7.6467   -3.2224    0.0310 C   0  0  2  0  0  0  0  0  0  0  0  0
    9.1035   -3.2644    0.5084 C   0  0  0  0  0  0  0  0  0  0  0  0
    7.7248   -2.9172   -1.5187 C   0  0  0  0  0  0  0  0  0  0  0  0
    6.4861   -3.2182   -2.4324 C   0  0  0  0  0  0  0  0  0  0  0  0
    5.2578   -2.6978   -1.7658 C   0  0  2  0  0  0  0  0  0  0  0  0
    4.8437   -3.4354   -0.4620 C   0  0  1  0  0  0  0  0  0  0  0  0
    5.5750   -4.7474   -0.1232 C   0  0  0  0  0  0  0  0  0  0  0  0
    7.0323   -4.5934    0.3394 C   0  0  0  0  0  0  0  0  0  0  0  0
    4.9078   -0.6641   -3.7422 H   0  0  0  0  0  0  0  0  0  0  0  0
    3.2638   -1.0929   -4.2224 H   0  0  0  0  0  0  0  0  0  0  0  0
    4.5908   -2.2028   -4.5521 H   0  0  0  0  0  0  0  0  0  0  0  0
    3.2431   -2.9446   -2.5626 H   0  0  0  0  0  0  0  0  0  0  0  0
    4.2950   -0.2605   -1.5082 H   0  0  0  0  0  0  0  0  0  0  0  0
    2.6260   -0.6828   -1.8278 H   0  0  0  0  0  0  0  0  0  0  0  0
    3.2964   -0.6189    0.6882 H   0  0  0  0  0  0  0  0  0  0  0  0
    2.5450   -2.0821    0.1607 H   0  0  0  0  0  0  0  0  0  0  0  0
    6.0951   -0.8576   -0.0305 H   0  0  0  0  0  0  0  0  0  0  0  0
    5.4168   -3.6411    4.4597 H   0  0  0  0  0  0  0  0  0  0  0  0
    5.6614   -1.9992    5.1219 H   0  0  0  0  0  0  0  0  0  0  0  0
    2.7173   -0.9195    3.9894 H   0  0  0  0  0  0  0  0  0  0  0  0
    1.3861   -3.3508    3.6100 H   0  0  0  0  0  0  0  0  0  0  0  0
    1.5283   -2.1656    2.3132 H   0  0  0  0  0  0  0  0  0  0  0  0
    3.1982   -4.6349    2.7965 H   0  0  0  0  0  0  0  0  0  0  0  0
    2.5929   -4.0740    1.2590 H   0  0  0  0  0  0  0  0  0  0  0  0
    5.1684   -3.7555    2.2089 H   0  0  0  0  0  0  0  0  0  0  0  0
    9.6708   -4.0080   -0.0452 H   0  0  0  0  0  0  0  0  0  0  0  0
    9.1555   -3.5377    1.5617 H   0  0  0  0  0  0  0  0  0  0  0  0
    9.6009   -2.2998    0.3882 H   0  0  0  0  0  0  0  0  0  0  0  0
    8.0299   -1.8759   -1.6330 H   0  0  0  0  0  0  0  0  0  0  0  0
    8.5585   -3.4754   -1.9515 H   0  0  0  0  0  0  0  0  0  0  0  0
    6.5896   -2.6811   -3.3709 H   0  0  0  0  0  0  0  0  0  0  0  0
    6.3429   -4.2588   -2.6923 H   0  0  0  0  0  0  0  0  0  0  0  0
    5.7359   -1.7386   -1.6156 H   0  0  0  0  0  0  0  0  0  0  0  0
    3.8570   -3.8385   -0.6765 H   0  0  0  0  0  0  0  0  0  0  0  0
    5.0192   -5.3095    0.6266 H   0  0  0  0  0  0  0  0  0  0  0  0
    5.5044   -5.3896   -1.0011 H   0  0  0  0  0  0  0  0  0  0  0  0
    7.6436   -5.3784   -0.1050 H   0  0  0  0  0  0  0  0  0  0  0  0
    7.0866   -4.7718    1.4118 H   0  0  0  0  0  0  0  0  0  0  0  0
  1  2  1  0
  1 27  1  0
  1 28  1  0
  1 29  1  0
  2 23  1  0
  2  3  1  0
  2 30  1  6
  3  4  1  0
  3 31  1  0
  3 32  1  0
  5  4  1  6
  4 33  1  0
  4 34  1  0
  5 17  1  0
  5 24  1  0
  5  6  1  0
  6  7  1  0
  6 18  1  0
  6 35  1  6
  7  8  1  0
  8  9  2  0
  8 10  1  0
 10 14  1  0
 10 17  1  0
 10 11  1  1
 11 12  1  0
 11 36  1  0
 11 37  1  0
 12 13  2  0
 12 14  1  0
 14 15  1  0
 14 38  1  1
 15 16  1  0
 15 39  1  0
 15 40  1  0
 16 17  1  0
 16 41  1  0
 16 42  1  0
 17 43  1  1
 18 19  1  0
 19 26  1  0
 19 20  1  1
 19 21  1  0
 20 44  1  0
 20 45  1  0
 20 46  1  0
 21 22  1  0
 21 47  1  0
 21 48  1  0
 22 23  1  0
 22 49  1  0
 22 50  1  0
 23 24  1  0
 23 51  1  1
 24 25  1  0
 24 52  1  6
 25 26  1  0
 25 53  1  0
 25 54  1  0
 26 55  1  0
 26 56  1  0
M  END
>  <i_m_ct_stereo_status>  (91) 
1

>  <s_m_source_file>  (91) 
/var/tmp/pbs.5076255.sched01/tmpy176o0g7/39stoh4b52.sdf

>  <i_m_source_file_index>  (91) 
3

>  <i_lp_mmshare_version>  (91) 
48012

>  <i_f3d_flags>  (91) 
0

>  <s_epik_input>  (91) 
W0NIMl0xW0NIMl1bQ0BASF0oW0NIM10pW0NAQEhdKFtDQEhdMltDSDJdW0NIMl0zKVtDSDJdW0NIMl1bQ0BAXTMoW0NIM10pT1tDQEBIXShbQ0BAXTEyNClPQyg9TylbQ0BdNTZbQ0BIXShDKD1PKVtDSDJdNSlbQ0gyXVtDSDJdW0NAQEhdNDY=

>  <s_epik_cmdline>  (91) 
J2VwaWtfcHl0aG9uJywgJy1waHQnLCAnMi4wJywgJy1waCcsICc3LjAnLCAnLXRuJywgJzgnLCAnLW1hJywgJzIwMCcsICctaW1hZScsICc8aW5maWxlLm1hZT4nLCAnLW9tYWUnLCAnPG91dGZpbGUubWFlPic=

>  <r_lp_tautomer_probability>  (91) 
1

>  <r_epik_Ionization_Penalty>  (91) 
8.41052e-13

>  <r_epik_Ionization_Penalty_Charging>  (91) 
0

>  <r_epik_Ionization_Penalty_Neutral>  (91) 
8.41052e-13

>  <r_epik_State_Penalty>  (91) 
-0

>  <r_epik_Charging_Adjusted_Penalty>  (91) 
0

>  <i_epik_Tot_Q>  (91) 
0

>  <i_epik_Tot_abs_Q>  (91) 
0

>  <s_epik_Chemistry_Notes>  (91) 
This compound has an ester and may undergo hydrolysis at high or low pH. This compound contains an acetal/aminal-like group ( X-CH(R)-Y where X, Y are N, S, or O) that may be acid/base labile, releasing an aldehyde.

>  <s_lp_Force_Field>  (91) 
OPLS3e

>  <r_lp_Energy>  (91) 
85.4332

>  <b_lp_Chiralities_Consistent>  (91) 
1

>  <s_lp_Variant>  (91) 
35:0-1

>  <s_i_glide_gridfile>  (91) 
pfpi4k_grid

>  <i_i_glide_lignum>  (91) 
3

>  <i_i_glide_rotatable_bonds>  (91) 
0

>  <r_i_docking_score>  (91) 
-3.37363

>  <r_i_glide_ligand_efficiency>  (91) 
-0.129755

>  <r_i_glide_ligand_efficiency_sa>  (91) 
-0.384399

>  <r_i_glide_ligand_efficiency_ln>  (91) 
-0.792286

>  <r_i_glide_gscore>  (91) 
-3.37363

>  <r_i_glide_lipo>  (91) 
-0.855523

>  <r_i_glide_hbond>  (91) 
-0.105472

>  <r_i_glide_metal>  (91) 
-0

>  <r_i_glide_rewards>  (91) 
-1.31384

>  <r_i_glide_evdw>  (91) 
-21.248

>  <r_i_glide_ecoul>  (91) 
-0.24264

>  <r_i_glide_erotb>  (91) 
0

>  <r_i_glide_esite>  (91) 
0

>  <r_i_glide_emodel>  (91) 
-25.8674

>  <r_i_glide_energy>  (91) 
-21.4906

>  <r_i_glide_einternal>  (91) 
0

>  <r_i_glide_intrahb_reward>  (91) 
-0

>  <i_i_glide_confnum>  (91) 
1

>  <i_i_glide_posenum>  (91) 
3

>  <r_i_glide_eff_state_penalty>  (91) 
0

>  <ligand_id>  (91) 
35

>  <original_smiles>  (91) 
CC1CCC23C(OC(=O)C45CC(=O)C4CCC52)OC2(C)CCC1C3CC2

>  <smiles>  (91) 
[H]C([H])([H])C1([H])C([H])([H])C([H])([H])C23C([H])(OC(=O)C45C([H])([H])C(=O)C4([H])C([H])([H])C([H])([H])C52[H])OC2(C([H])([H])[H])C([H])([H])C([H])([H])C1([H])C3([H])C([H])([H])C2([H])[H]

$$$$
35:0:2
     RDKit          3D

 56 61  0  0  1  0  0  0  0  0999 V2000
    4.5169   -8.5519    2.7899 C   0  0  0  0  0  0  0  0  0  0  0  0
    4.0357   -7.3117    2.0207 C   0  0  2  0  0  0  0  0  0  0  0  0
    5.0324   -6.9456    0.8768 C   0  0  0  0  0  0  0  0  0  0  0  0
    4.8686   -5.5416    0.1882 C   0  0  0  0  0  0  0  0  0  0  0  0
    4.4538   -4.3157    1.1021 C   0  0  1  0  0  0  0  0  0  0  0  0
    5.6559   -3.8394    1.9767 C   0  0  1  0  0  0  0  0  0  0  0  0
    6.7141   -3.3018    1.2283 O   0  0  0  0  0  0  0  0  0  0  0  0
    6.5375   -2.6142    0.0683 C   0  0  0  0  0  0  0  0  0  0  0  0
    7.5106   -2.2536   -0.5837 O   0  0  0  0  0  0  0  0  0  0  0  0
    5.1235   -2.2472   -0.3535 C   0  0  1  0  0  0  0  0  0  0  0  0
    4.8895   -0.7126   -0.4782 C   0  0  0  0  0  0  0  0  0  0  0  0
    4.5706   -0.9183   -1.9702 C   0  0  0  0  0  0  0  0  0  0  0  0
    4.2045   -0.2035   -2.8862 O   0  0  0  0  0  0  0  0  0  0  0  0
    4.9167   -2.4004   -1.8719 C   0  0  2  0  0  0  0  0  0  0  0  0
    3.7107   -3.2513   -2.1457 C   0  0  0  0  0  0  0  0  0  0  0  0
    2.9660   -3.3230   -0.8010 C   0  0  0  0  0  0  0  0  0  0  0  0
    4.0009   -3.0529    0.3157 C   0  0  1  0  0  0  0  0  0  0  0  0
    5.2741   -2.9632    3.0165 O   0  0  0  0  0  0  0  0  0  0  0  0
    4.4106   -3.2960    4.1381 C   0  0  2  0  0  0  0  0  0  0  0  0
    4.8518   -2.2099    5.1375 C   0  0  0  0  0  0  0  0  0  0  0  0
    4.5078   -4.6787    4.8934 C   0  0  0  0  0  0  0  0  0  0  0  0
    3.7177   -5.9189    4.3576 C   0  0  0  0  0  0  0  0  0  0  0  0
    3.9728   -6.0368    2.8660 C   0  0  2  0  0  0  0  0  0  0  0  0
    3.3510   -4.9016    2.0180 C   0  0  1  0  0  0  0  0  0  0  0  0
    2.3607   -3.9413    2.7206 C   0  0  0  0  0  0  0  0  0  0  0  0
    2.9741   -2.9650    3.7157 C   0  0  0  0  0  0  0  0  0  0  0  0
    5.4898   -8.3862    3.2608 H   0  0  0  0  0  0  0  0  0  0  0  0
    4.6171   -9.4156    2.1319 H   0  0  0  0  0  0  0  0  0  0  0  0
    3.8133   -8.8281    3.5757 H   0  0  0  0  0  0  0  0  0  0  0  0
    3.0593   -7.5482    1.5915 H   0  0  0  0  0  0  0  0  0  0  0  0
    6.0536   -7.0048    1.2627 H   0  0  0  0  0  0  0  0  0  0  0  0
    4.9677   -7.7151    0.1144 H   0  0  0  0  0  0  0  0  0  0  0  0
    5.7530   -5.3090   -0.4021 H   0  0  0  0  0  0  0  0  0  0  0  0
    4.0870   -5.6937   -0.5485 H   0  0  0  0  0  0  0  0  0  0  0  0
    6.2136   -4.6483    2.4432 H   0  0  0  0  0  0  0  0  0  0  0  0
    4.0476   -0.3583    0.1254 H   0  0  0  0  0  0  0  0  0  0  0  0
    5.7841   -0.1285   -0.2644 H   0  0  0  0  0  0  0  0  0  0  0  0
    5.8102   -2.6515   -2.4458 H   0  0  0  0  0  0  0  0  0  0  0  0
    3.0729   -2.8820   -2.9506 H   0  0  0  0  0  0  0  0  0  0  0  0
    4.0763   -4.2194   -2.4394 H   0  0  0  0  0  0  0  0  0  0  0  0
    2.2455   -2.5117   -0.7809 H   0  0  0  0  0  0  0  0  0  0  0  0
    2.3765   -4.2369   -0.6749 H   0  0  0  0  0  0  0  0  0  0  0  0
    3.5397   -2.3768    1.0316 H   0  0  0  0  0  0  0  0  0  0  0  0
    4.2268   -2.1931    6.0314 H   0  0  0  0  0  0  0  0  0  0  0  0
    4.7994   -1.2172    4.6874 H   0  0  0  0  0  0  0  0  0  0  0  0
    5.8787   -2.3689    5.4610 H   0  0  0  0  0  0  0  0  0  0  0  0
    5.5635   -4.9378    4.9990 H   0  0  0  0  0  0  0  0  0  0  0  0
    4.1581   -4.5358    5.9166 H   0  0  0  0  0  0  0  0  0  0  0  0
    4.0986   -6.7997    4.8726 H   0  0  0  0  0  0  0  0  0  0  0  0
    2.6566   -5.8690    4.5991 H   0  0  0  0  0  0  0  0  0  0  0  0
    5.0352   -5.9625    2.9906 H   0  0  0  0  0  0  0  0  0  0  0  0
    2.6573   -5.3926    1.3369 H   0  0  0  0  0  0  0  0  0  0  0  0
    1.8091   -3.3712    1.9770 H   0  0  0  0  0  0  0  0  0  0  0  0
    1.5933   -4.5294    3.2196 H   0  0  0  0  0  0  0  0  0  0  0  0
    2.3263   -2.9079    4.5942 H   0  0  0  0  0  0  0  0  0  0  0  0
    2.9634   -1.9642    3.2783 H   0  0  0  0  0  0  0  0  0  0  0  0
  1  2  1  0
  1 27  1  0
  1 28  1  0
  1 29  1  0
  2 23  1  0
  2  3  1  0
  2 30  1  6
  3  4  1  0
  3 31  1  0
  3 32  1  0
  5  4  1  6
  4 33  1  0
  4 34  1  0
  5 17  1  0
  5 24  1  0
  5  6  1  0
  6  7  1  0
  6 18  1  0
  6 35  1  1
  7  8  1  0
  8  9  2  0
  8 10  1  0
 10 14  1  0
 10 17  1  0
 10 11  1  6
 11 12  1  0
 11 36  1  0
 11 37  1  0
 12 13  2  0
 12 14  1  0
 14 15  1  0
 14 38  1  6
 15 16  1  0
 15 39  1  0
 15 40  1  0
 16 17  1  0
 16 41  1  0
 16 42  1  0
 17 43  1  1
 18 19  1  0
 19 26  1  0
 19 20  1  1
 19 21  1  0
 20 44  1  0
 20 45  1  0
 20 46  1  0
 21 22  1  0
 21 47  1  0
 21 48  1  0
 22 23  1  0
 22 49  1  0
 22 50  1  0
 23 24  1  0
 23 51  1  1
 24 25  1  0
 24 52  1  6
 25 26  1  0
 25 53  1  0
 25 54  1  0
 26 55  1  0
 26 56  1  0
M  END
>  <i_m_ct_stereo_status>  (92) 
1

>  <s_m_source_file>  (92) 
/var/tmp/pbs.5076255.sched01/tmpy176o0g7/39stoh4b52.sdf

>  <i_m_source_file_index>  (92) 
3

>  <i_lp_mmshare_version>  (92) 
48012

>  <i_f3d_flags>  (92) 
0

>  <s_epik_input>  (92) 
W0NIMl0xW0NIMl1bQ0BASF0oW0NIM10pW0NAQEhdKFtDQEhdMltDSDJdW0NIMl0zKVtDSDJdW0NIMl1bQ0BAXTMoW0NIM10pT1tDQEBIXShbQ0BAXTEyNClPQyg9TylbQ0BdNTZbQ0BIXShDKD1PKVtDSDJdNSlbQ0gyXVtDSDJdW0NAQEhdNDY=

>  <s_epik_cmdline>  (92) 
J2VwaWtfcHl0aG9uJywgJy1waHQnLCAnMi4wJywgJy1waCcsICc3LjAnLCAnLXRuJywgJzgnLCAnLW1hJywgJzIwMCcsICctaW1hZScsICc8aW5maWxlLm1hZT4nLCAnLW9tYWUnLCAnPG91dGZpbGUubWFlPic=

>  <r_lp_tautomer_probability>  (92) 
1

>  <r_epik_Ionization_Penalty>  (92) 
8.41052e-13

>  <r_epik_Ionization_Penalty_Charging>  (92) 
0

>  <r_epik_Ionization_Penalty_Neutral>  (92) 
8.41052e-13

>  <r_epik_State_Penalty>  (92) 
-0

>  <r_epik_Charging_Adjusted_Penalty>  (92) 
0

>  <i_epik_Tot_Q>  (92) 
0

>  <i_epik_Tot_abs_Q>  (92) 
0

>  <s_epik_Chemistry_Notes>  (92) 
This compound has an ester and may undergo hydrolysis at high or low pH. This compound contains an acetal/aminal-like group ( X-CH(R)-Y where X, Y are N, S, or O) that may be acid/base labile, releasing an aldehyde.

>  <s_lp_Force_Field>  (92) 
OPLS3e

>  <r_lp_Energy>  (92) 
85.4332

>  <b_lp_Chiralities_Consistent>  (92) 
1

>  <s_lp_Variant>  (92) 
35:0-1

>  <s_i_glide_gridfile>  (92) 
pfpi4k_grid

>  <i_i_glide_lignum>  (92) 
3

>  <i_i_glide_rotatable_bonds>  (92) 
0

>  <r_i_docking_score>  (92) 
-3.25722

>  <r_i_glide_ligand_efficiency>  (92) 
-0.125278

>  <r_i_glide_ligand_efficiency_sa>  (92) 
-0.371135

>  <r_i_glide_ligand_efficiency_ln>  (92) 
-0.764948

>  <r_i_glide_gscore>  (92) 
-3.25722

>  <r_i_glide_lipo>  (92) 
-0.282869

>  <r_i_glide_hbond>  (92) 
-0.16

>  <r_i_glide_metal>  (92) 
-0

>  <r_i_glide_rewards>  (92) 
-1.08207

>  <r_i_glide_evdw>  (92) 
-24.8666

>  <r_i_glide_ecoul>  (92) 
-3.0193

>  <r_i_glide_erotb>  (92) 
0

>  <r_i_glide_esite>  (92) 
-0.0360599

>  <r_i_glide_emodel>  (92) 
-32.6713

>  <r_i_glide_energy>  (92) 
-27.8859

>  <r_i_glide_einternal>  (92) 
0

>  <r_i_glide_intrahb_reward>  (92) 
-0

>  <i_i_glide_confnum>  (92) 
1

>  <i_i_glide_posenum>  (92) 
1

>  <r_i_glide_eff_state_penalty>  (92) 
0

>  <ligand_id>  (92) 
35

>  <original_smiles>  (92) 
CC1CCC23C(OC(=O)C45CC(=O)C4CCC52)OC2(C)CCC1C3CC2

>  <smiles>  (92) 
[H]C([H])([H])C1([H])C([H])([H])C([H])([H])C23C([H])(OC(=O)C45C([H])([H])C(=O)C4([H])C([H])([H])C([H])([H])C52[H])OC2(C([H])([H])[H])C([H])([H])C([H])([H])C1([H])C3([H])C([H])([H])C2([H])[H]

$$$$
36:0:0
     RDKit          3D

 42 46  0  0  1  0  0  0  0  0999 V2000
    5.9876   -0.9221    0.7901 O   0  0  0  0  0  0  0  0  0  0  0  0
    5.5653   -1.7210   -0.0454 C   0  0  0  0  0  0  0  0  0  0  0  0
    4.1752   -2.3213   -0.0472 C   0  0  1  0  0  0  0  0  0  0  0  0
    3.9850   -2.3541   -1.5684 C   0  0  0  0  0  0  0  0  0  0  0  0
    5.2899   -3.1250   -1.8019 C   0  0  2  0  0  0  0  0  0  0  0  0
    4.9522   -4.3937   -0.9970 C   0  0  0  0  0  0  0  0  0  0  0  0
    4.3155   -3.8377    0.3098 C   0  0  1  0  0  0  0  0  0  0  0  0
    5.0939   -4.1815    1.6404 C   0  0  1  0  0  0  0  0  0  0  0  0
    4.5515   -5.3969    2.4326 C   0  0  1  0  0  0  0  0  0  0  0  0
    3.0653   -5.7038    2.3852 C   0  0  0  0  0  0  0  0  0  0  0  0
    2.2130   -5.2092    3.3919 C   0  0  0  0  0  0  0  0  0  0  0  0
    0.8472   -5.5373    3.3361 C   0  0  0  0  0  0  0  0  0  0  0  0
    0.2940   -6.2623    2.3368 N   0  0  0  0  0  0  0  0  0  0  0  0
    1.1161   -6.7520    1.3877 C   0  0  0  0  0  0  0  0  0  0  0  0
    2.4995   -6.4911    1.3574 C   0  0  0  0  0  0  0  0  0  0  0  0
    5.3750   -6.4631    1.9981 O   0  0  0  0  0  0  0  0  0  0  0  0
    6.5608   -6.0480    1.5716 C   0  0  0  0  0  0  0  0  0  0  0  0
    7.5451   -6.7589    1.3822 O   0  0  0  0  0  0  0  0  0  0  0  0
    6.4535   -4.6808    1.4127 N   0  0  0  0  0  0  0  0  0  0  0  0
    7.6289   -3.8335    1.2422 C   0  0  0  0  0  0  0  0  0  0  0  0
    8.1895   -3.7182   -0.1937 C   0  0  0  0  0  0  0  0  0  0  0  0
    7.6908   -2.5408   -1.0559 C   0  0  0  0  0  0  0  0  0  0  0  0
    6.2465   -2.3396   -1.0171 N   0  0  0  0  0  0  0  0  0  0  0  0
    3.4314   -1.7614    0.5169 H   0  0  0  0  0  0  0  0  0  0  0  0
    3.0892   -2.8903   -1.8893 H   0  0  0  0  0  0  0  0  0  0  0  0
    3.9819   -1.3606   -2.0270 H   0  0  0  0  0  0  0  0  0  0  0  0
    5.5607   -3.2832   -2.8465 H   0  0  0  0  0  0  0  0  0  0  0  0
    4.2185   -4.9940   -1.5153 H   0  0  0  0  0  0  0  0  0  0  0  0
    5.8115   -5.0502   -0.8854 H   0  0  0  0  0  0  0  0  0  0  0  0
    3.2953   -4.2058    0.3478 H   0  0  0  0  0  0  0  0  0  0  0  0
    5.0781   -3.3143    2.3009 H   0  0  0  0  0  0  0  0  0  0  0  0
    4.8092   -5.2507    3.4864 H   0  0  0  0  0  0  0  0  0  0  0  0
    2.5949   -4.6103    4.2040 H   0  0  0  0  0  0  0  0  0  0  0  0
    0.1693   -5.1771    4.0937 H   0  0  0  0  0  0  0  0  0  0  0  0
    0.6516   -7.3435    0.6113 H   0  0  0  0  0  0  0  0  0  0  0  0
    3.1190   -6.8876    0.5676 H   0  0  0  0  0  0  0  0  0  0  0  0
    7.3876   -2.8605    1.6543 H   0  0  0  0  0  0  0  0  0  0  0  0
    8.4303   -4.2303    1.8705 H   0  0  0  0  0  0  0  0  0  0  0  0
    9.2746   -3.6245   -0.1385 H   0  0  0  0  0  0  0  0  0  0  0  0
    8.0393   -4.6548   -0.7094 H   0  0  0  0  0  0  0  0  0  0  0  0
    8.1721   -1.6497   -0.6560 H   0  0  0  0  0  0  0  0  0  0  0  0
    8.0368   -2.6433   -2.0849 H   0  0  0  0  0  0  0  0  0  0  0  0
  1  2  2  0
  2 23  1  0
  2  3  1  0
  3  7  1  0
  3  4  1  0
  3 24  1  1
  4  5  1  0
  4 25  1  0
  4 26  1  0
  5 23  1  0
  5  6  1  0
  5 27  1  6
  6  7  1  0
  6 28  1  0
  6 29  1  0
  7  8  1  0
  7 30  1  1
  8 19  1  0
  8  9  1  0
  8 31  1  1
  9 10  1  0
  9 16  1  0
  9 32  1  1
 10 15  1  0
 10 11  2  0
 11 12  1  0
 11 33  1  0
 12 13  2  0
 12 34  1  0
 13 14  1  0
 14 15  2  0
 14 35  1  0
 15 36  1  0
 16 17  1  0
 17 18  2  0
 17 19  1  0
 19 20  1  0
 20 21  1  0
 20 37  1  0
 20 38  1  0
 21 22  1  0
 21 39  1  0
 21 40  1  0
 22 23  1  0
 22 41  1  0
 22 42  1  0
M  END
>  <i_m_ct_stereo_status>  (93) 
1

>  <s_m_source_file>  (93) 
/var/tmp/pbs.5076255.sched01/tmpy176o0g7/39stoh4b52.sdf

>  <i_m_source_file_index>  (93) 
4

>  <i_lp_mmshare_version>  (93) 
48012

>  <i_f3d_flags>  (93) 
0

>  <s_epik_input>  (93) 
Tz1DMU4oW0NASF0oW0NIMl0yKVtDSDJdMylbQ0gyXVtDSDJdW0NIMl1OKFtDQEhdNFtDQEhdM1tDQEBIXTEyKUMoPU8pT1tDQEBIXTRjNVtjSF1bY0hdbltjSF1bY0hdNQ==

>  <s_epik_cmdline>  (93) 
J2VwaWtfcHl0aG9uJywgJy1waHQnLCAnMi4wJywgJy1waCcsICc3LjAnLCAnLXRuJywgJzgnLCAnLW1hJywgJzIwMCcsICctaW1hZScsICc8aW5maWxlLm1hZT4nLCAnLW9tYWUnLCAnPG91dGZpbGUubWFlPic=

>  <r_epik_Ionization_Penalty>  (93) 
0.0616904

>  <r_epik_Ionization_Penalty_Charging>  (93) 
0

>  <r_epik_Ionization_Penalty_Neutral>  (93) 
0.0616904

>  <r_epik_State_Penalty>  (93) 
0.0535523

>  <r_epik_Charging_Adjusted_Penalty>  (93) 
0.0535523

>  <i_epik_Tot_Q>  (93) 
0

>  <i_epik_Tot_abs_Q>  (93) 
0

>  <s_epik_Chemistry_Notes>  (93) 
This compound has an ester and may undergo hydrolysis at high or low pH.

>  <s_lp_Force_Field>  (93) 
OPLS3e

>  <r_lp_Energy>  (93) 
40.1089

>  <b_lp_Chiralities_Consistent>  (93) 
1

>  <s_lp_Variant>  (93) 
36:0-1

>  <s_i_glide_gridfile>  (93) 
pfpi4k_grid

>  <i_i_glide_lignum>  (93) 
4

>  <i_i_glide_rotatable_bonds>  (93) 
1

>  <r_i_docking_score>  (93) 
-3.36854

>  <r_i_glide_ligand_efficiency>  (93) 
-0.146458

>  <r_i_glide_ligand_efficiency_sa>  (93) 
-0.416507

>  <r_i_glide_ligand_efficiency_ln>  (93) 
-0.814543

>  <r_i_glide_gscore>  (93) 
-3.36854

>  <r_i_glide_lipo>  (93) 
-0.389103

>  <r_i_glide_hbond>  (93) 
-0.168885

>  <r_i_glide_metal>  (93) 
-0

>  <r_i_glide_rewards>  (93) 
-1.5037

>  <r_i_glide_evdw>  (93) 
-21.8207

>  <r_i_glide_ecoul>  (93) 
-2.41524

>  <r_i_glide_erotb>  (93) 
0.189154

>  <r_i_glide_esite>  (93) 
-0.0426828

>  <r_i_glide_emodel>  (93) 
-29.2968

>  <r_i_glide_energy>  (93) 
-24.2359

>  <r_i_glide_einternal>  (93) 
0.345053

>  <r_i_glide_intrahb_reward>  (93) 
-0

>  <i_i_glide_confnum>  (93) 
1

>  <i_i_glide_posenum>  (93) 
25

>  <r_i_glide_eff_state_penalty>  (93) 
0

>  <ligand_id>  (93) 
36

>  <original_smiles>  (93) 
O=C1C2CC3CC2C2C(c4ccncc4)OC(=O)N2CCCN13

>  <smiles>  (93) 
[H]c1nc([H])c([H])c(C2([H])OC(=O)N3C([H])([H])C([H])([H])C([H])([H])N4C(=O)C5([H])C([H])([H])C4([H])C([H])([H])C5([H])C32[H])c1[H]

$$$$
36:0:1
     RDKit          3D

 42 46  0  0  1  0  0  0  0  0999 V2000
    4.1111   -2.7861   -1.7855 O   0  0  0  0  0  0  0  0  0  0  0  0
    3.9018   -3.3645   -0.7189 C   0  0  0  0  0  0  0  0  0  0  0  0
    2.6223   -3.3054    0.0732 C   0  0  1  0  0  0  0  0  0  0  0  0
    2.6175   -4.7351    0.5977 C   0  0  0  0  0  0  0  0  0  0  0  0
    4.0254   -4.6097    1.1854 C   0  0  2  0  0  0  0  0  0  0  0  0
    3.7363   -3.4876    2.2074 C   0  0  0  0  0  0  0  0  0  0  0  0
    2.8827   -2.4712    1.3674 C   0  0  1  0  0  0  0  0  0  0  0  0
    3.5113   -1.0382    1.1448 C   0  0  1  0  0  0  0  0  0  0  0  0
    3.0311    0.0633    2.1197 C   0  0  1  0  0  0  0  0  0  0  0  0
    1.6252    0.0109    2.6875 C   0  0  0  0  0  0  0  0  0  0  0  0
    0.6357    0.8503    2.1508 C   0  0  0  0  0  0  0  0  0  0  0  0
   -0.6496    0.8192    2.7195 C   0  0  0  0  0  0  0  0  0  0  0  0
   -0.9807    0.0116    3.7517 N   0  0  0  0  0  0  0  0  0  0  0  0
   -0.0315   -0.8073    4.2458 C   0  0  0  0  0  0  0  0  0  0  0  0
    1.2913   -0.8349    3.7658 C   0  0  0  0  0  0  0  0  0  0  0  0
    4.0033    0.0238    3.1291 O   0  0  0  0  0  0  0  0  0  0  0  0
    5.1611   -0.4100    2.6924 C   0  0  0  0  0  0  0  0  0  0  0  0
    6.2147   -0.2602    3.2986 O   0  0  0  0  0  0  0  0  0  0  0  0
    4.9384   -0.9822    1.4499 N   0  0  0  0  0  0  0  0  0  0  0  0
    6.0267   -1.3187    0.5100 C   0  0  0  0  0  0  0  0  0  0  0  0
    6.7259   -2.6853    0.7706 C   0  0  0  0  0  0  0  0  0  0  0  0
    6.2080   -3.9204   -0.0119 C   0  0  0  0  0  0  0  0  0  0  0  0
    4.7621   -4.0421    0.0461 N   0  0  0  0  0  0  0  0  0  0  0  0
    1.7641   -3.0315   -0.5318 H   0  0  0  0  0  0  0  0  0  0  0  0
    1.8509   -4.9241    1.3505 H   0  0  0  0  0  0  0  0  0  0  0  0
    2.5393   -5.4749   -0.2015 H   0  0  0  0  0  0  0  0  0  0  0  0
    4.4355   -5.5376    1.5944 H   0  0  0  0  0  0  0  0  0  0  0  0
    3.1412   -3.8777    3.0383 H   0  0  0  0  0  0  0  0  0  0  0  0
    4.6545   -3.1222    2.6596 H   0  0  0  0  0  0  0  0  0  0  0  0
    1.9017   -2.3909    1.8310 H   0  0  0  0  0  0  0  0  0  0  0  0
    3.3094   -0.6944    0.1306 H   0  0  0  0  0  0  0  0  0  0  0  0
    3.1614    1.0392    1.6407 H   0  0  0  0  0  0  0  0  0  0  0  0
    0.8471    1.5099    1.3190 H   0  0  0  0  0  0  0  0  0  0  0  0
   -1.4416    1.4204    2.3025 H   0  0  0  0  0  0  0  0  0  0  0  0
   -0.3534   -1.4809    5.0234 H   0  0  0  0  0  0  0  0  0  0  0  0
    2.0155   -1.4996    4.2142 H   0  0  0  0  0  0  0  0  0  0  0  0
    5.6843   -1.2259   -0.5193 H   0  0  0  0  0  0  0  0  0  0  0  0
    6.7875   -0.5410    0.5943 H   0  0  0  0  0  0  0  0  0  0  0  0
    7.7861   -2.5782    0.5264 H   0  0  0  0  0  0  0  0  0  0  0  0
    6.6974   -2.8923    1.8385 H   0  0  0  0  0  0  0  0  0  0  0  0
    6.5068   -3.8350   -1.0580 H   0  0  0  0  0  0  0  0  0  0  0  0
    6.6698   -4.8370    0.3592 H   0  0  0  0  0  0  0  0  0  0  0  0
  1  2  2  0
  2 23  1  0
  2  3  1  0
  3  7  1  0
  3  4  1  0
  3 24  1  6
  4  5  1  0
  4 25  1  0
  4 26  1  0
  5 23  1  0
  5  6  1  0
  5 27  1  1
  6  7  1  0
  6 28  1  0
  6 29  1  0
  7  8  1  0
  7 30  1  1
  8 19  1  0
  8  9  1  0
  8 31  1  6
  9 10  1  0
  9 16  1  0
  9 32  1  6
 10 15  1  0
 10 11  2  0
 11 12  1  0
 11 33  1  0
 12 13  2  0
 12 34  1  0
 13 14  1  0
 14 15  2  0
 14 35  1  0
 15 36  1  0
 16 17  1  0
 17 18  2  0
 17 19  1  0
 19 20  1  0
 20 21  1  0
 20 37  1  0
 20 38  1  0
 21 22  1  0
 21 39  1  0
 21 40  1  0
 22 23  1  0
 22 41  1  0
 22 42  1  0
M  END
>  <i_m_ct_stereo_status>  (94) 
1

>  <s_m_source_file>  (94) 
/var/tmp/pbs.5076255.sched01/tmpy176o0g7/39stoh4b52.sdf

>  <i_m_source_file_index>  (94) 
4

>  <i_lp_mmshare_version>  (94) 
48012

>  <i_f3d_flags>  (94) 
0

>  <s_epik_input>  (94) 
Tz1DMU4oW0NASF0oW0NIMl0yKVtDSDJdMylbQ0gyXVtDSDJdW0NIMl1OKFtDQEhdNFtDQEhdM1tDQEBIXTEyKUMoPU8pT1tDQEBIXTRjNVtjSF1bY0hdbltjSF1bY0hdNQ==

>  <s_epik_cmdline>  (94) 
J2VwaWtfcHl0aG9uJywgJy1waHQnLCAnMi4wJywgJy1waCcsICc3LjAnLCAnLXRuJywgJzgnLCAnLW1hJywgJzIwMCcsICctaW1hZScsICc8aW5maWxlLm1hZT4nLCAnLW9tYWUnLCAnPG91dGZpbGUubWFlPic=

>  <r_epik_Ionization_Penalty>  (94) 
0.0616904

>  <r_epik_Ionization_Penalty_Charging>  (94) 
0

>  <r_epik_Ionization_Penalty_Neutral>  (94) 
0.0616904

>  <r_epik_State_Penalty>  (94) 
0.0535523

>  <r_epik_Charging_Adjusted_Penalty>  (94) 
0.0535523

>  <i_epik_Tot_Q>  (94) 
0

>  <i_epik_Tot_abs_Q>  (94) 
0

>  <s_epik_Chemistry_Notes>  (94) 
This compound has an ester and may undergo hydrolysis at high or low pH.

>  <s_lp_Force_Field>  (94) 
OPLS3e

>  <r_lp_Energy>  (94) 
40.1089

>  <b_lp_Chiralities_Consistent>  (94) 
1

>  <s_lp_Variant>  (94) 
36:0-1

>  <s_i_glide_gridfile>  (94) 
pfpi4k_grid

>  <i_i_glide_lignum>  (94) 
4

>  <i_i_glide_rotatable_bonds>  (94) 
1

>  <r_i_docking_score>  (94) 
-3.16568

>  <r_i_glide_ligand_efficiency>  (94) 
-0.137638

>  <r_i_glide_ligand_efficiency_sa>  (94) 
-0.391425

>  <r_i_glide_ligand_efficiency_ln>  (94) 
-0.76549

>  <r_i_glide_gscore>  (94) 
-3.16568

>  <r_i_glide_lipo>  (94) 
-0.306853

>  <r_i_glide_hbond>  (94) 
0

>  <r_i_glide_metal>  (94) 
-0

>  <r_i_glide_rewards>  (94) 
-1.71987

>  <r_i_glide_evdw>  (94) 
-25.8926

>  <r_i_glide_ecoul>  (94) 
-0.223192

>  <r_i_glide_erotb>  (94) 
0.189154

>  <r_i_glide_esite>  (94) 
0

>  <r_i_glide_emodel>  (94) 
-30.6444

>  <r_i_glide_energy>  (94) 
-26.1158

>  <r_i_glide_einternal>  (94) 
0.656588

>  <r_i_glide_intrahb_reward>  (94) 
-0

>  <i_i_glide_confnum>  (94) 
2

>  <i_i_glide_posenum>  (94) 
11

>  <r_i_glide_eff_state_penalty>  (94) 
0

>  <ligand_id>  (94) 
36

>  <original_smiles>  (94) 
O=C1C2CC3CC2C2C(c4ccncc4)OC(=O)N2CCCN13

>  <smiles>  (94) 
[H]c1nc([H])c([H])c(C2([H])OC(=O)N3C([H])([H])C([H])([H])C([H])([H])N4C(=O)C5([H])C([H])([H])C4([H])C([H])([H])C5([H])C32[H])c1[H]

$$$$
36:0:2
     RDKit          3D

 42 46  0  0  1  0  0  0  0  0999 V2000
    4.8180   -1.4854   -2.4881 O   0  0  0  0  0  0  0  0  0  0  0  0
    4.4073   -2.2973   -1.6514 C   0  0  0  0  0  0  0  0  0  0  0  0
    3.0377   -2.2852   -1.0458 C   0  0  1  0  0  0  0  0  0  0  0  0
    2.8036   -3.7595   -0.8708 C   0  0  0  0  0  0  0  0  0  0  0  0
    4.1138   -3.9690   -0.1154 C   0  0  2  0  0  0  0  0  0  0  0  0
    3.7958   -3.0992    1.1183 C   0  0  0  0  0  0  0  0  0  0  0  0
    3.1613   -1.8243    0.4701 C   0  0  1  0  0  0  0  0  0  0  0  0
    3.9334   -0.4840    0.7026 C   0  0  1  0  0  0  0  0  0  0  0  0
    3.4151    0.4011    1.8585 C   0  0  1  0  0  0  0  0  0  0  0  0
    1.9724    0.4280    2.2366 C   0  0  0  0  0  0  0  0  0  0  0  0
    1.1749    1.5185    1.8428 C   0  0  0  0  0  0  0  0  0  0  0  0
   -0.1830    1.5071    2.1808 C   0  0  0  0  0  0  0  0  0  0  0  0
   -0.7280    0.5519    2.9588 N   0  0  0  0  0  0  0  0  0  0  0  0
    0.0602   -0.4440    3.3974 C   0  0  0  0  0  0  0  0  0  0  0  0
    1.4139   -0.5729    3.0603 C   0  0  0  0  0  0  0  0  0  0  0  0
    4.1917    0.0051    2.9353 O   0  0  0  0  0  0  0  0  0  0  0  0
    5.3864   -0.3780    2.5419 C   0  0  0  0  0  0  0  0  0  0  0  0
    6.3627   -0.3325    3.2831 O   0  0  0  0  0  0  0  0  0  0  0  0
    5.2843   -0.6945    1.1951 N   0  0  0  0  0  0  0  0  0  0  0  0
    6.4456   -0.9390    0.3235 C   0  0  0  0  0  0  0  0  0  0  0  0
    7.0221   -2.3740    0.3072 C   0  0  0  0  0  0  0  0  0  0  0  0
    6.5138   -3.2792   -0.8418 C   0  0  0  0  0  0  0  0  0  0  0  0
    5.0746   -3.2521   -0.9769 N   0  0  0  0  0  0  0  0  0  0  0  0
    2.3694   -1.8083   -1.7706 H   0  0  0  0  0  0  0  0  0  0  0  0
    1.9114   -3.9841   -0.2956 H   0  0  0  0  0  0  0  0  0  0  0  0
    2.7433   -4.2310   -1.8420 H   0  0  0  0  0  0  0  0  0  0  0  0
    4.3817   -5.0127    0.0677 H   0  0  0  0  0  0  0  0  0  0  0  0
    3.0524   -3.5979    1.7430 H   0  0  0  0  0  0  0  0  0  0  0  0
    4.6678   -2.9857    1.7561 H   0  0  0  0  0  0  0  0  0  0  0  0
    2.1524   -1.7280    0.8612 H   0  0  0  0  0  0  0  0  0  0  0  0
    3.9970    0.1331   -0.2021 H   0  0  0  0  0  0  0  0  0  0  0  0
    3.7204    1.4311    1.6646 H   0  0  0  0  0  0  0  0  0  0  0  0
    1.6022    2.3465    1.3031 H   0  0  0  0  0  0  0  0  0  0  0  0
   -0.8295    2.2829    1.8191 H   0  0  0  0  0  0  0  0  0  0  0  0
   -0.4470   -1.2340    3.9349 H   0  0  0  0  0  0  0  0  0  0  0  0
    1.9930   -1.4240    3.3964 H   0  0  0  0  0  0  0  0  0  0  0  0
    6.1864   -0.5719   -0.6631 H   0  0  0  0  0  0  0  0  0  0  0  0
    7.2678   -0.2919    0.6092 H   0  0  0  0  0  0  0  0  0  0  0  0
    8.1063   -2.3145    0.2069 H   0  0  0  0  0  0  0  0  0  0  0  0
    6.8439   -2.8418    1.2666 H   0  0  0  0  0  0  0  0  0  0  0  0
    6.9738   -2.9682   -1.7964 H   0  0  0  0  0  0  0  0  0  0  0  0
    6.8325   -4.3049   -0.6656 H   0  0  0  0  0  0  0  0  0  0  0  0
  1  2  2  0
  2 23  1  0
  2  3  1  0
  3  7  1  0
  3  4  1  0
  3 24  1  6
  4  5  1  0
  4 25  1  0
  4 26  1  0
  5 23  1  0
  5  6  1  0
  5 27  1  1
  6  7  1  0
  6 28  1  0
  6 29  1  0
  7  8  1  0
  7 30  1  1
  8 19  1  0
  8  9  1  0
  8 31  1  6
  9 10  1  0
  9 16  1  0
  9 32  1  6
 10 15  1  0
 10 11  2  0
 11 12  1  0
 11 33  1  0
 12 13  2  0
 12 34  1  0
 13 14  1  0
 14 15  2  0
 14 35  1  0
 15 36  1  0
 16 17  1  0
 17 18  2  0
 17 19  1  0
 19 20  1  0
 20 21  1  0
 20 37  1  0
 20 38  1  0
 21 22  1  0
 21 39  1  0
 21 40  1  0
 22 23  1  0
 22 41  1  0
 22 42  1  0
M  END
>  <i_m_ct_stereo_status>  (95) 
1

>  <s_m_source_file>  (95) 
/var/tmp/pbs.5076255.sched01/tmpy176o0g7/39stoh4b52.sdf

>  <i_m_source_file_index>  (95) 
4

>  <i_lp_mmshare_version>  (95) 
48012

>  <i_f3d_flags>  (95) 
0

>  <s_epik_input>  (95) 
Tz1DMU4oW0NASF0oW0NIMl0yKVtDSDJdMylbQ0gyXVtDSDJdW0NIMl1OKFtDQEhdNFtDQEhdM1tDQEBIXTEyKUMoPU8pT1tDQEBIXTRjNVtjSF1bY0hdbltjSF1bY0hdNQ==

>  <s_epik_cmdline>  (95) 
J2VwaWtfcHl0aG9uJywgJy1waHQnLCAnMi4wJywgJy1waCcsICc3LjAnLCAnLXRuJywgJzgnLCAnLW1hJywgJzIwMCcsICctaW1hZScsICc8aW5maWxlLm1hZT4nLCAnLW9tYWUnLCAnPG91dGZpbGUubWFlPic=

>  <r_epik_Ionization_Penalty>  (95) 
0.0616904

>  <r_epik_Ionization_Penalty_Charging>  (95) 
0

>  <r_epik_Ionization_Penalty_Neutral>  (95) 
0.0616904

>  <r_epik_State_Penalty>  (95) 
0.0535523

>  <r_epik_Charging_Adjusted_Penalty>  (95) 
0.0535523

>  <i_epik_Tot_Q>  (95) 
0

>  <i_epik_Tot_abs_Q>  (95) 
0

>  <s_epik_Chemistry_Notes>  (95) 
This compound has an ester and may undergo hydrolysis at high or low pH.

>  <s_lp_Force_Field>  (95) 
OPLS3e

>  <r_lp_Energy>  (95) 
40.1089

>  <b_lp_Chiralities_Consistent>  (95) 
1

>  <s_lp_Variant>  (95) 
36:0-1

>  <s_i_glide_gridfile>  (95) 
pfpi4k_grid

>  <i_i_glide_lignum>  (95) 
4

>  <i_i_glide_rotatable_bonds>  (95) 
1

>  <r_i_docking_score>  (95) 
-2.90825

>  <r_i_glide_ligand_efficiency>  (95) 
-0.126446

>  <r_i_glide_ligand_efficiency_sa>  (95) 
-0.359595

>  <r_i_glide_ligand_efficiency_ln>  (95) 
-0.703242

>  <r_i_glide_gscore>  (95) 
-2.90825

>  <r_i_glide_lipo>  (95) 
-0.326097

>  <r_i_glide_hbond>  (95) 
0

>  <r_i_glide_metal>  (95) 
-0

>  <r_i_glide_rewards>  (95) 
-1.67367

>  <r_i_glide_evdw>  (95) 
-15.2759

>  <r_i_glide_ecoul>  (95) 
-2.07098

>  <r_i_glide_erotb>  (95) 
0.189154

>  <r_i_glide_esite>  (95) 
-0.0231929

>  <r_i_glide_emodel>  (95) 
-20.1291

>  <r_i_glide_energy>  (95) 
-17.3469

>  <r_i_glide_einternal>  (95) 
0.54049

>  <r_i_glide_intrahb_reward>  (95) 
-0

>  <i_i_glide_confnum>  (95) 
4

>  <i_i_glide_posenum>  (95) 
18

>  <r_i_glide_eff_state_penalty>  (95) 
0

>  <ligand_id>  (95) 
36

>  <original_smiles>  (95) 
O=C1C2CC3CC2C2C(c4ccncc4)OC(=O)N2CCCN13

>  <smiles>  (95) 
[H]c1nc([H])c([H])c(C2([H])OC(=O)N3C([H])([H])C([H])([H])C([H])([H])N4C(=O)C5([H])C([H])([H])C4([H])C([H])([H])C5([H])C32[H])c1[H]

$$$$
36:1:0
     RDKit          3D

 43 47  0  0  1  0  0  0  0  0999 V2000
    7.0020   -1.9994   -0.1673 O   0  0  0  0  0  0  0  0  0  0  0  0
    5.8311   -2.2754   -0.4347 C   0  0  0  0  0  0  0  0  0  0  0  0
    4.7093   -1.2714   -0.5076 C   0  0  1  0  0  0  0  0  0  0  0  0
    3.9686   -1.8731   -1.6990 C   0  0  0  0  0  0  0  0  0  0  0  0
    3.8667   -3.2498   -1.0345 C   0  0  2  0  0  0  0  0  0  0  0  0
    3.0339   -2.8627    0.2009 C   0  0  0  0  0  0  0  0  0  0  0  0
    3.7328   -1.5479    0.6794 C   0  0  1  0  0  0  0  0  0  0  0  0
    4.3885   -1.5928    2.1164 C   0  0  1  0  0  0  0  0  0  0  0  0
    3.5178   -1.0165    3.2577 C   0  0  1  0  0  0  0  0  0  0  0  0
    2.5813    0.1551    2.9783 C   0  0  0  0  0  0  0  0  0  0  0  0
    1.3235   -0.0198    2.3612 C   0  0  0  0  0  0  0  0  0  0  0  0
    0.5171    1.1074    2.1037 C   0  0  0  0  0  0  0  0  0  0  0  0
    0.9414    2.3376    2.4741 N   0  0  0  0  0  0  0  0  0  0  0  0
    2.1249    2.5483    3.0842 C   0  0  0  0  0  0  0  0  0  0  0  0
    2.9712    1.4553    3.3579 C   0  0  0  0  0  0  0  0  0  0  0  0
    2.8790   -2.1656    3.7769 O   0  0  0  0  0  0  0  0  0  0  0  0
    3.5934   -3.2720    3.5860 C   0  0  0  0  0  0  0  0  0  0  0  0
    3.4062   -4.3423    4.1605 O   0  0  0  0  0  0  0  0  0  0  0  0
    4.5636   -2.9496    2.6478 N   0  0  0  0  0  0  0  0  0  0  0  0
    5.7047   -3.8356    2.3748 C   0  0  0  0  0  0  0  0  0  0  0  0
    5.4069   -4.9915    1.3871 C   0  0  0  0  0  0  0  0  0  0  0  0
    5.7623   -4.7353   -0.0975 C   0  0  0  0  0  0  0  0  0  0  0  0
    5.2553   -3.4695   -0.6037 N   0  0  0  0  0  0  0  0  0  0  0  0
    5.0458   -0.2486   -0.6194 H   0  0  0  0  0  0  0  0  0  0  0  0
    3.0028   -1.4025   -1.8974 H   0  0  0  0  0  0  0  0  0  0  0  0
    4.5557   -1.8810   -2.6199 H   0  0  0  0  0  0  0  0  0  0  0  0
    3.4435   -4.0345   -1.6632 H   0  0  0  0  0  0  0  0  0  0  0  0
    2.0081   -2.6601   -0.0969 H   0  0  0  0  0  0  0  0  0  0  0  0
    2.9638   -3.6807    0.9119 H   0  0  0  0  0  0  0  0  0  0  0  0
    3.0099   -0.7412    0.5981 H   0  0  0  0  0  0  0  0  0  0  0  0
    5.3348   -1.0525    2.1074 H   0  0  0  0  0  0  0  0  0  0  0  0
    4.1924   -0.6890    4.0513 H   0  0  0  0  0  0  0  0  0  0  0  0
    1.0129   -1.0034    2.0369 H   0  0  0  0  0  0  0  0  0  0  0  0
   -0.4306    1.0737    1.5833 H   0  0  0  0  0  0  0  0  0  0  0  0
    2.3702    3.5765    3.3059 H   0  0  0  0  0  0  0  0  0  0  0  0
    3.9229    1.6206    3.8334 H   0  0  0  0  0  0  0  0  0  0  0  0
    6.5797   -3.2625    2.0753 H   0  0  0  0  0  0  0  0  0  0  0  0
    5.9909   -4.2879    3.3261 H   0  0  0  0  0  0  0  0  0  0  0  0
    5.9853   -5.8601    1.7077 H   0  0  0  0  0  0  0  0  0  0  0  0
    4.3675   -5.3013    1.4836 H   0  0  0  0  0  0  0  0  0  0  0  0
    6.8493   -4.7340   -0.1994 H   0  0  0  0  0  0  0  0  0  0  0  0
    5.3985   -5.5566   -0.7151 H   0  0  0  0  0  0  0  0  0  0  0  0
    0.3839    3.1517    2.1875 H   0  0  0  0  0  0  0  0  0  0  0  0
  1  2  2  0
  2 23  1  0
  2  3  1  0
  3  7  1  0
  3  4  1  0
  3 24  1  6
  4  5  1  0
  4 25  1  0
  4 26  1  0
  5 23  1  0
  5  6  1  0
  5 27  1  6
  6  7  1  0
  6 28  1  0
  6 29  1  0
  7  8  1  0
  7 30  1  1
  8 19  1  0
  8  9  1  0
  8 31  1  6
  9 10  1  0
  9 16  1  0
  9 32  1  1
 10 15  1  0
 10 11  2  0
 11 12  1  0
 11 33  1  0
 12 13  2  0
 12 34  1  0
 13 14  1  0
 13 43  1  0
 14 15  2  0
 14 35  1  0
 15 36  1  0
 16 17  1  0
 17 18  2  0
 17 19  1  0
 19 20  1  0
 20 21  1  0
 20 37  1  0
 20 38  1  0
 21 22  1  0
 21 39  1  0
 21 40  1  0
 22 23  1  0
 22 41  1  0
 22 42  1  0
M  CHG  1  13   1
M  END
>  <i_m_ct_stereo_status>  (96) 
1

>  <s_m_source_file>  (96) 
/var/tmp/pbs.5076255.sched01/tmpy176o0g7/39stoh4b52.sdf

>  <i_m_source_file_index>  (96) 
5

>  <i_lp_mmshare_version>  (96) 
48012

>  <i_f3d_flags>  (96) 
0

>  <s_epik_input>  (96) 
Tz1DMU4oW0NASF0oW0NIMl0yKVtDSDJdMylbQ0gyXVtDSDJdW0NIMl1OKFtDQEhdNFtDQEhdM1tDQEBIXTEyKUMoPU8pT1tDQEBIXTRjNVtjSF1bY0hdbltjSF1bY0hdNQ==

>  <s_epik_cmdline>  (96) 
J2VwaWtfcHl0aG9uJywgJy1waHQnLCAnMi4wJywgJy1waCcsICc3LjAnLCAnLXRuJywgJzgnLCAnLW1hJywgJzIwMCcsICctaW1hZScsICc8aW5maWxlLm1hZT4nLCAnLW9tYWUnLCAnPG91dGZpbGUubWFlPic=

>  <r_epik_Ionization_Penalty>  (96) 
1.37101

>  <r_epik_Ionization_Penalty_Charging>  (96) 
1.37101

>  <r_epik_Ionization_Penalty_Neutral>  (96) 
1.99471e-06

>  <r_epik_State_Penalty>  (96) 
1.45071

>  <r_epik_Charging_Adjusted_Penalty>  (96) 
2.82172

>  <i_epik_Tot_Q>  (96) 
1

>  <i_epik_Tot_abs_Q>  (96) 
1

>  <s_epik_Chemistry_Notes>  (96) 
This compound has an ester and may undergo hydrolysis at high or low pH.

>  <s_lp_Force_Field>  (96) 
OPLS3e

>  <r_lp_Energy>  (96) 
45.5635

>  <b_lp_Chiralities_Consistent>  (96) 
1

>  <s_lp_Variant>  (96) 
36:0-2

>  <s_i_glide_gridfile>  (96) 
pfpi4k_grid

>  <i_i_glide_lignum>  (96) 
5

>  <i_i_glide_rotatable_bonds>  (96) 
1

>  <r_i_docking_score>  (96) 
-4.10622

>  <r_i_glide_ligand_efficiency>  (96) 
-0.178531

>  <r_i_glide_ligand_efficiency_sa>  (96) 
-0.50772

>  <r_i_glide_ligand_efficiency_ln>  (96) 
-0.992922

>  <r_i_glide_gscore>  (96) 
-4.10622

>  <r_i_glide_lipo>  (96) 
-0.164446

>  <r_i_glide_hbond>  (96) 
-0.261934

>  <r_i_glide_metal>  (96) 
-0

>  <r_i_glide_rewards>  (96) 
-1.37799

>  <r_i_glide_evdw>  (96) 
-23.1671

>  <r_i_glide_ecoul>  (96) 
-8.10468

>  <r_i_glide_erotb>  (96) 
0.188089

>  <r_i_glide_esite>  (96) 
-0.115886

>  <r_i_glide_emodel>  (96) 
-40.9979

>  <r_i_glide_energy>  (96) 
-31.2718

>  <r_i_glide_einternal>  (96) 
0.615206

>  <r_i_glide_intrahb_reward>  (96) 
-0

>  <i_i_glide_confnum>  (96) 
4

>  <i_i_glide_posenum>  (96) 
18

>  <r_i_glide_eff_state_penalty>  (96) 
0

>  <ligand_id>  (96) 
36

>  <original_smiles>  (96) 
O=C1C2CC3CC2C2C(c4ccncc4)OC(=O)N2CCCN13

>  <smiles>  (96) 
[H]c1c(C2([H])OC(=O)N3C([H])([H])C([H])([H])C([H])([H])N4C(=O)C5([H])C([H])([H])C4([H])C([H])([H])C5([H])C32[H])c([H])c([H])[n+]([H])c1[H]

$$$$
36:1:1
     RDKit          3D

 43 47  0  0  1  0  0  0  0  0999 V2000
    7.0283   -2.9437    0.8353 O   0  0  0  0  0  0  0  0  0  0  0  0
    5.9918   -2.8930    0.1769 C   0  0  0  0  0  0  0  0  0  0  0  0
    5.1800   -1.6371   -0.0657 C   0  0  1  0  0  0  0  0  0  0  0  0
    4.7578   -1.9502   -1.5017 C   0  0  0  0  0  0  0  0  0  0  0  0
    4.1810   -3.3200   -1.1224 C   0  0  2  0  0  0  0  0  0  0  0  0
    3.0939   -2.8592   -0.1363 C   0  0  0  0  0  0  0  0  0  0  0  0
    3.8354   -1.7821    0.7256 C   0  0  1  0  0  0  0  0  0  0  0  0
    3.9842   -2.1099    2.2675 C   0  0  1  0  0  0  0  0  0  0  0  0
    2.9363   -1.4396    3.1872 C   0  0  1  0  0  0  0  0  0  0  0  0
    2.3880   -0.0678    2.8173 C   0  0  0  0  0  0  0  0  0  0  0  0
    3.0621    1.1018    3.2224 C   0  0  0  0  0  0  0  0  0  0  0  0
    2.5427    2.3696    2.8743 C   0  0  0  0  0  0  0  0  0  0  0  0
    1.4080    2.4457    2.1486 N   0  0  0  0  0  0  0  0  0  0  0  0
    0.7155    1.3537    1.7643 C   0  0  0  0  0  0  0  0  0  0  0  0
    1.1891    0.0690    2.0821 C   0  0  0  0  0  0  0  0  0  0  0  0
    1.9518   -2.4464    3.3222 O   0  0  0  0  0  0  0  0  0  0  0  0
    2.4468   -3.6715    3.1616 C   0  0  0  0  0  0  0  0  0  0  0  0
    1.8654   -4.7113    3.4661 O   0  0  0  0  0  0  0  0  0  0  0  0
    3.7088   -3.5103    2.6108 N   0  0  0  0  0  0  0  0  0  0  0  0
    4.6817   -4.6139    2.5539 C   0  0  0  0  0  0  0  0  0  0  0  0
    4.4939   -5.5769    1.3480 C   0  0  0  0  0  0  0  0  0  0  0  0
    5.3436   -5.2921    0.0819 C   0  0  0  0  0  0  0  0  0  0  0  0
    5.2843   -3.8997   -0.3475 N   0  0  0  0  0  0  0  0  0  0  0  0
    5.7311   -0.7096    0.0844 H   0  0  0  0  0  0  0  0  0  0  0  0
    4.0178   -1.2547   -1.9046 H   0  0  0  0  0  0  0  0  0  0  0  0
    5.5939   -2.0236   -2.2028 H   0  0  0  0  0  0  0  0  0  0  0  0
    3.8294   -3.9207   -1.9630 H   0  0  0  0  0  0  0  0  0  0  0  0
    2.2788   -2.4072   -0.6952 H   0  0  0  0  0  0  0  0  0  0  0  0
    2.6403   -3.6926    0.3910 H   0  0  0  0  0  0  0  0  0  0  0  0
    3.3166   -0.8348    0.5801 H   0  0  0  0  0  0  0  0  0  0  0  0
    4.9743   -1.8079    2.6111 H   0  0  0  0  0  0  0  0  0  0  0  0
    3.3753   -1.3361    4.1822 H   0  0  0  0  0  0  0  0  0  0  0  0
    3.9842    1.0297    3.7810 H   0  0  0  0  0  0  0  0  0  0  0  0
    3.0149    3.3093    3.1311 H   0  0  0  0  0  0  0  0  0  0  0  0
   -0.1873    1.5473    1.2052 H   0  0  0  0  0  0  0  0  0  0  0  0
    0.6503   -0.8006    1.7437 H   0  0  0  0  0  0  0  0  0  0  0  0
    5.7026   -4.2423    2.6258 H   0  0  0  0  0  0  0  0  0  0  0  0
    4.5575   -5.2004    3.4682 H   0  0  0  0  0  0  0  0  0  0  0  0
    4.7505   -6.5839    1.6835 H   0  0  0  0  0  0  0  0  0  0  0  0
    3.4377   -5.6375    1.0876 H   0  0  0  0  0  0  0  0  0  0  0  0
    6.3828   -5.5460    0.2969 H   0  0  0  0  0  0  0  0  0  0  0  0
    5.0337   -5.9495   -0.7308 H   0  0  0  0  0  0  0  0  0  0  0  0
    1.0354    3.3601    1.8444 H   0  0  0  0  0  0  0  0  0  0  0  0
  1  2  2  0
  2 23  1  0
  2  3  1  0
  3  7  1  0
  3  4  1  0
  3 24  1  6
  4  5  1  0
  4 25  1  0
  4 26  1  0
  5 23  1  0
  5  6  1  0
  5 27  1  6
  6  7  1  0
  6 28  1  0
  6 29  1  0
  7  8  1  0
  7 30  1  1
  8 19  1  0
  8  9  1  0
  8 31  1  1
  9 10  1  0
  9 16  1  0
  9 32  1  1
 10 15  1  0
 10 11  2  0
 11 12  1  0
 11 33  1  0
 12 13  2  0
 12 34  1  0
 13 14  1  0
 13 43  1  0
 14 15  2  0
 14 35  1  0
 15 36  1  0
 16 17  1  0
 17 18  2  0
 17 19  1  0
 19 20  1  0
 20 21  1  0
 20 37  1  0
 20 38  1  0
 21 22  1  0
 21 39  1  0
 21 40  1  0
 22 23  1  0
 22 41  1  0
 22 42  1  0
M  CHG  1  13   1
M  END
>  <i_m_ct_stereo_status>  (97) 
1

>  <s_m_source_file>  (97) 
/var/tmp/pbs.5076255.sched01/tmpy176o0g7/39stoh4b52.sdf

>  <i_m_source_file_index>  (97) 
5

>  <i_lp_mmshare_version>  (97) 
48012

>  <i_f3d_flags>  (97) 
0

>  <s_epik_input>  (97) 
Tz1DMU4oW0NASF0oW0NIMl0yKVtDSDJdMylbQ0gyXVtDSDJdW0NIMl1OKFtDQEhdNFtDQEhdM1tDQEBIXTEyKUMoPU8pT1tDQEBIXTRjNVtjSF1bY0hdbltjSF1bY0hdNQ==

>  <s_epik_cmdline>  (97) 
J2VwaWtfcHl0aG9uJywgJy1waHQnLCAnMi4wJywgJy1waCcsICc3LjAnLCAnLXRuJywgJzgnLCAnLW1hJywgJzIwMCcsICctaW1hZScsICc8aW5maWxlLm1hZT4nLCAnLW9tYWUnLCAnPG91dGZpbGUubWFlPic=

>  <r_epik_Ionization_Penalty>  (97) 
1.37101

>  <r_epik_Ionization_Penalty_Charging>  (97) 
1.37101

>  <r_epik_Ionization_Penalty_Neutral>  (97) 
1.99471e-06

>  <r_epik_State_Penalty>  (97) 
1.45071

>  <r_epik_Charging_Adjusted_Penalty>  (97) 
2.82172

>  <i_epik_Tot_Q>  (97) 
1

>  <i_epik_Tot_abs_Q>  (97) 
1

>  <s_epik_Chemistry_Notes>  (97) 
This compound has an ester and may undergo hydrolysis at high or low pH.

>  <s_lp_Force_Field>  (97) 
OPLS3e

>  <r_lp_Energy>  (97) 
45.5635

>  <b_lp_Chiralities_Consistent>  (97) 
1

>  <s_lp_Variant>  (97) 
36:0-2

>  <s_i_glide_gridfile>  (97) 
pfpi4k_grid

>  <i_i_glide_lignum>  (97) 
5

>  <i_i_glide_rotatable_bonds>  (97) 
1

>  <r_i_docking_score>  (97) 
-3.9688

>  <r_i_glide_ligand_efficiency>  (97) 
-0.172556

>  <r_i_glide_ligand_efficiency_sa>  (97) 
-0.490728

>  <r_i_glide_ligand_efficiency_ln>  (97) 
-0.959692

>  <r_i_glide_gscore>  (97) 
-3.9688

>  <r_i_glide_lipo>  (97) 
-0.10798

>  <r_i_glide_hbond>  (97) 
-0.2

>  <r_i_glide_metal>  (97) 
-0

>  <r_i_glide_rewards>  (97) 
-1.41581

>  <r_i_glide_evdw>  (97) 
-22.6564

>  <r_i_glide_ecoul>  (97) 
-8.07889

>  <r_i_glide_erotb>  (97) 
0.188089

>  <r_i_glide_esite>  (97) 
-0.0884513

>  <r_i_glide_emodel>  (97) 
-40.4696

>  <r_i_glide_energy>  (97) 
-30.7352

>  <r_i_glide_einternal>  (97) 
0.173615

>  <r_i_glide_intrahb_reward>  (97) 
-0

>  <i_i_glide_confnum>  (97) 
2

>  <i_i_glide_posenum>  (97) 
1

>  <r_i_glide_eff_state_penalty>  (97) 
0

>  <ligand_id>  (97) 
36

>  <original_smiles>  (97) 
O=C1C2CC3CC2C2C(c4ccncc4)OC(=O)N2CCCN13

>  <smiles>  (97) 
[H]c1c(C2([H])OC(=O)N3C([H])([H])C([H])([H])C([H])([H])N4C(=O)C5([H])C([H])([H])C4([H])C([H])([H])C5([H])C32[H])c([H])c([H])[n+]([H])c1[H]

$$$$
36:1:2
     RDKit          3D

 43 47  0  0  1  0  0  0  0  0999 V2000
    1.1623   -2.4949    3.7832 O   0  0  0  0  0  0  0  0  0  0  0  0
    1.9759   -1.6358    3.4473 C   0  0  0  0  0  0  0  0  0  0  0  0
    1.9647   -0.9028    2.1266 C   0  0  1  0  0  0  0  0  0  0  0  0
    2.4327    0.4594    2.6367 C   0  0  0  0  0  0  0  0  0  0  0  0
    3.6784   -0.1301    3.3074 C   0  0  2  0  0  0  0  0  0  0  0  0
    4.3757   -0.6931    2.0514 C   0  0  0  0  0  0  0  0  0  0  0  0
    3.1956   -1.3962    1.2989 C   0  0  1  0  0  0  0  0  0  0  0  0
    3.3191   -2.9623    1.1096 C   0  0  1  0  0  0  0  0  0  0  0  0
    3.8706   -3.4277   -0.2595 C   0  0  1  0  0  0  0  0  0  0  0  0
    3.5904   -2.6001   -1.5075 C   0  0  0  0  0  0  0  0  0  0  0  0
    2.5972   -3.0256   -2.4137 C   0  0  0  0  0  0  0  0  0  0  0  0
    2.3583   -2.2875   -3.5819 C   0  0  0  0  0  0  0  0  0  0  0  0
    3.0333   -1.1389   -3.7990 N   0  0  0  0  0  0  0  0  0  0  0  0
    3.9721   -0.6761   -2.9464 C   0  0  0  0  0  0  0  0  0  0  0  0
    4.3000   -1.4158   -1.7912 C   0  0  0  0  0  0  0  0  0  0  0  0
    5.2471   -3.6001    0.0001 O   0  0  0  0  0  0  0  0  0  0  0  0
    5.4916   -3.8896    1.2716 C   0  0  0  0  0  0  0  0  0  0  0  0
    6.5535   -4.3410    1.6928 O   0  0  0  0  0  0  0  0  0  0  0  0
    4.3279   -3.5928    1.9708 N   0  0  0  0  0  0  0  0  0  0  0  0
    4.1116   -4.0367    3.3589 C   0  0  0  0  0  0  0  0  0  0  0  0
    4.7410   -3.1118    4.4384 C   0  0  0  0  0  0  0  0  0  0  0  0
    3.8198   -2.0299    5.0635 C   0  0  0  0  0  0  0  0  0  0  0  0
    3.0994   -1.2515    4.0641 N   0  0  0  0  0  0  0  0  0  0  0  0
    1.0024   -0.9179    1.6188 H   0  0  0  0  0  0  0  0  0  0  0  0
    2.6520    1.1761    1.8409 H   0  0  0  0  0  0  0  0  0  0  0  0
    1.7401    0.9202    3.3443 H   0  0  0  0  0  0  0  0  0  0  0  0
    4.2656    0.5777    3.8974 H   0  0  0  0  0  0  0  0  0  0  0  0
    4.7779    0.1230    1.4461 H   0  0  0  0  0  0  0  0  0  0  0  0
    5.2327   -1.3077    2.3137 H   0  0  0  0  0  0  0  0  0  0  0  0
    3.0583   -0.8938    0.3460 H   0  0  0  0  0  0  0  0  0  0  0  0
    2.3414   -3.4234    1.2504 H   0  0  0  0  0  0  0  0  0  0  0  0
    3.4920   -4.4349   -0.4534 H   0  0  0  0  0  0  0  0  0  0  0  0
    1.9892   -3.8908   -2.2120 H   0  0  0  0  0  0  0  0  0  0  0  0
    1.6004   -2.5564   -4.3052 H   0  0  0  0  0  0  0  0  0  0  0  0
    4.4081    0.2818   -3.1889 H   0  0  0  0  0  0  0  0  0  0  0  0
    5.0412   -1.0488   -1.0976 H   0  0  0  0  0  0  0  0  0  0  0  0
    3.0567   -4.2268    3.5497 H   0  0  0  0  0  0  0  0  0  0  0  0
    4.5725   -5.0220    3.4595 H   0  0  0  0  0  0  0  0  0  0  0  0
    5.0897   -3.7442    5.2568 H   0  0  0  0  0  0  0  0  0  0  0  0
    5.6457   -2.6546    4.0423 H   0  0  0  0  0  0  0  0  0  0  0  0
    3.0922   -2.5232    5.7120 H   0  0  0  0  0  0  0  0  0  0  0  0
    4.3950   -1.3687    5.7124 H   0  0  0  0  0  0  0  0  0  0  0  0
    2.7840   -0.5789   -4.6162 H   0  0  0  0  0  0  0  0  0  0  0  0
  1  2  2  0
  2 23  1  0
  2  3  1  0
  3  7  1  0
  3  4  1  0
  3 24  1  6
  4  5  1  0
  4 25  1  0
  4 26  1  0
  5 23  1  0
  5  6  1  0
  5 27  1  1
  6  7  1  0
  6 28  1  0
  6 29  1  0
  7  8  1  0
  7 30  1  6
  8 19  1  0
  8  9  1  0
  8 31  1  1
  9 10  1  0
  9 16  1  0
  9 32  1  6
 10 15  1  0
 10 11  2  0
 11 12  1  0
 11 33  1  0
 12 13  2  0
 12 34  1  0
 13 14  1  0
 13 43  1  0
 14 15  2  0
 14 35  1  0
 15 36  1  0
 16 17  1  0
 17 18  2  0
 17 19  1  0
 19 20  1  0
 20 21  1  0
 20 37  1  0
 20 38  1  0
 21 22  1  0
 21 39  1  0
 21 40  1  0
 22 23  1  0
 22 41  1  0
 22 42  1  0
M  CHG  1  13   1
M  END
>  <i_m_ct_stereo_status>  (98) 
1

>  <s_m_source_file>  (98) 
/var/tmp/pbs.5076255.sched01/tmpy176o0g7/39stoh4b52.sdf

>  <i_m_source_file_index>  (98) 
5

>  <i_lp_mmshare_version>  (98) 
48012

>  <i_f3d_flags>  (98) 
0

>  <s_epik_input>  (98) 
Tz1DMU4oW0NASF0oW0NIMl0yKVtDSDJdMylbQ0gyXVtDSDJdW0NIMl1OKFtDQEhdNFtDQEhdM1tDQEBIXTEyKUMoPU8pT1tDQEBIXTRjNVtjSF1bY0hdbltjSF1bY0hdNQ==

>  <s_epik_cmdline>  (98) 
J2VwaWtfcHl0aG9uJywgJy1waHQnLCAnMi4wJywgJy1waCcsICc3LjAnLCAnLXRuJywgJzgnLCAnLW1hJywgJzIwMCcsICctaW1hZScsICc8aW5maWxlLm1hZT4nLCAnLW9tYWUnLCAnPG91dGZpbGUubWFlPic=

>  <r_epik_Ionization_Penalty>  (98) 
1.37101

>  <r_epik_Ionization_Penalty_Charging>  (98) 
1.37101

>  <r_epik_Ionization_Penalty_Neutral>  (98) 
1.99471e-06

>  <r_epik_State_Penalty>  (98) 
1.45071

>  <r_epik_Charging_Adjusted_Penalty>  (98) 
2.82172

>  <i_epik_Tot_Q>  (98) 
1

>  <i_epik_Tot_abs_Q>  (98) 
1

>  <s_epik_Chemistry_Notes>  (98) 
This compound has an ester and may undergo hydrolysis at high or low pH.

>  <s_lp_Force_Field>  (98) 
OPLS3e

>  <r_lp_Energy>  (98) 
45.5635

>  <b_lp_Chiralities_Consistent>  (98) 
1

>  <s_lp_Variant>  (98) 
36:0-2

>  <s_i_glide_gridfile>  (98) 
pfpi4k_grid

>  <i_i_glide_lignum>  (98) 
5

>  <i_i_glide_rotatable_bonds>  (98) 
1

>  <r_i_docking_score>  (98) 
-3.60556

>  <r_i_glide_ligand_efficiency>  (98) 
-0.156763

>  <r_i_glide_ligand_efficiency_sa>  (98) 
-0.445814

>  <r_i_glide_ligand_efficiency_ln>  (98) 
-0.871856

>  <r_i_glide_gscore>  (98) 
-3.60556

>  <r_i_glide_lipo>  (98) 
-0.533586

>  <r_i_glide_hbond>  (98) 
0

>  <r_i_glide_metal>  (98) 
-0

>  <r_i_glide_rewards>  (98) 
-1.35838

>  <r_i_glide_evdw>  (98) 
-24.2353

>  <r_i_glide_ecoul>  (98) 
-4.59945

>  <r_i_glide_erotb>  (98) 
0.188089

>  <r_i_glide_esite>  (98) 
-6.33761e-07

>  <r_i_glide_emodel>  (98) 
-37.2164

>  <r_i_glide_energy>  (98) 
-28.8347

>  <r_i_glide_einternal>  (98) 
0.806431

>  <r_i_glide_intrahb_reward>  (98) 
-0

>  <i_i_glide_confnum>  (98) 
4

>  <i_i_glide_posenum>  (98) 
7

>  <r_i_glide_eff_state_penalty>  (98) 
0

>  <ligand_id>  (98) 
36

>  <original_smiles>  (98) 
O=C1C2CC3CC2C2C(c4ccncc4)OC(=O)N2CCCN13

>  <smiles>  (98) 
[H]c1c(C2([H])OC(=O)N3C([H])([H])C([H])([H])C([H])([H])N4C(=O)C5([H])C([H])([H])C4([H])C([H])([H])C5([H])C32[H])c([H])c([H])[n+]([H])c1[H]

$$$$
37:0:0
     RDKit          3D

 67 73  0  0  1  0  0  0  0  0999 V2000
   -2.2156    3.6705    5.8610 C   0  0  0  0  0  0  0  0  0  0  0  0
   -1.5498    3.0860    4.8380 C   0  0  0  0  0  0  0  0  0  0  0  0
   -2.1572    2.5917    3.7161 O   0  0  0  0  0  0  0  0  0  0  0  0
   -3.4381    3.0886    3.3565 C   0  0  0  0  0  0  0  0  0  0  0  0
   -0.0125    2.9322    4.7717 C   0  0  2  0  0  0  0  0  0  0  0  0
    0.4757    2.1217    3.5312 C   0  0  2  0  0  0  0  0  0  0  0  0
   -0.0546    0.6745    3.6035 C   0  0  0  0  0  0  0  0  0  0  0  0
   -0.2641    0.1807    5.0344 C   0  0  0  0  0  0  0  0  0  0  0  0
    0.6835    0.7790    6.1063 C   0  0  1  0  0  0  0  0  0  0  0  0
    0.1551    0.2081    7.4430 C   0  0  0  0  0  0  0  0  0  0  0  0
   -0.9983    0.6002    7.7203 O   0  0  0  0  0  0  0  0  0  0  0  0
    1.0274   -0.7000    8.0216 C   0  0  0  0  0  0  0  0  0  0  0  0
    0.8623   -1.4601    9.2786 C   0  0  0  0  0  0  0  0  0  0  0  0
   -0.1396   -1.4053    9.9815 O   0  0  0  0  0  0  0  0  0  0  0  0
    2.2027   -0.7726    7.1876 C   0  0  0  0  0  0  0  0  0  0  0  0
    3.5048   -1.4753    7.5150 C   0  0  0  0  0  0  0  0  0  0  0  0
    2.0189    0.0195    6.1114 C   0  0  0  0  0  0  0  0  0  0  0  0
    3.0875    0.4622    5.4017 O   0  0  0  0  0  0  0  0  0  0  0  0
    3.3465   -0.0446    4.0947 C   0  0  2  0  0  0  0  0  0  0  0  0
    4.8801   -0.1125    3.9669 C   0  0  0  0  0  0  0  0  0  0  0  0
    5.6857    0.5129    4.6549 O   0  0  0  0  0  0  0  0  0  0  0  0
    5.1697   -0.9366    2.9634 O   0  0  0  0  0  0  0  0  0  0  0  0
    4.0455   -1.7237    2.6058 C   0  0  2  0  0  0  0  0  0  0  0  0
    3.0698   -1.2017    1.5188 C   0  0  2  0  0  0  0  0  0  0  0  0
    2.7146    0.3077    1.5776 C   0  0  0  0  0  0  0  0  0  0  0  0
    2.8753    0.9662    2.9745 C   0  0  1  0  0  0  0  0  0  0  0  0
    2.0312    2.2559    3.3145 C   0  0  1  0  0  0  0  0  0  0  0  0
    2.2012    3.0791    2.1564 O   0  0  0  0  0  0  0  0  0  0  0  0
    2.7313    3.1240    4.4091 C   0  0  0  0  0  0  0  0  0  0  0  0
    2.1953    3.0039    5.8509 C   0  0  0  0  0  0  0  0  0  0  0  0
    0.7728    2.3930    6.0225 C   0  0  1  0  0  0  0  0  0  0  0  0
    0.2630    3.0622    7.1977 O   0  0  0  0  0  0  0  0  0  0  0  0
    0.9854    3.0602    8.4398 C   0  0  0  0  0  0  0  0  0  0  0  0
    1.8555   -1.8602    1.8679 O   0  0  0  0  0  0  0  0  0  0  0  0
    1.8712   -2.1735    3.2534 C   0  0  0  0  0  0  0  0  0  0  0  0
    3.1547   -1.5691    3.8170 C   0  0  2  0  0  0  0  0  0  0  0  0
   -3.2930    3.7356    5.8940 H   0  0  0  0  0  0  0  0  0  0  0  0
   -1.7028    4.0971    6.7033 H   0  0  0  0  0  0  0  0  0  0  0  0
   -3.7844    2.5592    2.4708 H   0  0  0  0  0  0  0  0  0  0  0  0
   -3.3800    4.1446    3.0946 H   0  0  0  0  0  0  0  0  0  0  0  0
   -4.1812    2.9466    4.1347 H   0  0  0  0  0  0  0  0  0  0  0  0
    0.2760    3.9699    4.6150 H   0  0  0  0  0  0  0  0  0  0  0  0
    0.0106    2.5465    2.6428 H   0  0  0  0  0  0  0  0  0  0  0  0
   -1.0195    0.6098    3.0986 H   0  0  0  0  0  0  0  0  0  0  0  0
    0.5554    0.0037    3.0253 H   0  0  0  0  0  0  0  0  0  0  0  0
   -1.2935    0.4366    5.2864 H   0  0  0  0  0  0  0  0  0  0  0  0
   -0.2611   -0.9073    5.0953 H   0  0  0  0  0  0  0  0  0  0  0  0
    1.6964   -2.0977    9.5623 H   0  0  0  0  0  0  0  0  0  0  0  0
    3.7544   -1.3868    8.5751 H   0  0  0  0  0  0  0  0  0  0  0  0
    4.3408   -1.0622    6.9438 H   0  0  0  0  0  0  0  0  0  0  0  0
    3.4221   -2.5341    7.2593 H   0  0  0  0  0  0  0  0  0  0  0  0
    4.3047   -2.7713    2.4426 H   0  0  0  0  0  0  0  0  0  0  0  0
    3.3894   -1.4854    0.5119 H   0  0  0  0  0  0  0  0  0  0  0  0
    3.3572    0.8353    0.8769 H   0  0  0  0  0  0  0  0  0  0  0  0
    1.7093    0.4625    1.1917 H   0  0  0  0  0  0  0  0  0  0  0  0
    3.7668    1.5200    2.7482 H   0  0  0  0  0  0  0  0  0  0  0  0
    1.3600    3.4394    1.8745 H   0  0  0  0  0  0  0  0  0  0  0  0
    3.8100    2.9596    4.4186 H   0  0  0  0  0  0  0  0  0  0  0  0
    2.6325    4.1791    4.1399 H   0  0  0  0  0  0  0  0  0  0  0  0
    2.9231    2.5287    6.5043 H   0  0  0  0  0  0  0  0  0  0  0  0
    2.1504    4.0334    6.2129 H   0  0  0  0  0  0  0  0  0  0  0  0
    0.4263    3.6668    9.1537 H   0  0  0  0  0  0  0  0  0  0  0  0
    1.9759    3.5106    8.3720 H   0  0  0  0  0  0  0  0  0  0  0  0
    1.1019    2.0766    8.8947 H   0  0  0  0  0  0  0  0  0  0  0  0
    0.9632   -1.9182    3.7789 H   0  0  0  0  0  0  0  0  0  0  0  0
    1.9503   -3.2560    3.3192 H   0  0  0  0  0  0  0  0  0  0  0  0
    3.5018   -2.1585    4.6712 H   0  0  0  0  0  0  0  0  0  0  0  0
  1  2  2  0
  1 37  1  0
  1 38  1  0
  2  3  1  0
  2  5  1  0
  3  4  1  0
  4 39  1  0
  4 40  1  0
  4 41  1  0
  5 31  1  0
  5  6  1  0
  5 42  1  6
  6 27  1  0
  6  7  1  0
  6 43  1  6
  7  8  1  0
  7 44  1  0
  7 45  1  0
  8  9  1  0
  8 46  1  0
  8 47  1  0
  9 17  1  0
  9 31  1  0
  9 10  1  1
 10 11  1  0
 10 12  2  0
 12 13  1  0
 12 15  1  0
 13 14  2  0
 13 48  1  0
 15 16  1  0
 15 17  2  0
 16 49  1  0
 16 50  1  0
 16 51  1  0
 17 18  1  0
 18 19  1  0
 19 26  1  0
 19 36  1  0
 19 20  1  1
 20 21  2  0
 20 22  1  0
 22 23  1  0
 23 36  1  0
 23 24  1  0
 23 52  1  6
 24 25  1  0
 24 34  1  0
 24 53  1  6
 25 26  1  0
 25 54  1  0
 25 55  1  0
 26 27  1  0
 26 56  1  6
 27 28  1  6
 27 29  1  0
 28 57  1  0
 29 30  1  0
 29 58  1  0
 29 59  1  0
 30 31  1  0
 30 60  1  0
 30 61  1  0
 31 32  1  1
 32 33  1  0
 33 62  1  0
 33 63  1  0
 33 64  1  0
 34 35  1  0
 35 36  1  0
 35 65  1  0
 35 66  1  0
 36 67  1  1
M  CHG  1  11  -1
M  END
>  <i_m_ct_stereo_status>  (99) 
1

>  <s_m_source_file>  (99) 
/var/tmp/pbs.5076255.sched01/tmpy176o0g7/39stoh4b52.sdf

>  <i_m_source_file_index>  (99) 
6

>  <i_lp_mmshare_version>  (99) 
48012

>  <i_f3d_flags>  (99) 
0

>  <s_epik_input>  (99) 
W0NIM11PQyg9W0NIMl0pW0NAQEhdKFtDQEBdMShbQ0gyXVtDSDJdMilPW0NIM10pW0NASF0oW0NIMl1bQ0gyXTMpW0NAXTIoW09IXSlbQ0BIXShbQ0gyXVtDQEhdNFtDSF0oT0M1PU8pW0NASF02W0NIMl1PNClbQ0BdNTZPQyhbQ0BAXTEzNyk9QyhbQ0gzXSlbQ0BASF0oQzc9TylbQ0hdPU8=

>  <s_epik_cmdline>  (99) 
J2VwaWtfcHl0aG9uJywgJy1waHQnLCAnMi4wJywgJy1waCcsICc3LjAnLCAnLXRuJywgJzgnLCAnLW1hJywgJzIwMCcsICctaW1hZScsICc8aW5maWxlLm1hZT4nLCAnLW9tYWUnLCAnPG91dGZpbGUubWFlPic=

>  <r_epik_Ionization_Penalty>  (99) 
0.173477

>  <r_epik_Ionization_Penalty_Charging>  (99) 
3.87592e-05

>  <r_epik_Ionization_Penalty_Neutral>  (99) 
0.173439

>  <r_epik_State_Penalty>  (99) 
0.0390415

>  <r_epik_Charging_Adjusted_Penalty>  (99) 
0.0390803

>  <i_epik_Tot_Q>  (99) 
-1

>  <i_epik_Tot_abs_Q>  (99) 
1

>  <s_epik_Chemistry_Notes>  (99) 
This compound has an ester and may undergo hydrolysis at high or low pH.

>  <s_lp_Force_Field>  (99) 
OPLS3e

>  <r_lp_Energy>  (99) 
115.329

>  <b_lp_Chiralities_Consistent>  (99) 
1

>  <s_lp_Variant>  (99) 
37:0-1

>  <s_i_glide_gridfile>  (99) 
pfpi4k_grid

>  <i_i_glide_lignum>  (99) 
6

>  <i_i_glide_rotatable_bonds>  (99) 
5

>  <r_i_docking_score>  (99) 
-1.99209

>  <r_i_glide_ligand_efficiency>  (99) 
-0.0553358

>  <r_i_glide_ligand_efficiency_sa>  (99) 
-0.182715

>  <r_i_glide_ligand_efficiency_ln>  (99) 
-0.43462

>  <r_i_glide_gscore>  (99) 
-1.99209

>  <r_i_glide_lipo>  (99) 
-0.00949214

>  <r_i_glide_hbond>  (99) 
-0.393435

>  <r_i_glide_metal>  (99) 
-0

>  <r_i_glide_rewards>  (99) 
-0.110744

>  <r_i_glide_evdw>  (99) 
-20.3493

>  <r_i_glide_ecoul>  (99) 
-3.99449

>  <r_i_glide_erotb>  (99) 
0.163615

>  <r_i_glide_esite>  (99) 
-0.0253936

>  <r_i_glide_emodel>  (99) 
-24.0075

>  <r_i_glide_energy>  (99) 
-24.3438

>  <r_i_glide_einternal>  (99) 
8.08926

>  <r_i_glide_intrahb_reward>  (99) 
-0

>  <i_i_glide_confnum>  (99) 
1

>  <i_i_glide_posenum>  (99) 
17

>  <r_i_glide_eff_state_penalty>  (99) 
0

>  <ligand_id>  (99) 
37

>  <original_smiles>  (99) 
C=C(OC)C1C2CCC34C(=O)C(C=O)C(C)=C3OC35C(=O)OC6C(CC3C2(O)CCC14OC)OCC65

>  <smiles>  (99) 
[H]OC12C([H])([H])C([H])([H])C3(OC([H])([H])[H])C([H])(C(OC([H])([H])[H])=C([H])[H])C1([H])C([H])([H])C([H])([H])C31C([O-])=C(C([H])=O)C(C([H])([H])[H])=C1OC13C(=O)OC4([H])C([H])(OC([H])([H])C41[H])C([H])([H])C32[H]

$$$$
37:0:1
     RDKit          3D

 67 73  0  0  1  0  0  0  0  0999 V2000
    1.1238   -0.5715    4.6138 C   0  0  0  0  0  0  0  0  0  0  0  0
    1.6894   -1.7832    4.4292 C   0  0  0  0  0  0  0  0  0  0  0  0
    1.1073   -2.9703    4.7925 O   0  0  0  0  0  0  0  0  0  0  0  0
   -0.1845   -2.9499    5.3771 C   0  0  0  0  0  0  0  0  0  0  0  0
    3.0812   -1.9606    3.8050 C   0  0  2  0  0  0  0  0  0  0  0  0
    3.1779   -1.4067    2.3564 C   0  0  2  0  0  0  0  0  0  0  0  0
    2.2243   -2.1668    1.4435 C   0  0  0  0  0  0  0  0  0  0  0  0
    2.0200   -3.6215    1.8687 C   0  0  0  0  0  0  0  0  0  0  0  0
    3.1633   -4.3165    2.6215 C   0  0  1  0  0  0  0  0  0  0  0  0
    2.5741   -5.6979    3.0202 C   0  0  0  0  0  0  0  0  0  0  0  0
    1.6191   -5.6521    3.8329 O   0  0  0  0  0  0  0  0  0  0  0  0
    3.1501   -6.7384    2.3161 C   0  0  0  0  0  0  0  0  0  0  0  0
    2.8295   -8.1683    2.4390 C   0  0  0  0  0  0  0  0  0  0  0  0
    3.2027   -9.0511    1.6690 O   0  0  0  0  0  0  0  0  0  0  0  0
    4.1731   -6.1837    1.4579 C   0  0  0  0  0  0  0  0  0  0  0  0
    5.2056   -6.9666    0.6709 C   0  0  0  0  0  0  0  0  0  0  0  0
    4.1759   -4.8567    1.5916 C   0  0  0  0  0  0  0  0  0  0  0  0
    5.2712   -4.1192    1.2246 O   0  0  0  0  0  0  0  0  0  0  0  0
    5.2537   -3.3210    0.0473 C   0  0  2  0  0  0  0  0  0  0  0  0
    6.6659   -3.4212   -0.5565 C   0  0  0  0  0  0  0  0  0  0  0  0
    7.6811   -3.7513    0.0555 O   0  0  0  0  0  0  0  0  0  0  0  0
    6.5977   -3.0145   -1.8283 O   0  0  0  0  0  0  0  0  0  0  0  0
    5.2557   -3.0209   -2.2905 C   0  0  2  0  0  0  0  0  0  0  0  0
    4.4276   -1.7193   -2.1527 C   0  0  2  0  0  0  0  0  0  0  0  0
    4.5752   -0.9588   -0.8106 C   0  0  0  0  0  0  0  0  0  0  0  0
    5.0889   -1.7892    0.3896 C   0  0  1  0  0  0  0  0  0  0  0  0
    4.6692   -1.3389    1.8478 C   0  0  1  0  0  0  0  0  0  0  0  0
    4.9680    0.0591    1.8514 O   0  0  0  0  0  0  0  0  0  0  0  0
    5.6766   -1.8637    2.8998 C   0  0  0  0  0  0  0  0  0  0  0  0
    5.2577   -3.0783    3.7480 C   0  0  0  0  0  0  0  0  0  0  0  0
    3.7372   -3.3922    3.8160 C   0  0  1  0  0  0  0  0  0  0  0  0
    3.5599   -3.9620    5.1333 O   0  0  0  0  0  0  0  0  0  0  0  0
    4.3323   -5.1067    5.5380 C   0  0  0  0  0  0  0  0  0  0  0  0
    3.0952   -2.2006   -2.1056 O   0  0  0  0  0  0  0  0  0  0  0  0
    3.1073   -3.5273   -1.6094 C   0  0  0  0  0  0  0  0  0  0  0  0
    4.5555   -3.8561   -1.2445 C   0  0  2  0  0  0  0  0  0  0  0  0
    0.1494   -0.4357    5.0562 H   0  0  0  0  0  0  0  0  0  0  0  0
    1.6422    0.3290    4.3215 H   0  0  0  0  0  0  0  0  0  0  0  0
   -0.4715   -3.9799    5.5824 H   0  0  0  0  0  0  0  0  0  0  0  0
   -0.9308   -2.5259    4.7050 H   0  0  0  0  0  0  0  0  0  0  0  0
   -0.1880   -2.4124    6.3253 H   0  0  0  0  0  0  0  0  0  0  0  0
    3.6804   -1.3232    4.4541 H   0  0  0  0  0  0  0  0  0  0  0  0
    2.7945   -0.3856    2.3668 H   0  0  0  0  0  0  0  0  0  0  0  0
    1.2545   -1.6654    1.4572 H   0  0  0  0  0  0  0  0  0  0  0  0
    2.5396   -2.0905    0.4180 H   0  0  0  0  0  0  0  0  0  0  0  0
    1.1234   -3.6189    2.4850 H   0  0  0  0  0  0  0  0  0  0  0  0
    1.7887   -4.2622    1.0264 H   0  0  0  0  0  0  0  0  0  0  0  0
    2.2006   -8.3949    3.3007 H   0  0  0  0  0  0  0  0  0  0  0  0
    5.5471   -7.8422    1.2222 H   0  0  0  0  0  0  0  0  0  0  0  0
    6.0818   -6.3572    0.4392 H   0  0  0  0  0  0  0  0  0  0  0  0
    4.7524   -7.2966   -0.2630 H   0  0  0  0  0  0  0  0  0  0  0  0
    5.1517   -3.4599   -3.2844 H   0  0  0  0  0  0  0  0  0  0  0  0
    4.5606   -1.0482   -3.0054 H   0  0  0  0  0  0  0  0  0  0  0  0
    5.2781   -0.1564   -0.9759 H   0  0  0  0  0  0  0  0  0  0  0  0
    3.6388   -0.4679   -0.5600 H   0  0  0  0  0  0  0  0  0  0  0  0
    6.1167   -1.3988    0.4105 H   0  0  0  0  0  0  0  0  0  0  0  0
    4.3656    0.5090    1.2794 H   0  0  0  0  0  0  0  0  0  0  0  0
    6.6210   -2.0852    2.4164 H   0  0  0  0  0  0  0  0  0  0  0  0
    5.9030   -1.0638    3.6094 H   0  0  0  0  0  0  0  0  0  0  0  0
    5.8208   -3.9645    3.4819 H   0  0  0  0  0  0  0  0  0  0  0  0
    5.5897   -2.8522    4.7623 H   0  0  0  0  0  0  0  0  0  0  0  0
    4.0810   -5.3418    6.5709 H   0  0  0  0  0  0  0  0  0  0  0  0
    5.4044   -4.9289    5.5223 H   0  0  0  0  0  0  0  0  0  0  0  0
    4.1573   -6.0133    4.9626 H   0  0  0  0  0  0  0  0  0  0  0  0
    2.3682   -3.7578   -0.8584 H   0  0  0  0  0  0  0  0  0  0  0  0
    2.8121   -4.1059   -2.4728 H   0  0  0  0  0  0  0  0  0  0  0  0
    4.7502   -4.9283   -1.3705 H   0  0  0  0  0  0  0  0  0  0  0  0
  1  2  2  0
  1 37  1  0
  1 38  1  0
  2  3  1  0
  2  5  1  0
  3  4  1  0
  4 39  1  0
  4 40  1  0
  4 41  1  0
  5 31  1  0
  5  6  1  0
  5 42  1  1
  6 27  1  0
  6  7  1  0
  6 43  1  1
  7  8  1  0
  7 44  1  0
  7 45  1  0
  8  9  1  0
  8 46  1  0
  8 47  1  0
  9 17  1  0
  9 31  1  0
  9 10  1  1
 10 11  1  0
 10 12  2  0
 12 13  1  0
 12 15  1  0
 13 14  2  0
 13 48  1  0
 15 16  1  0
 15 17  2  0
 16 49  1  0
 16 50  1  0
 16 51  1  0
 17 18  1  0
 18 19  1  0
 19 26  1  0
 19 36  1  0
 19 20  1  6
 20 21  2  0
 20 22  1  0
 22 23  1  0
 23 36  1  0
 23 24  1  0
 23 52  1  6
 24 25  1  0
 24 34  1  0
 24 53  1  6
 25 26  1  0
 25 54  1  0
 25 55  1  0
 26 27  1  0
 26 56  1  1
 27 28  1  6
 27 29  1  0
 28 57  1  0
 29 30  1  0
 29 58  1  0
 29 59  1  0
 30 31  1  0
 30 60  1  0
 30 61  1  0
 31 32  1  1
 32 33  1  0
 33 62  1  0
 33 63  1  0
 33 64  1  0
 34 35  1  0
 35 36  1  0
 35 65  1  0
 35 66  1  0
 36 67  1  6
M  CHG  1  11  -1
M  END
>  <i_m_ct_stereo_status>  (100) 
1

>  <s_m_source_file>  (100) 
/var/tmp/pbs.5076255.sched01/tmpy176o0g7/39stoh4b52.sdf

>  <i_m_source_file_index>  (100) 
6

>  <i_lp_mmshare_version>  (100) 
48012

>  <i_f3d_flags>  (100) 
0

>  <s_epik_input>  (100) 
W0NIM11PQyg9W0NIMl0pW0NAQEhdKFtDQEBdMShbQ0gyXVtDSDJdMilPW0NIM10pW0NASF0oW0NIMl1bQ0gyXTMpW0NAXTIoW09IXSlbQ0BIXShbQ0gyXVtDQEhdNFtDSF0oT0M1PU8pW0NASF02W0NIMl1PNClbQ0BdNTZPQyhbQ0BAXTEzNyk9QyhbQ0gzXSlbQ0BASF0oQzc9TylbQ0hdPU8=

>  <s_epik_cmdline>  (100) 
J2VwaWtfcHl0aG9uJywgJy1waHQnLCAnMi4wJywgJy1waCcsICc3LjAnLCAnLXRuJywgJzgnLCAnLW1hJywgJzIwMCcsICctaW1hZScsICc8aW5maWxlLm1hZT4nLCAnLW9tYWUnLCAnPG91dGZpbGUubWFlPic=

>  <r_epik_Ionization_Penalty>  (100) 
0.173477

>  <r_epik_Ionization_Penalty_Charging>  (100) 
3.87592e-05

>  <r_epik_Ionization_Penalty_Neutral>  (100) 
0.173439

>  <r_epik_State_Penalty>  (100) 
0.0390415

>  <r_epik_Charging_Adjusted_Penalty>  (100) 
0.0390803

>  <i_epik_Tot_Q>  (100) 
-1

>  <i_epik_Tot_abs_Q>  (100) 
1

>  <s_epik_Chemistry_Notes>  (100) 
This compound has an ester and may undergo hydrolysis at high or low pH.

>  <s_lp_Force_Field>  (100) 
OPLS3e

>  <r_lp_Energy>  (100) 
115.329

>  <b_lp_Chiralities_Consistent>  (100) 
1

>  <s_lp_Variant>  (100) 
37:0-1

>  <s_i_glide_gridfile>  (100) 
pfpi4k_grid

>  <i_i_glide_lignum>  (100) 
6

>  <i_i_glide_rotatable_bonds>  (100) 
5

>  <r_i_docking_score>  (100) 
-1.96185

>  <r_i_glide_ligand_efficiency>  (100) 
-0.0544959

>  <r_i_glide_ligand_efficiency_sa>  (100) 
-0.179942

>  <r_i_glide_ligand_efficiency_ln>  (100) 
-0.428023

>  <r_i_glide_gscore>  (100) 
-1.96185

>  <r_i_glide_lipo>  (100) 
-0.625085

>  <r_i_glide_hbond>  (100) 
-0.164076

>  <r_i_glide_metal>  (100) 
-0

>  <r_i_glide_rewards>  (100) 
-0.175209

>  <r_i_glide_evdw>  (100) 
-20.4143

>  <r_i_glide_ecoul>  (100) 
-0.882626

>  <r_i_glide_erotb>  (100) 
0.163615

>  <r_i_glide_esite>  (100) 
-0.00799162

>  <r_i_glide_emodel>  (100) 
-24.0094

>  <r_i_glide_energy>  (100) 
-21.2969

>  <r_i_glide_einternal>  (100) 
2.69889

>  <r_i_glide_intrahb_reward>  (100) 
-0

>  <i_i_glide_confnum>  (100) 
3

>  <i_i_glide_posenum>  (100) 
15

>  <r_i_glide_eff_state_penalty>  (100) 
0

>  <ligand_id>  (100) 
37

>  <original_smiles>  (100) 
C=C(OC)C1C2CCC34C(=O)C(C=O)C(C)=C3OC35C(=O)OC6C(CC3C2(O)CCC14OC)OCC65

>  <smiles>  (100) 
[H]OC12C([H])([H])C([H])([H])C3(OC([H])([H])[H])C([H])(C(OC([H])([H])[H])=C([H])[H])C1([H])C([H])([H])C([H])([H])C31C([O-])=C(C([H])=O)C(C([H])([H])[H])=C1OC13C(=O)OC4([H])C([H])(OC([H])([H])C41[H])C([H])([H])C32[H]

$$$$
37:0:2
     RDKit          3D

 67 73  0  0  1  0  0  0  0  0999 V2000
    3.6852   -4.1672    0.0640 C   0  0  0  0  0  0  0  0  0  0  0  0
    3.4485   -4.1368    1.3921 C   0  0  0  0  0  0  0  0  0  0  0  0
    2.8823   -3.0672    2.0437 O   0  0  0  0  0  0  0  0  0  0  0  0
    2.8157   -1.8166    1.3807 C   0  0  0  0  0  0  0  0  0  0  0  0
    3.8268   -5.2871    2.3369 C   0  0  2  0  0  0  0  0  0  0  0  0
    3.1990   -6.6578    1.9525 C   0  0  2  0  0  0  0  0  0  0  0  0
    1.6675   -6.5461    1.9892 C   0  0  0  0  0  0  0  0  0  0  0  0
    1.1495   -5.5574    3.0424 C   0  0  0  0  0  0  0  0  0  0  0  0
    2.0459   -5.3462    4.2893 C   0  0  1  0  0  0  0  0  0  0  0  0
    1.3478   -4.2086    5.1097 C   0  0  0  0  0  0  0  0  0  0  0  0
    1.3007   -3.1004    4.5205 O   0  0  0  0  0  0  0  0  0  0  0  0
    0.7839   -4.6648    6.2834 C   0  0  0  0  0  0  0  0  0  0  0  0
    0.0039   -3.8686    7.2506 C   0  0  0  0  0  0  0  0  0  0  0  0
   -0.5677   -4.2870    8.2501 O   0  0  0  0  0  0  0  0  0  0  0  0
    1.0939   -6.0724    6.4045 C   0  0  0  0  0  0  0  0  0  0  0  0
    0.8585   -6.9325    7.6355 C   0  0  0  0  0  0  0  0  0  0  0  0
    1.7591   -6.4643    5.3152 C   0  0  0  0  0  0  0  0  0  0  0  0
    2.5377   -7.5952    5.3569 O   0  0  0  0  0  0  0  0  0  0  0  0
    2.1126   -8.7819    4.6951 C   0  0  2  0  0  0  0  0  0  0  0  0
    2.5460   -9.9469    5.5929 C   0  0  0  0  0  0  0  0  0  0  0  0
    3.4233   -9.8785    6.4455 O   0  0  0  0  0  0  0  0  0  0  0  0
    1.8689  -11.0198    5.2017 O   0  0  0  0  0  0  0  0  0  0  0  0
    0.7342  -10.6609    4.4327 C   0  0  2  0  0  0  0  0  0  0  0  0
    0.8892  -10.6022    2.9003 C   0  0  2  0  0  0  0  0  0  0  0  0
    2.2022   -9.9707    2.3567 C   0  0  0  0  0  0  0  0  0  0  0  0
    2.9209   -9.0189    3.3557 C   0  0  1  0  0  0  0  0  0  0  0  0
    3.8232   -7.8587    2.7725 C   0  0  1  0  0  0  0  0  0  0  0  0
    4.6229   -8.5266    1.8010 O   0  0  0  0  0  0  0  0  0  0  0  0
    4.8927   -7.3826    3.8105 C   0  0  0  0  0  0  0  0  0  0  0  0
    4.6300   -6.0424    4.5481 C   0  0  0  0  0  0  0  0  0  0  0  0
    3.5951   -5.0874    3.8786 C   0  0  1  0  0  0  0  0  0  0  0  0
    3.9442   -3.7731    4.3519 O   0  0  0  0  0  0  0  0  0  0  0  0
    5.1824   -3.1455    4.0302 C   0  0  0  0  0  0  0  0  0  0  0  0
   -0.1155   -9.6692    2.5220 O   0  0  0  0  0  0  0  0  0  0  0  0
   -0.3971   -8.8207    3.6260 C   0  0  0  0  0  0  0  0  0  0  0  0
    0.6026   -9.1885    4.7170 C   0  0  2  0  0  0  0  0  0  0  0  0
    3.4321   -3.3570   -0.6053 H   0  0  0  0  0  0  0  0  0  0  0  0
    4.1520   -5.0297   -0.3901 H   0  0  0  0  0  0  0  0  0  0  0  0
    2.3407   -1.0999    2.0489 H   0  0  0  0  0  0  0  0  0  0  0  0
    2.2265   -1.8642    0.4798 H   0  0  0  0  0  0  0  0  0  0  0  0
    3.8121   -1.4373    1.1477 H   0  0  0  0  0  0  0  0  0  0  0  0
    4.8984   -5.3569    2.1604 H   0  0  0  0  0  0  0  0  0  0  0  0
    3.4268   -6.8368    0.9002 H   0  0  0  0  0  0  0  0  0  0  0  0
    1.3069   -6.2080    1.0139 H   0  0  0  0  0  0  0  0  0  0  0  0
    1.2257   -7.5207    2.1069 H   0  0  0  0  0  0  0  0  0  0  0  0
    1.0359   -4.6056    2.5343 H   0  0  0  0  0  0  0  0  0  0  0  0
    0.1380   -5.7926    3.3569 H   0  0  0  0  0  0  0  0  0  0  0  0
   -0.0407   -2.8124    6.9808 H   0  0  0  0  0  0  0  0  0  0  0  0
    1.0363   -6.3706    8.5517 H   0  0  0  0  0  0  0  0  0  0  0  0
    1.5132   -7.8044    7.6549 H   0  0  0  0  0  0  0  0  0  0  0  0
   -0.1728   -7.2849    7.6450 H   0  0  0  0  0  0  0  0  0  0  0  0
   -0.1608  -11.2169    4.7147 H   0  0  0  0  0  0  0  0  0  0  0  0
    0.6956  -11.5912    2.4843 H   0  0  0  0  0  0  0  0  0  0  0  0
    2.8922  -10.7713    2.0926 H   0  0  0  0  0  0  0  0  0  0  0  0
    2.0099   -9.4780    1.4004 H   0  0  0  0  0  0  0  0  0  0  0  0
    3.7374   -9.6894    3.6474 H   0  0  0  0  0  0  0  0  0  0  0  0
    4.8450   -9.3899    2.1153 H   0  0  0  0  0  0  0  0  0  0  0  0
    5.1050   -8.1621    4.5422 H   0  0  0  0  0  0  0  0  0  0  0  0
    5.8490   -7.2538    3.2978 H   0  0  0  0  0  0  0  0  0  0  0  0
    4.4061   -6.1929    5.5989 H   0  0  0  0  0  0  0  0  0  0  0  0
    5.6093   -5.5707    4.5915 H   0  0  0  0  0  0  0  0  0  0  0  0
    5.0907   -2.0758    4.2209 H   0  0  0  0  0  0  0  0  0  0  0  0
    5.4824   -3.2545    2.9882 H   0  0  0  0  0  0  0  0  0  0  0  0
    5.9793   -3.5007    4.6801 H   0  0  0  0  0  0  0  0  0  0  0  0
   -0.4498   -7.7734    3.3795 H   0  0  0  0  0  0  0  0  0  0  0  0
   -1.3946   -9.0763    3.9746 H   0  0  0  0  0  0  0  0  0  0  0  0
    0.1696   -9.0009    5.7025 H   0  0  0  0  0  0  0  0  0  0  0  0
  1  2  2  0
  1 37  1  0
  1 38  1  0
  2  3  1  0
  2  5  1  0
  3  4  1  0
  4 39  1  0
  4 40  1  0
  4 41  1  0
  5 31  1  0
  5  6  1  0
  5 42  1  1
  6 27  1  0
  6  7  1  0
  6 43  1  6
  7  8  1  0
  7 44  1  0
  7 45  1  0
  8  9  1  0
  8 46  1  0
  8 47  1  0
  9 17  1  0
  9 31  1  0
  9 10  1  1
 10 11  1  0
 10 12  2  0
 12 13  1  0
 12 15  1  0
 13 14  2  0
 13 48  1  0
 15 16  1  0
 15 17  2  0
 16 49  1  0
 16 50  1  0
 16 51  1  0
 17 18  1  0
 18 19  1  0
 19 26  1  0
 19 36  1  0
 19 20  1  1
 20 21  2  0
 20 22  1  0
 22 23  1  0
 23 36  1  0
 23 24  1  0
 23 52  1  6
 24 25  1  0
 24 34  1  0
 24 53  1  6
 25 26  1  0
 25 54  1  0
 25 55  1  0
 26 27  1  0
 26 56  1  1
 27 28  1  6
 27 29  1  0
 28 57  1  0
 29 30  1  0
 29 58  1  0
 29 59  1  0
 30 31  1  0
 30 60  1  0
 30 61  1  0
 31 32  1  1
 32 33  1  0
 33 62  1  0
 33 63  1  0
 33 64  1  0
 34 35  1  0
 35 36  1  0
 35 65  1  0
 35 66  1  0
 36 67  1  1
M  CHG  1  11  -1
M  END
>  <i_m_ct_stereo_status>  (101) 
1

>  <s_m_source_file>  (101) 
/var/tmp/pbs.5076255.sched01/tmpy176o0g7/39stoh4b52.sdf

>  <i_m_source_file_index>  (101) 
6

>  <i_lp_mmshare_version>  (101) 
48012

>  <i_f3d_flags>  (101) 
0

>  <s_epik_input>  (101) 
W0NIM11PQyg9W0NIMl0pW0NAQEhdKFtDQEBdMShbQ0gyXVtDSDJdMilPW0NIM10pW0NASF0oW0NIMl1bQ0gyXTMpW0NAXTIoW09IXSlbQ0BIXShbQ0gyXVtDQEhdNFtDSF0oT0M1PU8pW0NASF02W0NIMl1PNClbQ0BdNTZPQyhbQ0BAXTEzNyk9QyhbQ0gzXSlbQ0BASF0oQzc9TylbQ0hdPU8=

>  <s_epik_cmdline>  (101) 
J2VwaWtfcHl0aG9uJywgJy1waHQnLCAnMi4wJywgJy1waCcsICc3LjAnLCAnLXRuJywgJzgnLCAnLW1hJywgJzIwMCcsICctaW1hZScsICc8aW5maWxlLm1hZT4nLCAnLW9tYWUnLCAnPG91dGZpbGUubWFlPic=

>  <r_epik_Ionization_Penalty>  (101) 
0.173477

>  <r_epik_Ionization_Penalty_Charging>  (101) 
3.87592e-05

>  <r_epik_Ionization_Penalty_Neutral>  (101) 
0.173439

>  <r_epik_State_Penalty>  (101) 
0.0390415

>  <r_epik_Charging_Adjusted_Penalty>  (101) 
0.0390803

>  <i_epik_Tot_Q>  (101) 
-1

>  <i_epik_Tot_abs_Q>  (101) 
1

>  <s_epik_Chemistry_Notes>  (101) 
This compound has an ester and may undergo hydrolysis at high or low pH.

>  <s_lp_Force_Field>  (101) 
OPLS3e

>  <r_lp_Energy>  (101) 
115.329

>  <b_lp_Chiralities_Consistent>  (101) 
1

>  <s_lp_Variant>  (101) 
37:0-1

>  <s_i_glide_gridfile>  (101) 
pfpi4k_grid

>  <i_i_glide_lignum>  (101) 
6

>  <i_i_glide_rotatable_bonds>  (101) 
5

>  <r_i_docking_score>  (101) 
-1.35486

>  <r_i_glide_ligand_efficiency>  (101) 
-0.037635

>  <r_i_glide_ligand_efficiency_sa>  (101) 
-0.124268

>  <r_i_glide_ligand_efficiency_ln>  (101) 
-0.295594

>  <r_i_glide_gscore>  (101) 
-1.35486

>  <r_i_glide_lipo>  (101) 
-0.269721

>  <r_i_glide_hbond>  (101) 
0

>  <r_i_glide_metal>  (101) 
-0

>  <r_i_glide_rewards>  (101) 
-0.003207

>  <r_i_glide_evdw>  (101) 
-22.709

>  <r_i_glide_ecoul>  (101) 
-0.305479

>  <r_i_glide_erotb>  (101) 
0.163615

>  <r_i_glide_esite>  (101) 
-0.0642759

>  <r_i_glide_emodel>  (101) 
-25.0258

>  <r_i_glide_energy>  (101) 
-23.0144

>  <r_i_glide_einternal>  (101) 
1.4364

>  <r_i_glide_intrahb_reward>  (101) 
-0

>  <i_i_glide_confnum>  (101) 
2

>  <i_i_glide_posenum>  (101) 
8

>  <r_i_glide_eff_state_penalty>  (101) 
0

>  <ligand_id>  (101) 
37

>  <original_smiles>  (101) 
C=C(OC)C1C2CCC34C(=O)C(C=O)C(C)=C3OC35C(=O)OC6C(CC3C2(O)CCC14OC)OCC65

>  <smiles>  (101) 
[H]OC12C([H])([H])C([H])([H])C3(OC([H])([H])[H])C([H])(C(OC([H])([H])[H])=C([H])[H])C1([H])C([H])([H])C([H])([H])C31C([O-])=C(C([H])=O)C(C([H])([H])[H])=C1OC13C(=O)OC4([H])C([H])(OC([H])([H])C41[H])C([H])([H])C32[H]

$$$$
38:0:0
     RDKit          3D

 15 16  0  0  1  0  0  0  0  0999 V2000
    3.1642   -0.6574   -3.4981 C   0  0  0  0  0  0  0  0  0  0  0  0
    2.6168   -1.9212   -3.7815 C   0  0  0  0  0  0  0  0  0  0  0  0
    3.2339   -3.0869   -3.3086 C   0  0  0  0  0  0  0  0  0  0  0  0
    4.4044   -2.9807   -2.5429 C   0  0  0  0  0  0  0  0  0  0  0  0
    5.2440   -3.8915   -1.9355 N   0  0  0  0  0  0  0  0  0  0  0  0
    6.2259   -3.1785   -1.3586 C   0  0  0  0  0  0  0  0  0  0  0  0
    6.1555   -1.8572   -1.4967 N   0  0  0  0  0  0  0  0  0  0  0  0
    4.9852   -1.7166   -2.2374 C   0  0  0  0  0  0  0  0  0  0  0  0
    4.3375   -0.5612   -2.7248 C   0  0  0  0  0  0  0  0  0  0  0  0
    5.1565   -4.9014   -1.9326 H   0  0  0  0  0  0  0  0  0  0  0  0
    2.6617    0.2364   -3.8388 H   0  0  0  0  0  0  0  0  0  0  0  0
    1.6863   -2.0028   -4.3231 H   0  0  0  0  0  0  0  0  0  0  0  0
    2.7900   -4.0488   -3.5162 H   0  0  0  0  0  0  0  0  0  0  0  0
    7.0374   -3.6440   -0.8155 H   0  0  0  0  0  0  0  0  0  0  0  0
    4.7359    0.4138   -2.5076 H   0  0  0  0  0  0  0  0  0  0  0  0
  1  9  2  0
  1  2  1  0
  1 11  1  0
  2  3  2  0
  2 12  1  0
  3  4  1  0
  3 13  1  0
  4  8  2  0
  4  5  1  0
  5 10  1  0
  5  6  1  0
  6  7  2  0
  6 14  1  0
  7  8  1  0
  8  9  1  0
  9 15  1  0
M  END
>  <i_m_ct_stereo_status>  (102) 
1

>  <s_m_source_file>  (102) 
/var/tmp/pbs.5076255.sched01/tmpy176o0g7/39stoh4b52.sdf

>  <i_m_source_file_index>  (102) 
8

>  <i_lp_mmshare_version>  (102) 
48012

>  <i_f3d_flags>  (102) 
0

>  <s_epik_input>  (102) 
W2NIXTFbY0hdW2NIXVtjSF1jKGMxMiluW2NIXVtuSF0y

>  <s_epik_cmdline>  (102) 
J2VwaWtfcHl0aG9uJywgJy1waHQnLCAnMi4wJywgJy1waCcsICc3LjAnLCAnLXRuJywgJzgnLCAnLW1hJywgJzIwMCcsICctaW1hZScsICc8aW5maWxlLm1hZT4nLCAnLW9tYWUnLCAnPG91dGZpbGUubWFlPic=

>  <r_epik_Ionization_Penalty>  (102) 
0.0267202

>  <r_epik_Ionization_Penalty_Charging>  (102) 
0

>  <r_epik_Ionization_Penalty_Neutral>  (102) 
0.0267202

>  <r_epik_State_Penalty>  (102) 
0.0218274

>  <r_epik_Charging_Adjusted_Penalty>  (102) 
0.0218274

>  <i_epik_Tot_Q>  (102) 
0

>  <i_epik_Tot_abs_Q>  (102) 
0

>  <s_lp_Force_Field>  (102) 
OPLS3e

>  <r_lp_Energy>  (102) 
11.737

>  <b_lp_Chiralities_Consistent>  (102) 
1

>  <s_lp_Variant>  (102) 
38:0-1

>  <s_i_glide_gridfile>  (102) 
pfpi4k_grid

>  <i_i_glide_lignum>  (102) 
8

>  <i_i_glide_rotatable_bonds>  (102) 
0

>  <r_i_docking_score>  (102) 
-4.60586

>  <r_i_glide_ligand_efficiency>  (102) 
-0.511762

>  <r_i_glide_ligand_efficiency_sa>  (102) 
-1.06451

>  <r_i_glide_ligand_efficiency_ln>  (102) 
-1.44058

>  <r_i_glide_gscore>  (102) 
-4.60586

>  <r_i_glide_lipo>  (102) 
-0.594262

>  <r_i_glide_hbond>  (102) 
-0.140174

>  <r_i_glide_metal>  (102) 
-0

>  <r_i_glide_rewards>  (102) 
-2.38483

>  <r_i_glide_evdw>  (102) 
-13.4129

>  <r_i_glide_ecoul>  (102) 
-5.43966

>  <r_i_glide_erotb>  (102) 
0

>  <r_i_glide_esite>  (102) 
0

>  <r_i_glide_emodel>  (102) 
-24.5211

>  <r_i_glide_energy>  (102) 
-18.8526

>  <r_i_glide_einternal>  (102) 
0

>  <r_i_glide_intrahb_reward>  (102) 
-0

>  <i_i_glide_confnum>  (102) 
2

>  <i_i_glide_posenum>  (102) 
28

>  <r_i_glide_eff_state_penalty>  (102) 
0

>  <ligand_id>  (102) 
38

>  <original_smiles>  (102) 
c1ccc2[nH]cnc2c1

>  <smiles>  (102) 
[H]c1c([H])c([H])c2c(nc([H])n2[H])c1[H]

$$$$
38:0:1
     RDKit          3D

 15 16  0  0  1  0  0  0  0  0999 V2000
    3.8773   -0.4351   -3.3712 C   0  0  0  0  0  0  0  0  0  0  0  0
    3.0684   -1.4212   -3.9597 C   0  0  0  0  0  0  0  0  0  0  0  0
    2.8300   -2.6354   -3.2888 C   0  0  0  0  0  0  0  0  0  0  0  0
    3.3904   -2.8323   -2.0154 C   0  0  0  0  0  0  0  0  0  0  0  0
    3.3454   -3.8556   -1.0903 N   0  0  0  0  0  0  0  0  0  0  0  0
    4.1148   -3.4749   -0.0571 C   0  0  0  0  0  0  0  0  0  0  0  0
    4.6853   -2.2761   -0.1570 N   0  0  0  0  0  0  0  0  0  0  0  0
    4.2238   -1.8552   -1.3980 C   0  0  0  0  0  0  0  0  0  0  0  0
    4.4589   -0.6604   -2.1082 C   0  0  0  0  0  0  0  0  0  0  0  0
    2.9239   -4.7694   -1.2271 H   0  0  0  0  0  0  0  0  0  0  0  0
    4.0394    0.5076   -3.8749 H   0  0  0  0  0  0  0  0  0  0  0  0
    2.6164   -1.2144   -4.9176 H   0  0  0  0  0  0  0  0  0  0  0  0
    2.1991   -3.3953   -3.7319 H   0  0  0  0  0  0  0  0  0  0  0  0
    4.2845   -4.1101    0.8004 H   0  0  0  0  0  0  0  0  0  0  0  0
    5.0505    0.1072   -1.6468 H   0  0  0  0  0  0  0  0  0  0  0  0
  1  9  2  0
  1  2  1  0
  1 11  1  0
  2  3  2  0
  2 12  1  0
  3  4  1  0
  3 13  1  0
  4  8  2  0
  4  5  1  0
  5 10  1  0
  5  6  1  0
  6  7  2  0
  6 14  1  0
  7  8  1  0
  8  9  1  0
  9 15  1  0
M  END
>  <i_m_ct_stereo_status>  (103) 
1

>  <s_m_source_file>  (103) 
/var/tmp/pbs.5076255.sched01/tmpy176o0g7/39stoh4b52.sdf

>  <i_m_source_file_index>  (103) 
8

>  <i_lp_mmshare_version>  (103) 
48012

>  <i_f3d_flags>  (103) 
0

>  <s_epik_input>  (103) 
W2NIXTFbY0hdW2NIXVtjSF1jKGMxMiluW2NIXVtuSF0y

>  <s_epik_cmdline>  (103) 
J2VwaWtfcHl0aG9uJywgJy1waHQnLCAnMi4wJywgJy1waCcsICc3LjAnLCAnLXRuJywgJzgnLCAnLW1hJywgJzIwMCcsICctaW1hZScsICc8aW5maWxlLm1hZT4nLCAnLW9tYWUnLCAnPG91dGZpbGUubWFlPic=

>  <r_epik_Ionization_Penalty>  (103) 
0.0267202

>  <r_epik_Ionization_Penalty_Charging>  (103) 
0

>  <r_epik_Ionization_Penalty_Neutral>  (103) 
0.0267202

>  <r_epik_State_Penalty>  (103) 
0.0218274

>  <r_epik_Charging_Adjusted_Penalty>  (103) 
0.0218274

>  <i_epik_Tot_Q>  (103) 
0

>  <i_epik_Tot_abs_Q>  (103) 
0

>  <s_lp_Force_Field>  (103) 
OPLS3e

>  <r_lp_Energy>  (103) 
11.737

>  <b_lp_Chiralities_Consistent>  (103) 
1

>  <s_lp_Variant>  (103) 
38:0-1

>  <s_i_glide_gridfile>  (103) 
pfpi4k_grid

>  <i_i_glide_lignum>  (103) 
8

>  <i_i_glide_rotatable_bonds>  (103) 
0

>  <r_i_docking_score>  (103) 
-4.32041

>  <r_i_glide_ligand_efficiency>  (103) 
-0.480045

>  <r_i_glide_ligand_efficiency_sa>  (103) 
-0.998534

>  <r_i_glide_ligand_efficiency_ln>  (103) 
-1.3513

>  <r_i_glide_gscore>  (103) 
-4.32041

>  <r_i_glide_lipo>  (103) 
-0.444807

>  <r_i_glide_hbond>  (103) 
-0.232369

>  <r_i_glide_metal>  (103) 
-0

>  <r_i_glide_rewards>  (103) 
-2.28544

>  <r_i_glide_evdw>  (103) 
-12.2344

>  <r_i_glide_ecoul>  (103) 
-4.92123

>  <r_i_glide_erotb>  (103) 
0

>  <r_i_glide_esite>  (103) 
-0.00788516

>  <r_i_glide_emodel>  (103) 
-22.4682

>  <r_i_glide_energy>  (103) 
-17.1557

>  <r_i_glide_einternal>  (103) 
0

>  <r_i_glide_intrahb_reward>  (103) 
-0

>  <i_i_glide_confnum>  (103) 
2

>  <i_i_glide_posenum>  (103) 
33

>  <r_i_glide_eff_state_penalty>  (103) 
0

>  <ligand_id>  (103) 
38

>  <original_smiles>  (103) 
c1ccc2[nH]cnc2c1

>  <smiles>  (103) 
[H]c1c([H])c([H])c2c(nc([H])n2[H])c1[H]

$$$$
38:0:2
     RDKit          3D

 15 16  0  0  1  0  0  0  0  0999 V2000
    5.0361   -0.9911   -0.4642 C   0  0  0  0  0  0  0  0  0  0  0  0
    4.5652   -2.1325    0.2166 C   0  0  0  0  0  0  0  0  0  0  0  0
    3.7205   -3.0431   -0.4511 C   0  0  0  0  0  0  0  0  0  0  0  0
    3.3505   -2.7932   -1.7882 C   0  0  0  0  0  0  0  0  0  0  0  0
    2.5577   -3.4479   -2.7073 N   0  0  0  0  0  0  0  0  0  0  0  0
    2.6111   -2.7279   -3.8325 C   0  0  0  0  0  0  0  0  0  0  0  0
    3.3665   -1.6310   -3.8146 N   0  0  0  0  0  0  0  0  0  0  0  0
    3.8253   -1.6467   -2.5020 C   0  0  0  0  0  0  0  0  0  0  0  0
    4.6711   -0.7522   -1.8105 C   0  0  0  0  0  0  0  0  0  0  0  0
    2.0995   -4.3520   -2.6180 H   0  0  0  0  0  0  0  0  0  0  0  0
    5.6640   -0.2807    0.0514 H   0  0  0  0  0  0  0  0  0  0  0  0
    4.8403   -2.2987    1.2503 H   0  0  0  0  0  0  0  0  0  0  0  0
    3.3536   -3.9212    0.0595 H   0  0  0  0  0  0  0  0  0  0  0  0
    2.0878   -3.0424   -4.7193 H   0  0  0  0  0  0  0  0  0  0  0  0
    5.0116    0.1358   -2.3215 H   0  0  0  0  0  0  0  0  0  0  0  0
  1  9  2  0
  1  2  1  0
  1 11  1  0
  2  3  2  0
  2 12  1  0
  3  4  1  0
  3 13  1  0
  4  8  2  0
  4  5  1  0
  5 10  1  0
  5  6  1  0
  6  7  2  0
  6 14  1  0
  7  8  1  0
  8  9  1  0
  9 15  1  0
M  END
>  <i_m_ct_stereo_status>  (104) 
1

>  <s_m_source_file>  (104) 
/var/tmp/pbs.5076255.sched01/tmpy176o0g7/39stoh4b52.sdf

>  <i_m_source_file_index>  (104) 
8

>  <i_lp_mmshare_version>  (104) 
48012

>  <i_f3d_flags>  (104) 
0

>  <s_epik_input>  (104) 
W2NIXTFbY0hdW2NIXVtjSF1jKGMxMiluW2NIXVtuSF0y

>  <s_epik_cmdline>  (104) 
J2VwaWtfcHl0aG9uJywgJy1waHQnLCAnMi4wJywgJy1waCcsICc3LjAnLCAnLXRuJywgJzgnLCAnLW1hJywgJzIwMCcsICctaW1hZScsICc8aW5maWxlLm1hZT4nLCAnLW9tYWUnLCAnPG91dGZpbGUubWFlPic=

>  <r_epik_Ionization_Penalty>  (104) 
0.0267202

>  <r_epik_Ionization_Penalty_Charging>  (104) 
0

>  <r_epik_Ionization_Penalty_Neutral>  (104) 
0.0267202

>  <r_epik_State_Penalty>  (104) 
0.0218274

>  <r_epik_Charging_Adjusted_Penalty>  (104) 
0.0218274

>  <i_epik_Tot_Q>  (104) 
0

>  <i_epik_Tot_abs_Q>  (104) 
0

>  <s_lp_Force_Field>  (104) 
OPLS3e

>  <r_lp_Energy>  (104) 
11.737

>  <b_lp_Chiralities_Consistent>  (104) 
1

>  <s_lp_Variant>  (104) 
38:0-1

>  <s_i_glide_gridfile>  (104) 
pfpi4k_grid

>  <i_i_glide_lignum>  (104) 
8

>  <i_i_glide_rotatable_bonds>  (104) 
0

>  <r_i_docking_score>  (104) 
-4.19345

>  <r_i_glide_ligand_efficiency>  (104) 
-0.465939

>  <r_i_glide_ligand_efficiency_sa>  (104) 
-0.969191

>  <r_i_glide_ligand_efficiency_ln>  (104) 
-1.31159

>  <r_i_glide_gscore>  (104) 
-4.19345

>  <r_i_glide_lipo>  (104) 
0

>  <r_i_glide_hbond>  (104) 
-0.178449

>  <r_i_glide_metal>  (104) 
-0

>  <r_i_glide_rewards>  (104) 
-2.4964

>  <r_i_glide_evdw>  (104) 
-14.0005

>  <r_i_glide_ecoul>  (104) 
-5.45716

>  <r_i_glide_erotb>  (104) 
0

>  <r_i_glide_esite>  (104) 
0

>  <r_i_glide_emodel>  (104) 
-24.6181

>  <r_i_glide_energy>  (104) 
-19.4576

>  <r_i_glide_einternal>  (104) 
0

>  <r_i_glide_intrahb_reward>  (104) 
-0

>  <i_i_glide_confnum>  (104) 
2

>  <i_i_glide_posenum>  (104) 
13

>  <r_i_glide_eff_state_penalty>  (104) 
0

>  <ligand_id>  (104) 
38

>  <original_smiles>  (104) 
c1ccc2[nH]cnc2c1

>  <smiles>  (104) 
[H]c1c([H])c([H])c2c(nc([H])n2[H])c1[H]

$$$$
38:1:0
     RDKit          3D

 16 17  0  0  1  0  0  0  0  0999 V2000
   -1.3966    2.2567    3.3195 C   0  0  0  0  0  0  0  0  0  0  0  0
   -0.5312    2.9425    4.1994 C   0  0  0  0  0  0  0  0  0  0  0  0
    0.8711    2.8035    4.0998 C   0  0  0  0  0  0  0  0  0  0  0  0
    1.3451    1.9617    3.0980 C   0  0  0  0  0  0  0  0  0  0  0  0
    2.6426    1.6073    2.7352 N   0  0  0  0  0  0  0  0  0  0  0  0
    2.6036    0.7378    1.6869 C   0  0  0  0  0  0  0  0  0  0  0  0
    1.2999    0.5447    1.3469 N   0  0  0  0  0  0  0  0  0  0  0  0
    0.4824    1.2779    2.2170 C   0  0  0  0  0  0  0  0  0  0  0  0
   -0.8971    1.4067    2.3114 C   0  0  0  0  0  0  0  0  0  0  0  0
    3.4989    1.9595    3.1436 H   0  0  0  0  0  0  0  0  0  0  0  0
   -2.4690    2.3912    3.4022 H   0  0  0  0  0  0  0  0  0  0  0  0
   -0.9505    3.5896    4.9587 H   0  0  0  0  0  0  0  0  0  0  0  0
    1.5364    3.3305    4.7702 H   0  0  0  0  0  0  0  0  0  0  0  0
    3.4588    0.3060    1.1854 H   0  0  0  0  0  0  0  0  0  0  0  0
   -1.5714    0.9196    1.6276 H   0  0  0  0  0  0  0  0  0  0  0  0
    1.0024   -0.0447    0.5526 H   0  0  0  0  0  0  0  0  0  0  0  0
  1  9  2  0
  1  2  1  0
  1 11  1  0
  2  3  2  0
  2 12  1  0
  3  4  1  0
  3 13  1  0
  4  8  2  0
  4  5  1  0
  5 10  1  0
  5  6  1  0
  6  7  2  0
  6 14  1  0
  7  8  1  0
  7 16  1  0
  8  9  1  0
  9 15  1  0
M  CHG  1   7   1
M  END
>  <i_m_ct_stereo_status>  (105) 
1

>  <s_m_source_file>  (105) 
/var/tmp/pbs.5076255.sched01/tmpy176o0g7/39stoh4b52.sdf

>  <i_m_source_file_index>  (105) 
9

>  <i_lp_mmshare_version>  (105) 
48012

>  <i_f3d_flags>  (105) 
0

>  <s_epik_input>  (105) 
W2NIXTFbY0hdW2NIXVtjSF1jKGMxMiluW2NIXVtuSF0y

>  <s_epik_cmdline>  (105) 
J2VwaWtfcHl0aG9uJywgJy1waHQnLCAnMi4wJywgJy1waCcsICc3LjAnLCAnLXRuJywgJzgnLCAnLW1hJywgJzIwMCcsICctaW1hZScsICc8aW5maWxlLm1hZT4nLCAnLW9tYWUnLCAnPG91dGZpbGUubWFlPic=

>  <r_epik_Ionization_Penalty>  (105) 
1.8494

>  <r_epik_Ionization_Penalty_Charging>  (105) 
1.8494

>  <r_epik_Ionization_Penalty_Neutral>  (105) 
0

>  <r_epik_State_Penalty>  (105) 
1.96677

>  <r_epik_Charging_Adjusted_Penalty>  (105) 
3.81617

>  <i_epik_Tot_Q>  (105) 
1

>  <i_epik_Tot_abs_Q>  (105) 
1

>  <s_lp_Force_Field>  (105) 
OPLS3e

>  <r_lp_Energy>  (105) 
17.7204

>  <b_lp_Chiralities_Consistent>  (105) 
1

>  <s_lp_Variant>  (105) 
38:0-2

>  <s_i_glide_gridfile>  (105) 
pfpi4k_grid

>  <i_i_glide_lignum>  (105) 
9

>  <i_i_glide_rotatable_bonds>  (105) 
0

>  <r_i_docking_score>  (105) 
-4.04949

>  <r_i_glide_ligand_efficiency>  (105) 
-0.449944

>  <r_i_glide_ligand_efficiency_sa>  (105) 
-0.93592

>  <r_i_glide_ligand_efficiency_ln>  (105) 
-1.26656

>  <r_i_glide_gscore>  (105) 
-4.04949

>  <r_i_glide_lipo>  (105) 
0

>  <r_i_glide_hbond>  (105) 
-0.2

>  <r_i_glide_metal>  (105) 
-0

>  <r_i_glide_rewards>  (105) 
-2.26567

>  <r_i_glide_evdw>  (105) 
-9.68074

>  <r_i_glide_ecoul>  (105) 
-6.70276

>  <r_i_glide_erotb>  (105) 
0

>  <r_i_glide_esite>  (105) 
-0.0943669

>  <r_i_glide_emodel>  (105) 
-22.4984

>  <r_i_glide_energy>  (105) 
-16.3835

>  <r_i_glide_einternal>  (105) 
0

>  <r_i_glide_intrahb_reward>  (105) 
-0

>  <i_i_glide_confnum>  (105) 
1

>  <i_i_glide_posenum>  (105) 
4

>  <r_i_glide_eff_state_penalty>  (105) 
0

>  <ligand_id>  (105) 
38

>  <original_smiles>  (105) 
c1ccc2[nH]cnc2c1

>  <smiles>  (105) 
[H]c1c([H])c([H])c2c(c1[H])n([H])c([H])[n+]2[H]

$$$$
38:1:1
     RDKit          3D

 16 17  0  0  1  0  0  0  0  0999 V2000
    3.1645   -1.6428   -3.3707 C   0  0  0  0  0  0  0  0  0  0  0  0
    4.0438   -0.7140   -2.7758 C   0  0  0  0  0  0  0  0  0  0  0  0
    4.6929   -0.9954   -1.5534 C   0  0  0  0  0  0  0  0  0  0  0  0
    4.4206   -2.2164   -0.9644 C   0  0  0  0  0  0  0  0  0  0  0  0
    4.8800   -2.7938    0.2184 N   0  0  0  0  0  0  0  0  0  0  0  0
    4.3214   -4.0275    0.3610 C   0  0  0  0  0  0  0  0  0  0  0  0
    3.5185   -4.2512   -0.7182 N   0  0  0  0  0  0  0  0  0  0  0  0
    3.5438   -3.1422   -1.5568 C   0  0  0  0  0  0  0  0  0  0  0  0
    2.8987   -2.8879   -2.7623 C   0  0  0  0  0  0  0  0  0  0  0  0
    5.5316   -2.3795    0.8749 H   0  0  0  0  0  0  0  0  0  0  0  0
    2.6618   -1.3892   -4.2936 H   0  0  0  0  0  0  0  0  0  0  0  0
    4.1969    0.2438   -3.2504 H   0  0  0  0  0  0  0  0  0  0  0  0
    5.3379   -0.2790   -1.0749 H   0  0  0  0  0  0  0  0  0  0  0  0
    4.5092   -4.7190    1.1717 H   0  0  0  0  0  0  0  0  0  0  0  0
    2.2149   -3.5982   -3.2054 H   0  0  0  0  0  0  0  0  0  0  0  0
    3.0266   -5.1175   -0.9236 H   0  0  0  0  0  0  0  0  0  0  0  0
  1  9  2  0
  1  2  1  0
  1 11  1  0
  2  3  2  0
  2 12  1  0
  3  4  1  0
  3 13  1  0
  4  8  2  0
  4  5  1  0
  5 10  1  0
  5  6  1  0
  6  7  2  0
  6 14  1  0
  7  8  1  0
  7 16  1  0
  8  9  1  0
  9 15  1  0
M  CHG  1   7   1
M  END
>  <i_m_ct_stereo_status>  (106) 
1

>  <s_m_source_file>  (106) 
/var/tmp/pbs.5076255.sched01/tmpy176o0g7/39stoh4b52.sdf

>  <i_m_source_file_index>  (106) 
9

>  <i_lp_mmshare_version>  (106) 
48012

>  <i_f3d_flags>  (106) 
0

>  <s_epik_input>  (106) 
W2NIXTFbY0hdW2NIXVtjSF1jKGMxMiluW2NIXVtuSF0y

>  <s_epik_cmdline>  (106) 
J2VwaWtfcHl0aG9uJywgJy1waHQnLCAnMi4wJywgJy1waCcsICc3LjAnLCAnLXRuJywgJzgnLCAnLW1hJywgJzIwMCcsICctaW1hZScsICc8aW5maWxlLm1hZT4nLCAnLW9tYWUnLCAnPG91dGZpbGUubWFlPic=

>  <r_epik_Ionization_Penalty>  (106) 
1.8494

>  <r_epik_Ionization_Penalty_Charging>  (106) 
1.8494

>  <r_epik_Ionization_Penalty_Neutral>  (106) 
0

>  <r_epik_State_Penalty>  (106) 
1.96677

>  <r_epik_Charging_Adjusted_Penalty>  (106) 
3.81617

>  <i_epik_Tot_Q>  (106) 
1

>  <i_epik_Tot_abs_Q>  (106) 
1

>  <s_lp_Force_Field>  (106) 
OPLS3e

>  <r_lp_Energy>  (106) 
17.7204

>  <b_lp_Chiralities_Consistent>  (106) 
1

>  <s_lp_Variant>  (106) 
38:0-2

>  <s_i_glide_gridfile>  (106) 
pfpi4k_grid

>  <i_i_glide_lignum>  (106) 
9

>  <i_i_glide_rotatable_bonds>  (106) 
0

>  <r_i_docking_score>  (106) 
-3.86778

>  <r_i_glide_ligand_efficiency>  (106) 
-0.429753

>  <r_i_glide_ligand_efficiency_sa>  (106) 
-0.893922

>  <r_i_glide_ligand_efficiency_ln>  (106) 
-1.20973

>  <r_i_glide_gscore>  (106) 
-3.86778

>  <r_i_glide_lipo>  (106) 
-0.236967

>  <r_i_glide_hbond>  (106) 
0

>  <r_i_glide_metal>  (106) 
-0

>  <r_i_glide_rewards>  (106) 
-2.28985

>  <r_i_glide_evdw>  (106) 
-12.2438

>  <r_i_glide_ecoul>  (106) 
-4.61796

>  <r_i_glide_erotb>  (106) 
0

>  <r_i_glide_esite>  (106) 
-0.0360759

>  <r_i_glide_emodel>  (106) 
-22.7003

>  <r_i_glide_energy>  (106) 
-16.8618

>  <r_i_glide_einternal>  (106) 
0

>  <r_i_glide_intrahb_reward>  (106) 
-0

>  <i_i_glide_confnum>  (106) 
1

>  <i_i_glide_posenum>  (106) 
8

>  <r_i_glide_eff_state_penalty>  (106) 
0

>  <ligand_id>  (106) 
38

>  <original_smiles>  (106) 
c1ccc2[nH]cnc2c1

>  <smiles>  (106) 
[H]c1c([H])c([H])c2c(c1[H])n([H])c([H])[n+]2[H]

$$$$
38:1:2
     RDKit          3D

 16 17  0  0  1  0  0  0  0  0999 V2000
    4.0066   -1.9093   -3.5670 C   0  0  0  0  0  0  0  0  0  0  0  0
    4.2128   -0.8442   -2.6645 C   0  0  0  0  0  0  0  0  0  0  0  0
    4.5795   -1.0726   -1.3186 C   0  0  0  0  0  0  0  0  0  0  0  0
    4.7326   -2.3965   -0.9341 C   0  0  0  0  0  0  0  0  0  0  0  0
    5.0672   -2.9671    0.2927 N   0  0  0  0  0  0  0  0  0  0  0  0
    5.0858   -4.3243    0.1704 C   0  0  0  0  0  0  0  0  0  0  0  0
    4.7660   -4.6309   -1.1170 N   0  0  0  0  0  0  0  0  0  0  0  0
    4.5419   -3.4583   -1.8368 C   0  0  0  0  0  0  0  0  0  0  0  0
    4.1830   -3.2521   -3.1647 C   0  0  0  0  0  0  0  0  0  0  0  0
    5.2562   -2.4658    1.1492 H   0  0  0  0  0  0  0  0  0  0  0  0
    3.6907   -1.6849   -4.5764 H   0  0  0  0  0  0  0  0  0  0  0  0
    4.0600    0.1667   -3.0141 H   0  0  0  0  0  0  0  0  0  0  0  0
    4.6980   -0.2644   -0.6164 H   0  0  0  0  0  0  0  0  0  0  0  0
    5.3054   -5.0329    0.9586 H   0  0  0  0  0  0  0  0  0  0  0  0
    4.0118   -4.0761   -3.8488 H   0  0  0  0  0  0  0  0  0  0  0  0
    4.6538   -5.5694   -1.4907 H   0  0  0  0  0  0  0  0  0  0  0  0
  1  9  2  0
  1  2  1  0
  1 11  1  0
  2  3  2  0
  2 12  1  0
  3  4  1  0
  3 13  1  0
  4  8  2  0
  4  5  1  0
  5 10  1  0
  5  6  1  0
  6  7  2  0
  6 14  1  0
  7  8  1  0
  7 16  1  0
  8  9  1  0
  9 15  1  0
M  CHG  1   7   1
M  END
>  <i_m_ct_stereo_status>  (107) 
1

>  <s_m_source_file>  (107) 
/var/tmp/pbs.5076255.sched01/tmpy176o0g7/39stoh4b52.sdf

>  <i_m_source_file_index>  (107) 
9

>  <i_lp_mmshare_version>  (107) 
48012

>  <i_f3d_flags>  (107) 
0

>  <s_epik_input>  (107) 
W2NIXTFbY0hdW2NIXVtjSF1jKGMxMiluW2NIXVtuSF0y

>  <s_epik_cmdline>  (107) 
J2VwaWtfcHl0aG9uJywgJy1waHQnLCAnMi4wJywgJy1waCcsICc3LjAnLCAnLXRuJywgJzgnLCAnLW1hJywgJzIwMCcsICctaW1hZScsICc8aW5maWxlLm1hZT4nLCAnLW9tYWUnLCAnPG91dGZpbGUubWFlPic=

>  <r_epik_Ionization_Penalty>  (107) 
1.8494

>  <r_epik_Ionization_Penalty_Charging>  (107) 
1.8494

>  <r_epik_Ionization_Penalty_Neutral>  (107) 
0

>  <r_epik_State_Penalty>  (107) 
1.96677

>  <r_epik_Charging_Adjusted_Penalty>  (107) 
3.81617

>  <i_epik_Tot_Q>  (107) 
1

>  <i_epik_Tot_abs_Q>  (107) 
1

>  <s_lp_Force_Field>  (107) 
OPLS3e

>  <r_lp_Energy>  (107) 
17.7204

>  <b_lp_Chiralities_Consistent>  (107) 
1

>  <s_lp_Variant>  (107) 
38:0-2

>  <s_i_glide_gridfile>  (107) 
pfpi4k_grid

>  <i_i_glide_lignum>  (107) 
9

>  <i_i_glide_rotatable_bonds>  (107) 
0

>  <r_i_docking_score>  (107) 
-3.73085

>  <r_i_glide_ligand_efficiency>  (107) 
-0.414539

>  <r_i_glide_ligand_efficiency_sa>  (107) 
-0.862275

>  <r_i_glide_ligand_efficiency_ln>  (107) 
-1.1669

>  <r_i_glide_gscore>  (107) 
-3.73085

>  <r_i_glide_lipo>  (107) 
-0.331439

>  <r_i_glide_hbond>  (107) 
0

>  <r_i_glide_metal>  (107) 
-0

>  <r_i_glide_rewards>  (107) 
-2.3242

>  <r_i_glide_evdw>  (107) 
-13.4844

>  <r_i_glide_ecoul>  (107) 
-2.512

>  <r_i_glide_erotb>  (107) 
0

>  <r_i_glide_esite>  (107) 
-0.0241885

>  <r_i_glide_emodel>  (107) 
-21.633

>  <r_i_glide_energy>  (107) 
-15.9964

>  <r_i_glide_einternal>  (107) 
0

>  <r_i_glide_intrahb_reward>  (107) 
-0

>  <i_i_glide_confnum>  (107) 
1

>  <i_i_glide_posenum>  (107) 
14

>  <r_i_glide_eff_state_penalty>  (107) 
0

>  <ligand_id>  (107) 
38

>  <original_smiles>  (107) 
c1ccc2[nH]cnc2c1

>  <smiles>  (107) 
[H]c1c([H])c([H])c2c(c1[H])n([H])c([H])[n+]2[H]

$$$$
39:0:0
     RDKit          3D

 49 52  0  0  1  0  0  0  0  0999 V2000
    3.2486   -3.0001   -3.8395 C   0  0  0  0  0  0  0  0  0  0  0  0
    3.9203   -3.2357   -2.5070 C   0  0  0  0  0  0  0  0  0  0  0  0
    4.9422   -3.9618   -2.5264 O   0  0  0  0  0  0  0  0  0  0  0  0
    3.3191   -2.6015   -1.3213 C   0  0  0  0  0  0  0  0  0  0  0  0
    3.5008   -2.8995   -0.0224 C   0  0  0  0  0  0  0  0  0  0  0  0
    4.3869   -4.0020    0.6234 C   0  0  1  0  0  0  0  0  0  0  0  0
    3.2524   -4.9276    1.2344 C   0  0  0  0  0  0  0  0  0  0  0  0
    2.6994   -5.7566    0.5265 O   0  0  0  0  0  0  0  0  0  0  0  0
    2.9315   -4.7378    2.8316 C   0  0  2  0  0  0  0  0  0  0  0  0
    1.4934   -5.1539    3.2458 C   0  0  0  0  0  0  0  0  0  0  0  0
    0.9602   -4.6226    4.5719 C   0  0  0  0  0  0  0  0  0  0  0  0
    0.7754   -5.8626    2.5409 O   0  0  0  0  0  0  0  0  0  0  0  0
    3.2303   -3.1524    3.2103 C   0  0  0  0  0  0  0  0  0  0  0  0
    4.6250   -2.8049    2.6293 C   0  0  0  0  0  0  0  0  0  0  0  0
    5.2893   -1.7693    2.0049 C   0  0  0  0  0  0  0  0  0  0  0  0
    6.2304   -2.2049    0.8123 C   0  0  0  0  0  0  0  0  0  0  0  0
    6.9806   -1.4929    0.1753 O   0  0  0  0  0  0  0  0  0  0  0  0
    5.9183   -3.7337    0.2847 C   0  0  1  0  0  0  0  0  0  0  0  0
    6.8484   -4.9629    0.6022 C   0  0  1  0  0  0  0  0  0  0  0  0
    8.3216   -4.5879    0.6765 C   0  0  0  0  0  0  0  0  0  0  0  0
    6.3348   -5.8115    1.8198 C   0  0  0  0  0  0  0  0  0  0  0  0
    6.7017   -6.9743    1.9778 O   0  0  0  0  0  0  0  0  0  0  0  0
    5.4126   -5.0525    2.7296 C   0  0  0  0  0  0  0  0  0  0  0  0
    5.0250   -3.9746    2.0565 C   0  0  0  0  0  0  0  0  0  0  0  0
    4.1473   -5.6277    3.4544 C   0  0  0  0  0  0  0  0  0  0  0  0
    4.3502   -5.4135    4.9613 C   0  0  0  0  0  0  0  0  0  0  0  0
    3.9678   -7.1472    3.2135 C   0  0  0  0  0  0  0  0  0  0  0  0
    2.2651   -3.4975   -3.8113 H   0  0  0  0  0  0  0  0  0  0  0  0
    3.8936   -3.5002   -4.5658 H   0  0  0  0  0  0  0  0  0  0  0  0
    3.1975   -1.9111   -4.0579 H   0  0  0  0  0  0  0  0  0  0  0  0
    2.6350   -1.7772   -1.4856 H   0  0  0  0  0  0  0  0  0  0  0  0
    2.9146   -2.3165    0.6730 H   0  0  0  0  0  0  0  0  0  0  0  0
    1.6161   -4.8548    5.4017 H   0  0  0  0  0  0  0  0  0  0  0  0
   -0.0003   -5.0766    4.7952 H   0  0  0  0  0  0  0  0  0  0  0  0
    0.8455   -3.5420    4.5352 H   0  0  0  0  0  0  0  0  0  0  0  0
    2.5010   -2.4797    2.7722 H   0  0  0  0  0  0  0  0  0  0  0  0
    3.2434   -2.9606    4.2757 H   0  0  0  0  0  0  0  0  0  0  0  0
    4.9435   -0.7171    2.0174 H   0  0  0  0  0  0  0  0  0  0  0  0
    6.1410   -3.5818   -0.7638 H   0  0  0  0  0  0  0  0  0  0  0  0
    6.7134   -5.6289   -0.2415 H   0  0  0  0  0  0  0  0  0  0  0  0
    8.9595   -5.4749    0.7339 H   0  0  0  0  0  0  0  0  0  0  0  0
    8.5077   -3.9555    1.5438 H   0  0  0  0  0  0  0  0  0  0  0  0
    8.6071   -4.0273   -0.2120 H   0  0  0  0  0  0  0  0  0  0  0  0
    3.4701   -5.6801    5.5411 H   0  0  0  0  0  0  0  0  0  0  0  0
    4.6244   -4.3878    5.1989 H   0  0  0  0  0  0  0  0  0  0  0  0
    5.1498   -6.0451    5.3431 H   0  0  0  0  0  0  0  0  0  0  0  0
    3.0530   -7.5219    3.6662 H   0  0  0  0  0  0  0  0  0  0  0  0
    4.7877   -7.7085    3.6547 H   0  0  0  0  0  0  0  0  0  0  0  0
    3.9434   -7.4347    2.1686 H   0  0  0  0  0  0  0  0  0  0  0  0
  1  2  1  0
  1 28  1  0
  1 29  1  0
  1 30  1  0
  2  3  2  0
  2  4  1  0
  4  5  2  3
  4 31  1  0
  6  5  1  1
  5 32  1  0
  6 18  1  0
  6 24  1  0
  6  7  1  0
  7  8  2  0
  7  9  1  0
  9 25  1  0
  9 10  1  6
  9 13  1  0
 10 11  1  0
 10 12  2  0
 11 33  1  0
 11 34  1  0
 11 35  1  0
 13 14  1  0
 13 36  1  0
 13 37  1  0
 14 24  1  0
 14 15  2  0
 15 16  1  0
 15 38  1  0
 16 17  2  0
 16 18  1  0
 18 19  1  0
 18 39  1  6
 19 20  1  0
 19 21  1  0
 19 40  1  6
 20 41  1  0
 20 42  1  0
 20 43  1  0
 21 22  2  0
 21 23  1  0
 23 24  2  0
 23 25  1  0
 25 26  1  0
 25 27  1  0
 26 44  1  0
 26 45  1  0
 26 46  1  0
 27 47  1  0
 27 48  1  0
 27 49  1  0
M  END
>  <i_m_ct_stereo_status>  (108) 
1

>  <s_m_source_file>  (108) 
/var/tmp/pbs.5076255.sched01/tmpy176o0g7/39stoh4b52.sdf

>  <i_m_source_file_index>  (108) 
10

>  <i_lp_mmshare_version>  (108) 
48012

>  <i_f3d_flags>  (108) 
0

>  <s_epik_input>  (108) 
W0NIM11DKD1PKS9bQ0hdPVtDSF1cQzEyW0NASF0zQyg9TylbQ0hdPUM0QzI9QyhDKD1PKVtDQEBIXTNbQ0gzXSlDKFtDSDNdKShbQ0gzXSlbQ0BdKEMxPU8pKFtDSDJdNClDKD1PKVtDSDNd

>  <s_epik_cmdline>  (108) 
J2VwaWtfcHl0aG9uJywgJy1waHQnLCAnMi4wJywgJy1waCcsICc3LjAnLCAnLXRuJywgJzgnLCAnLW1hJywgJzIwMCcsICctaW1hZScsICc8aW5maWxlLm1hZT4nLCAnLW9tYWUnLCAnPG91dGZpbGUubWFlPic=

>  <r_lp_tautomer_probability>  (108) 
1

>  <r_epik_Ionization_Penalty>  (108) 
1.06925e-09

>  <r_epik_Ionization_Penalty_Charging>  (108) 
0

>  <r_epik_Ionization_Penalty_Neutral>  (108) 
1.06925e-09

>  <r_epik_State_Penalty>  (108) 
-0

>  <r_epik_Charging_Adjusted_Penalty>  (108) 
0

>  <i_epik_Tot_Q>  (108) 
0

>  <i_epik_Tot_abs_Q>  (108) 
0

>  <s_lp_Force_Field>  (108) 
OPLS3e

>  <r_lp_Energy>  (108) 
294.189

>  <b_lp_Chiralities_Consistent>  (108) 
1

>  <s_lp_Variant>  (108) 
39:0-1

>  <s_i_glide_gridfile>  (108) 
pfpi4k_grid

>  <i_i_glide_lignum>  (108) 
10

>  <i_i_glide_rotatable_bonds>  (108) 
3

>  <r_i_docking_score>  (108) 
-3.49847

>  <r_i_glide_ligand_efficiency>  (108) 
-0.129573

>  <r_i_glide_ligand_efficiency_sa>  (108) 
-0.388718

>  <r_i_glide_ligand_efficiency_ln>  (108) 
-0.814385

>  <r_i_glide_gscore>  (108) 
-3.49847

>  <r_i_glide_lipo>  (108) 
-0.594652

>  <r_i_glide_hbond>  (108) 
-0.107822

>  <r_i_glide_metal>  (108) 
-0

>  <r_i_glide_rewards>  (108) 
-1.12141

>  <r_i_glide_evdw>  (108) 
-26.3979

>  <r_i_glide_ecoul>  (108) 
-3.94008

>  <r_i_glide_erotb>  (108) 
0.286726

>  <r_i_glide_esite>  (108) 
-0.0504022

>  <r_i_glide_emodel>  (108) 
-33.2245

>  <r_i_glide_energy>  (108) 
-30.3379

>  <r_i_glide_einternal>  (108) 
3.92336

>  <r_i_glide_intrahb_reward>  (108) 
-0

>  <i_i_glide_confnum>  (108) 
2

>  <i_i_glide_posenum>  (108) 
16

>  <r_i_glide_eff_state_penalty>  (108) 
0

>  <ligand_id>  (108) 
39

>  <original_smiles>  (108) 
CC(=O)C=CC12C(=O)C3(C(C)=O)CC4=CC(=O)C1C(C)C(=O)C(=C42)C3(C)C

>  <smiles>  (108) 
[H]C1=C2C3=C4C(=O)C([H])(C([H])([H])[H])C([H])(C1=O)C3(C([H])=C([H])C(=O)C([H])([H])[H])C(=O)C(C(=O)C([H])([H])[H])(C2([H])[H])C4(C([H])([H])[H])C([H])([H])[H]

$$$$
39:1:0
     RDKit          3D

 49 52  0  0  1  0  0  0  0  0999 V2000
    3.4661   -0.6580   -2.8862 C   0  0  0  0  0  0  0  0  0  0  0  0
    3.8482   -2.1075   -3.1570 C   0  0  0  0  0  0  0  0  0  0  0  0
    3.8166   -2.5156   -4.3169 O   0  0  0  0  0  0  0  0  0  0  0  0
    4.2530   -2.9677   -2.0322 C   0  0  0  0  0  0  0  0  0  0  0  0
    4.3517   -2.5170   -0.7658 C   0  0  0  0  0  0  0  0  0  0  0  0
    4.7700   -3.4041    0.4281 C   0  0  1  0  0  0  0  0  0  0  0  0
    3.3818   -3.4613    1.1785 C   0  0  0  0  0  0  0  0  0  0  0  0
    2.4968   -4.2564    0.8571 O   0  0  0  0  0  0  0  0  0  0  0  0
    3.3039   -2.4030    2.4052 C   0  0  2  0  0  0  0  0  0  0  0  0
    1.8573   -1.9547    2.7310 C   0  0  0  0  0  0  0  0  0  0  0  0
    1.4419   -0.5317    2.3587 C   0  0  0  0  0  0  0  0  0  0  0  0
    1.0406   -2.6867    3.2831 O   0  0  0  0  0  0  0  0  0  0  0  0
    4.2887   -1.1003    2.0619 C   0  0  0  0  0  0  0  0  0  0  0  0
    5.6693   -1.6587    1.6261 C   0  0  0  0  0  0  0  0  0  0  0  0
    6.6123   -1.4403    0.6371 C   0  0  0  0  0  0  0  0  0  0  0  0
    7.1398   -2.7325   -0.1258 C   0  0  0  0  0  0  0  0  0  0  0  0
    8.1320   -2.7600   -0.8507 O   0  0  0  0  0  0  0  0  0  0  0  0
    6.1647   -4.0654    0.0809 C   0  0  1  0  0  0  0  0  0  0  0  0
    6.5726   -5.2245    1.1187 C   0  0  1  0  0  0  0  0  0  0  0  0
    8.0908   -5.4395    1.2457 C   0  0  0  0  0  0  0  0  0  0  0  0
    5.8733   -5.0566    2.5224 C   0  0  0  0  0  0  0  0  0  0  0  0
    5.7854   -6.0267    3.2714 O   0  0  0  0  0  0  0  0  0  0  0  0
    5.4184   -3.6686    2.8635 C   0  0  0  0  0  0  0  0  0  0  0  0
    5.5273   -2.9891    1.7237 C   0  0  0  0  0  0  0  0  0  0  0  0
    4.0678   -3.2867    3.5419 C   0  0  0  0  0  0  0  0  0  0  0  0
    4.3836   -2.4551    4.8057 C   0  0  0  0  0  0  0  0  0  0  0  0
    3.2798   -4.5489    4.0223 C   0  0  0  0  0  0  0  0  0  0  0  0
    4.2918   -0.1251   -2.4115 H   0  0  0  0  0  0  0  0  0  0  0  0
    2.6118   -0.6498   -2.2114 H   0  0  0  0  0  0  0  0  0  0  0  0
    3.1921   -0.1359   -3.8022 H   0  0  0  0  0  0  0  0  0  0  0  0
    4.4715   -4.0035   -2.2595 H   0  0  0  0  0  0  0  0  0  0  0  0
    4.1235   -1.4876   -0.5573 H   0  0  0  0  0  0  0  0  0  0  0  0
    2.1112    0.1935    2.8245 H   0  0  0  0  0  0  0  0  0  0  0  0
    0.4305   -0.3262    2.7093 H   0  0  0  0  0  0  0  0  0  0  0  0
    1.4683   -0.3929    1.2778 H   0  0  0  0  0  0  0  0  0  0  0  0
    3.8841   -0.4882    1.2558 H   0  0  0  0  0  0  0  0  0  0  0  0
    4.4132   -0.4384    2.9188 H   0  0  0  0  0  0  0  0  0  0  0  0
    6.7088   -0.4814    0.1553 H   0  0  0  0  0  0  0  0  0  0  0  0
    6.0988   -4.5485   -0.8930 H   0  0  0  0  0  0  0  0  0  0  0  0
    6.1606   -6.1467    0.7045 H   0  0  0  0  0  0  0  0  0  0  0  0
    8.3117   -6.3442    1.8132 H   0  0  0  0  0  0  0  0  0  0  0  0
    8.5835   -4.6033    1.7462 H   0  0  0  0  0  0  0  0  0  0  0  0
    8.5508   -5.5561    0.2623 H   0  0  0  0  0  0  0  0  0  0  0  0
    3.4840   -2.0178    5.2379 H   0  0  0  0  0  0  0  0  0  0  0  0
    5.0861   -1.6469    4.6006 H   0  0  0  0  0  0  0  0  0  0  0  0
    4.8593   -3.0722    5.5693 H   0  0  0  0  0  0  0  0  0  0  0  0
    2.3299   -4.3013    4.4891 H   0  0  0  0  0  0  0  0  0  0  0  0
    3.8371   -5.0921    4.7866 H   0  0  0  0  0  0  0  0  0  0  0  0
    3.0723   -5.2577    3.2192 H   0  0  0  0  0  0  0  0  0  0  0  0
  1  2  1  0
  1 28  1  0
  1 29  1  0
  1 30  1  0
  2  3  2  0
  2  4  1  0
  4  5  2  3
  4 31  1  0
  6  5  1  6
  5 32  1  0
  6 18  1  0
  6 24  1  0
  6  7  1  0
  7  8  2  0
  7  9  1  0
  9 25  1  0
  9 10  1  1
  9 13  1  0
 10 11  1  0
 10 12  2  0
 11 33  1  0
 11 34  1  0
 11 35  1  0
 13 14  1  0
 13 36  1  0
 13 37  1  0
 14 24  1  0
 14 15  2  0
 15 16  1  0
 15 38  1  0
 16 17  2  0
 16 18  1  0
 18 19  1  0
 18 39  1  6
 19 20  1  0
 19 21  1  0
 19 40  1  6
 20 41  1  0
 20 42  1  0
 20 43  1  0
 21 22  2  0
 21 23  1  0
 23 24  2  0
 23 25  1  0
 25 26  1  0
 25 27  1  0
 26 44  1  0
 26 45  1  0
 26 46  1  0
 27 47  1  0
 27 48  1  0
 27 49  1  0
M  END
>  <i_m_ct_stereo_status>  (109) 
1

>  <s_m_source_file>  (109) 
/var/tmp/pbs.5076255.sched01/tmpy176o0g7/39stoh4b52.sdf

>  <i_m_source_file_index>  (109) 
11

>  <i_lp_mmshare_version>  (109) 
48012

>  <i_f3d_flags>  (109) 
0

>  <s_epik_input>  (109) 
W0NIM11DKD1PKS9bQ0hdPVtDSF1cQzEyW0NASF0zQyg9TylbQ0hdPUM0QzI9QyhDKD1PKVtDQEBIXTNbQ0gzXSlDKFtDSDNdKShbQ0gzXSlbQ0BdKEMxPU8pKFtDSDJdNClDKD1PKVtDSDNd

>  <s_epik_cmdline>  (109) 
J2VwaWtfcHl0aG9uJywgJy1waHQnLCAnMi4wJywgJy1waCcsICc3LjAnLCAnLXRuJywgJzgnLCAnLW1hJywgJzIwMCcsICctaW1hZScsICc8aW5maWxlLm1hZT4nLCAnLW9tYWUnLCAnPG91dGZpbGUubWFlPic=

>  <r_lp_tautomer_probability>  (109) 
1

>  <r_epik_Ionization_Penalty>  (109) 
1.06925e-09

>  <r_epik_Ionization_Penalty_Charging>  (109) 
0

>  <r_epik_Ionization_Penalty_Neutral>  (109) 
1.06925e-09

>  <r_epik_State_Penalty>  (109) 
-0

>  <r_epik_Charging_Adjusted_Penalty>  (109) 
0

>  <i_epik_Tot_Q>  (109) 
0

>  <i_epik_Tot_abs_Q>  (109) 
0

>  <s_lp_Force_Field>  (109) 
OPLS3e

>  <r_lp_Energy>  (109) 
292.186

>  <b_lp_Chiralities_Consistent>  (109) 
1

>  <s_lp_Variant>  (109) 
39:0-2

>  <s_i_glide_gridfile>  (109) 
pfpi4k_grid

>  <i_i_glide_lignum>  (109) 
11

>  <i_i_glide_rotatable_bonds>  (109) 
3

>  <r_i_docking_score>  (109) 
-3.77085

>  <r_i_glide_ligand_efficiency>  (109) 
-0.139661

>  <r_i_glide_ligand_efficiency_sa>  (109) 
-0.418984

>  <r_i_glide_ligand_efficiency_ln>  (109) 
-0.877792

>  <r_i_glide_gscore>  (109) 
-3.77085

>  <r_i_glide_lipo>  (109) 
-0.570184

>  <r_i_glide_hbond>  (109) 
-0.365604

>  <r_i_glide_metal>  (109) 
-0

>  <r_i_glide_rewards>  (109) 
-1.17069

>  <r_i_glide_evdw>  (109) 
-30.0713

>  <r_i_glide_ecoul>  (109) 
-2.90923

>  <r_i_glide_erotb>  (109) 
0.286726

>  <r_i_glide_esite>  (109) 
-0.0111447

>  <r_i_glide_emodel>  (109) 
-40.0851

>  <r_i_glide_energy>  (109) 
-32.9806

>  <r_i_glide_einternal>  (109) 
2.35534

>  <r_i_glide_intrahb_reward>  (109) 
-0

>  <i_i_glide_confnum>  (109) 
6

>  <i_i_glide_posenum>  (109) 
34

>  <r_i_glide_eff_state_penalty>  (109) 
0

>  <ligand_id>  (109) 
39

>  <original_smiles>  (109) 
CC(=O)C=CC12C(=O)C3(C(C)=O)CC4=CC(=O)C1C(C)C(=O)C(=C42)C3(C)C

>  <smiles>  (109) 
[H]C1=C2C3=C4C(=O)C([H])(C([H])([H])[H])C([H])(C1=O)C3(C([H])=C([H])C(=O)C([H])([H])[H])C(=O)C(C(=O)C([H])([H])[H])(C2([H])[H])C4(C([H])([H])[H])C([H])([H])[H]

$$$$
39:1:1
     RDKit          3D

 49 52  0  0  1  0  0  0  0  0999 V2000
    2.3201   -2.6554   -3.6262 C   0  0  0  0  0  0  0  0  0  0  0  0
    3.3259   -2.0962   -2.6375 C   0  0  0  0  0  0  0  0  0  0  0  0
    3.6808   -0.9197   -2.7194 O   0  0  0  0  0  0  0  0  0  0  0  0
    3.8483   -3.0295   -1.6397 C   0  0  0  0  0  0  0  0  0  0  0  0
    4.2357   -2.6220   -0.4205 C   0  0  0  0  0  0  0  0  0  0  0  0
    4.7966   -3.6010    0.6450 C   0  0  1  0  0  0  0  0  0  0  0  0
    3.4681   -3.8792    1.4536 C   0  0  0  0  0  0  0  0  0  0  0  0
    2.6149   -4.6838    1.0842 O   0  0  0  0  0  0  0  0  0  0  0  0
    3.3809   -3.0005    2.8056 C   0  0  2  0  0  0  0  0  0  0  0  0
    1.9237   -2.6878    3.2214 C   0  0  0  0  0  0  0  0  0  0  0  0
    1.0438   -3.7549    3.8782 C   0  0  0  0  0  0  0  0  0  0  0  0
    1.4502   -1.5713    3.0177 O   0  0  0  0  0  0  0  0  0  0  0  0
    4.2212   -1.5712    2.5490 C   0  0  0  0  0  0  0  0  0  0  0  0
    5.6286   -1.9327    1.9867 C   0  0  0  0  0  0  0  0  0  0  0  0
    6.4978   -1.5292    0.9730 C   0  0  0  0  0  0  0  0  0  0  0  0
    7.0712   -2.6809    0.0428 C   0  0  0  0  0  0  0  0  0  0  0  0
    8.0161   -2.5358   -0.7391 O   0  0  0  0  0  0  0  0  0  0  0  0
    6.2145   -4.0982    0.1397 C   0  0  1  0  0  0  0  0  0  0  0  0
    6.7896   -5.3273    1.0089 C   0  0  1  0  0  0  0  0  0  0  0  0
    8.3239   -5.4289    1.0432 C   0  0  0  0  0  0  0  0  0  0  0  0
    6.1885   -5.3809    2.4586 C   0  0  0  0  0  0  0  0  0  0  0  0
    6.2184   -6.4280    3.0975 O   0  0  0  0  0  0  0  0  0  0  0  0
    5.6301   -4.0995    2.9962 C   0  0  0  0  0  0  0  0  0  0  0  0
    5.5974   -3.2734    1.9361 C   0  0  0  0  0  0  0  0  0  0  0  0
    4.2958   -3.9267    3.7963 C   0  0  0  0  0  0  0  0  0  0  0  0
    4.6252   -3.1952    5.1193 C   0  0  0  0  0  0  0  0  0  0  0  0
    3.6802   -5.3194    4.1729 C   0  0  0  0  0  0  0  0  0  0  0  0
    1.4482   -3.0517   -3.1018 H   0  0  0  0  0  0  0  0  0  0  0  0
    2.7649   -3.4637   -4.2078 H   0  0  0  0  0  0  0  0  0  0  0  0
    1.9797   -1.8814   -4.3158 H   0  0  0  0  0  0  0  0  0  0  0  0
    3.9127   -4.0739   -1.8998 H   0  0  0  0  0  0  0  0  0  0  0  0
    4.1525   -1.5757   -0.1753 H   0  0  0  0  0  0  0  0  0  0  0  0
    1.0467   -4.6802    3.2976 H   0  0  0  0  0  0  0  0  0  0  0  0
    0.0079   -3.4118    3.9584 H   0  0  0  0  0  0  0  0  0  0  0  0
    1.4340   -3.9756    4.8681 H   0  0  0  0  0  0  0  0  0  0  0  0
    3.7123   -0.9218    1.8399 H   0  0  0  0  0  0  0  0  0  0  0  0
    4.3425   -0.9884    3.4635 H   0  0  0  0  0  0  0  0  0  0  0  0
    6.4946   -0.5180    0.6017 H   0  0  0  0  0  0  0  0  0  0  0  0
    6.1161   -4.4692   -0.8826 H   0  0  0  0  0  0  0  0  0  0  0  0
    6.4285   -6.2391    0.5294 H   0  0  0  0  0  0  0  0  0  0  0  0
    8.6475   -6.3686    1.4934 H   0  0  0  0  0  0  0  0  0  0  0  0
    8.7772   -4.6161    1.6159 H   0  0  0  0  0  0  0  0  0  0  0  0
    8.7326   -5.3999    0.0344 H   0  0  0  0  0  0  0  0  0  0  0  0
    3.7218   -2.8829    5.6396 H   0  0  0  0  0  0  0  0  0  0  0  0
    5.2392   -2.3122    4.9664 H   0  0  0  0  0  0  0  0  0  0  0  0
    5.1941   -3.8404    5.7823 H   0  0  0  0  0  0  0  0  0  0  0  0
    2.7685   -5.2572    4.7560 H   0  0  0  0  0  0  0  0  0  0  0  0
    4.4022   -5.8869    4.7755 H   0  0  0  0  0  0  0  0  0  0  0  0
    3.4986   -5.9365    3.2820 H   0  0  0  0  0  0  0  0  0  0  0  0
  1  2  1  0
  1 28  1  0
  1 29  1  0
  1 30  1  0
  2  3  2  0
  2  4  1  0
  4  5  2  3
  4 31  1  0
  6  5  1  6
  5 32  1  0
  6 18  1  0
  6 24  1  0
  6  7  1  0
  7  8  2  0
  7  9  1  0
  9 25  1  0
  9 10  1  1
  9 13  1  0
 10 11  1  0
 10 12  2  0
 11 33  1  0
 11 34  1  0
 11 35  1  0
 13 14  1  0
 13 36  1  0
 13 37  1  0
 14 24  1  0
 14 15  2  0
 15 16  1  0
 15 38  1  0
 16 17  2  0
 16 18  1  0
 18 19  1  0
 18 39  1  6
 19 20  1  0
 19 21  1  0
 19 40  1  6
 20 41  1  0
 20 42  1  0
 20 43  1  0
 21 22  2  0
 21 23  1  0
 23 24  2  0
 23 25  1  0
 25 26  1  0
 25 27  1  0
 26 44  1  0
 26 45  1  0
 26 46  1  0
 27 47  1  0
 27 48  1  0
 27 49  1  0
M  END
>  <i_m_ct_stereo_status>  (110) 
1

>  <s_m_source_file>  (110) 
/var/tmp/pbs.5076255.sched01/tmpy176o0g7/39stoh4b52.sdf

>  <i_m_source_file_index>  (110) 
11

>  <i_lp_mmshare_version>  (110) 
48012

>  <i_f3d_flags>  (110) 
0

>  <s_epik_input>  (110) 
W0NIM11DKD1PKS9bQ0hdPVtDSF1cQzEyW0NASF0zQyg9TylbQ0hdPUM0QzI9QyhDKD1PKVtDQEBIXTNbQ0gzXSlDKFtDSDNdKShbQ0gzXSlbQ0BdKEMxPU8pKFtDSDJdNClDKD1PKVtDSDNd

>  <s_epik_cmdline>  (110) 
J2VwaWtfcHl0aG9uJywgJy1waHQnLCAnMi4wJywgJy1waCcsICc3LjAnLCAnLXRuJywgJzgnLCAnLW1hJywgJzIwMCcsICctaW1hZScsICc8aW5maWxlLm1hZT4nLCAnLW9tYWUnLCAnPG91dGZpbGUubWFlPic=

>  <r_lp_tautomer_probability>  (110) 
1

>  <r_epik_Ionization_Penalty>  (110) 
1.06925e-09

>  <r_epik_Ionization_Penalty_Charging>  (110) 
0

>  <r_epik_Ionization_Penalty_Neutral>  (110) 
1.06925e-09

>  <r_epik_State_Penalty>  (110) 
-0

>  <r_epik_Charging_Adjusted_Penalty>  (110) 
0

>  <i_epik_Tot_Q>  (110) 
0

>  <i_epik_Tot_abs_Q>  (110) 
0

>  <s_lp_Force_Field>  (110) 
OPLS3e

>  <r_lp_Energy>  (110) 
292.186

>  <b_lp_Chiralities_Consistent>  (110) 
1

>  <s_lp_Variant>  (110) 
39:0-2

>  <s_i_glide_gridfile>  (110) 
pfpi4k_grid

>  <i_i_glide_lignum>  (110) 
11

>  <i_i_glide_rotatable_bonds>  (110) 
3

>  <r_i_docking_score>  (110) 
-3.46663

>  <r_i_glide_ligand_efficiency>  (110) 
-0.128394

>  <r_i_glide_ligand_efficiency_sa>  (110) 
-0.385181

>  <r_i_glide_ligand_efficiency_ln>  (110) 
-0.806974

>  <r_i_glide_gscore>  (110) 
-3.46663

>  <r_i_glide_lipo>  (110) 
-0.800819

>  <r_i_glide_hbond>  (110) 
-0.114854

>  <r_i_glide_metal>  (110) 
-0

>  <r_i_glide_rewards>  (110) 
-1.06305

>  <r_i_glide_evdw>  (110) 
-28.9948

>  <r_i_glide_ecoul>  (110) 
-1.94456

>  <r_i_glide_erotb>  (110) 
0.286726

>  <r_i_glide_esite>  (110) 
-0.033208

>  <r_i_glide_emodel>  (110) 
-36.5972

>  <r_i_glide_energy>  (110) 
-30.9393

>  <r_i_glide_einternal>  (110) 
3.04964

>  <r_i_glide_intrahb_reward>  (110) 
-0

>  <i_i_glide_confnum>  (110) 
2

>  <i_i_glide_posenum>  (110) 
35

>  <r_i_glide_eff_state_penalty>  (110) 
0

>  <ligand_id>  (110) 
39

>  <original_smiles>  (110) 
CC(=O)C=CC12C(=O)C3(C(C)=O)CC4=CC(=O)C1C(C)C(=O)C(=C42)C3(C)C

>  <smiles>  (110) 
[H]C1=C2C3=C4C(=O)C([H])(C([H])([H])[H])C([H])(C1=O)C3(C([H])=C([H])C(=O)C([H])([H])[H])C(=O)C(C(=O)C([H])([H])[H])(C2([H])[H])C4(C([H])([H])[H])C([H])([H])[H]

$$$$
39:1:2
     RDKit          3D

 49 52  0  0  1  0  0  0  0  0999 V2000
    2.6639   -2.3313   -3.9166 C   0  0  0  0  0  0  0  0  0  0  0  0
    3.6119   -1.8148   -2.8469 C   0  0  0  0  0  0  0  0  0  0  0  0
    4.0347   -0.6590   -2.9046 O   0  0  0  0  0  0  0  0  0  0  0  0
    4.0020   -2.7682   -1.8024 C   0  0  0  0  0  0  0  0  0  0  0  0
    4.3997   -2.3603   -0.5848 C   0  0  0  0  0  0  0  0  0  0  0  0
    4.8208   -3.3583    0.5202 C   0  0  1  0  0  0  0  0  0  0  0  0
    3.4340   -3.4911    1.2641 C   0  0  0  0  0  0  0  0  0  0  0  0
    2.5515   -4.2567    0.8786 O   0  0  0  0  0  0  0  0  0  0  0  0
    3.3583   -2.5581    2.5830 C   0  0  2  0  0  0  0  0  0  0  0  0
    1.9114   -2.1350    2.9324 C   0  0  0  0  0  0  0  0  0  0  0  0
    1.3839   -0.8235    2.3612 C   0  0  0  0  0  0  0  0  0  0  0  0
    1.1704   -2.8037    3.6486 O   0  0  0  0  0  0  0  0  0  0  0  0
    4.3414   -1.2300    2.3532 C   0  0  0  0  0  0  0  0  0  0  0  0
    5.7271   -1.7432    1.8782 C   0  0  0  0  0  0  0  0  0  0  0  0
    6.6703   -1.4378    0.9085 C   0  0  0  0  0  0  0  0  0  0  0  0
    7.1884   -2.6524    0.0224 C   0  0  0  0  0  0  0  0  0  0  0  0
    8.1776   -2.6129   -0.7044 O   0  0  0  0  0  0  0  0  0  0  0  0
    6.2087   -3.9910    0.1032 C   0  0  1  0  0  0  0  0  0  0  0  0
    6.6252   -5.2420    1.0337 C   0  0  1  0  0  0  0  0  0  0  0  0
    8.1459   -5.4683    1.1445 C   0  0  0  0  0  0  0  0  0  0  0  0
    5.9309   -5.2065    2.4493 C   0  0  0  0  0  0  0  0  0  0  0  0
    5.8493   -6.2398    3.1084 O   0  0  0  0  0  0  0  0  0  0  0  0
    5.4732   -3.8570    2.9202 C   0  0  0  0  0  0  0  0  0  0  0  0
    5.5837   -3.0741    1.8478 C   0  0  0  0  0  0  0  0  0  0  0  0
    4.1231   -3.5430    3.6329 C   0  0  0  0  0  0  0  0  0  0  0  0
    4.4428   -2.8287    4.9667 C   0  0  0  0  0  0  0  0  0  0  0  0
    3.3413   -4.8490    3.9957 C   0  0  0  0  0  0  0  0  0  0  0  0
    1.7350   -2.6744   -3.4598 H   0  0  0  0  0  0  0  0  0  0  0  0
    3.1128   -3.1683   -4.4520 H   0  0  0  0  0  0  0  0  0  0  0  0
    2.4287   -1.5359   -4.6233 H   0  0  0  0  0  0  0  0  0  0  0  0
    3.9627   -3.8232   -2.0322 H   0  0  0  0  0  0  0  0  0  0  0  0
    4.4179   -1.3017   -0.3792 H   0  0  0  0  0  0  0  0  0  0  0  0
    2.0278    0.0130    2.6395 H   0  0  0  0  0  0  0  0  0  0  0  0
    0.3863   -0.6192    2.7585 H   0  0  0  0  0  0  0  0  0  0  0  0
    1.3189   -0.8822    1.2836 H   0  0  0  0  0  0  0  0  0  0  0  0
    3.9414   -0.5660    1.5877 H   0  0  0  0  0  0  0  0  0  0  0  0
    4.4494   -0.6426    3.2640 H   0  0  0  0  0  0  0  0  0  0  0  0
    6.7674   -0.4416    0.5051 H   0  0  0  0  0  0  0  0  0  0  0  0
    6.1302   -4.3709   -0.9177 H   0  0  0  0  0  0  0  0  0  0  0  0
    6.2172   -6.1278    0.5446 H   0  0  0  0  0  0  0  0  0  0  0  0
    8.3680   -6.4204    1.6283 H   0  0  0  0  0  0  0  0  0  0  0  0
    8.6380   -4.6823    1.7210 H   0  0  0  0  0  0  0  0  0  0  0  0
    8.6070   -5.4965    0.1563 H   0  0  0  0  0  0  0  0  0  0  0  0
    3.5424   -2.4317    5.4395 H   0  0  0  0  0  0  0  0  0  0  0  0
    5.1425   -2.0042    4.8345 H   0  0  0  0  0  0  0  0  0  0  0  0
    4.9198   -3.5104    5.6723 H   0  0  0  0  0  0  0  0  0  0  0  0
    2.3905   -4.6586    4.4855 H   0  0  0  0  0  0  0  0  0  0  0  0
    3.9018   -5.4580    4.7070 H   0  0  0  0  0  0  0  0  0  0  0  0
    3.1357   -5.4805    3.1316 H   0  0  0  0  0  0  0  0  0  0  0  0
  1  2  1  0
  1 28  1  0
  1 29  1  0
  1 30  1  0
  2  3  2  0
  2  4  1  0
  4  5  2  3
  4 31  1  0
  6  5  1  6
  5 32  1  0
  6 18  1  0
  6 24  1  0
  6  7  1  0
  7  8  2  0
  7  9  1  0
  9 25  1  0
  9 10  1  1
  9 13  1  0
 10 11  1  0
 10 12  2  0
 11 33  1  0
 11 34  1  0
 11 35  1  0
 13 14  1  0
 13 36  1  0
 13 37  1  0
 14 24  1  0
 14 15  2  0
 15 16  1  0
 15 38  1  0
 16 17  2  0
 16 18  1  0
 18 19  1  0
 18 39  1  6
 19 20  1  0
 19 21  1  0
 19 40  1  6
 20 41  1  0
 20 42  1  0
 20 43  1  0
 21 22  2  0
 21 23  1  0
 23 24  2  0
 23 25  1  0
 25 26  1  0
 25 27  1  0
 26 44  1  0
 26 45  1  0
 26 46  1  0
 27 47  1  0
 27 48  1  0
 27 49  1  0
M  END
>  <i_m_ct_stereo_status>  (111) 
1

>  <s_m_source_file>  (111) 
/var/tmp/pbs.5076255.sched01/tmpy176o0g7/39stoh4b52.sdf

>  <i_m_source_file_index>  (111) 
11

>  <i_lp_mmshare_version>  (111) 
48012

>  <i_f3d_flags>  (111) 
0

>  <s_epik_input>  (111) 
W0NIM11DKD1PKS9bQ0hdPVtDSF1cQzEyW0NASF0zQyg9TylbQ0hdPUM0QzI9QyhDKD1PKVtDQEBIXTNbQ0gzXSlDKFtDSDNdKShbQ0gzXSlbQ0BdKEMxPU8pKFtDSDJdNClDKD1PKVtDSDNd

>  <s_epik_cmdline>  (111) 
J2VwaWtfcHl0aG9uJywgJy1waHQnLCAnMi4wJywgJy1waCcsICc3LjAnLCAnLXRuJywgJzgnLCAnLW1hJywgJzIwMCcsICctaW1hZScsICc8aW5maWxlLm1hZT4nLCAnLW9tYWUnLCAnPG91dGZpbGUubWFlPic=

>  <r_lp_tautomer_probability>  (111) 
1

>  <r_epik_Ionization_Penalty>  (111) 
1.06925e-09

>  <r_epik_Ionization_Penalty_Charging>  (111) 
0

>  <r_epik_Ionization_Penalty_Neutral>  (111) 
1.06925e-09

>  <r_epik_State_Penalty>  (111) 
-0

>  <r_epik_Charging_Adjusted_Penalty>  (111) 
0

>  <i_epik_Tot_Q>  (111) 
0

>  <i_epik_Tot_abs_Q>  (111) 
0

>  <s_lp_Force_Field>  (111) 
OPLS3e

>  <r_lp_Energy>  (111) 
292.186

>  <b_lp_Chiralities_Consistent>  (111) 
1

>  <s_lp_Variant>  (111) 
39:0-2

>  <s_i_glide_gridfile>  (111) 
pfpi4k_grid

>  <i_i_glide_lignum>  (111) 
11

>  <i_i_glide_rotatable_bonds>  (111) 
3

>  <r_i_docking_score>  (111) 
-3.27551

>  <r_i_glide_ligand_efficiency>  (111) 
-0.121315

>  <r_i_glide_ligand_efficiency_sa>  (111) 
-0.363945

>  <r_i_glide_ligand_efficiency_ln>  (111) 
-0.762484

>  <r_i_glide_gscore>  (111) 
-3.27551

>  <r_i_glide_lipo>  (111) 
-0.707829

>  <r_i_glide_hbond>  (111) 
-0.0728064

>  <r_i_glide_metal>  (111) 
-0

>  <r_i_glide_rewards>  (111) 
-1.03911

>  <r_i_glide_evdw>  (111) 
-30.0696

>  <r_i_glide_ecoul>  (111) 
-1.50331

>  <r_i_glide_erotb>  (111) 
0.286726

>  <r_i_glide_esite>  (111) 
-0.0135155

>  <r_i_glide_emodel>  (111) 
-37.2603

>  <r_i_glide_energy>  (111) 
-31.5729

>  <r_i_glide_einternal>  (111) 
2.82407

>  <r_i_glide_intrahb_reward>  (111) 
-0

>  <i_i_glide_confnum>  (111) 
6

>  <i_i_glide_posenum>  (111) 
1

>  <r_i_glide_eff_state_penalty>  (111) 
0

>  <ligand_id>  (111) 
39

>  <original_smiles>  (111) 
CC(=O)C=CC12C(=O)C3(C(C)=O)CC4=CC(=O)C1C(C)C(=O)C(=C42)C3(C)C

>  <smiles>  (111) 
[H]C1=C2C3=C4C(=O)C([H])(C([H])([H])[H])C([H])(C1=O)C3(C([H])=C([H])C(=O)C([H])([H])[H])C(=O)C(C(=O)C([H])([H])[H])(C2([H])[H])C4(C([H])([H])[H])C([H])([H])[H]

$$$$
39:2:0
     RDKit          3D

 49 52  0  0  1  0  0  0  0  0999 V2000
    2.4090   -3.0526   -3.8391 C   0  0  0  0  0  0  0  0  0  0  0  0
    3.2607   -2.9792   -2.5846 C   0  0  0  0  0  0  0  0  0  0  0  0
    4.3409   -2.3917   -2.6387 O   0  0  0  0  0  0  0  0  0  0  0  0
    2.7155   -3.6655   -1.3896 C   0  0  0  0  0  0  0  0  0  0  0  0
    3.2542   -3.6765   -0.1540 C   0  0  0  0  0  0  0  0  0  0  0  0
    4.5507   -2.9739    0.3208 C   0  0  2  0  0  0  0  0  0  0  0  0
    4.0623   -1.4854    0.5876 C   0  0  0  0  0  0  0  0  0  0  0  0
    3.9523   -0.6532   -0.3088 O   0  0  0  0  0  0  0  0  0  0  0  0
    3.9118   -1.1493    2.1526 C   0  0  2  0  0  0  0  0  0  0  0  0
    3.0018    0.0694    2.4287 C   0  0  0  0  0  0  0  0  0  0  0  0
    1.6660    0.2005    1.6994 C   0  0  0  0  0  0  0  0  0  0  0  0
    3.3243    0.9016    3.2721 O   0  0  0  0  0  0  0  0  0  0  0  0
    5.4455   -0.8244    2.4891 C   0  0  0  0  0  0  0  0  0  0  0  0
    6.1980   -2.0313    1.9344 C   0  0  0  0  0  0  0  0  0  0  0  0
    7.2170   -2.0254    1.0346 C   0  0  0  0  0  0  0  0  0  0  0  0
    7.1793   -3.1187   -0.0064 C   0  0  0  0  0  0  0  0  0  0  0  0
    8.1429   -3.4456   -0.7019 O   0  0  0  0  0  0  0  0  0  0  0  0
    5.7713   -3.8573   -0.1501 C   0  0  1  0  0  0  0  0  0  0  0  0
    5.4927   -5.2749    0.6993 C   0  0  1  0  0  0  0  0  0  0  0  0
    6.7537   -6.1038    0.9954 C   0  0  0  0  0  0  0  0  0  0  0  0
    4.5901   -5.0462    2.0531 C   0  0  0  0  0  0  0  0  0  0  0  0
    3.9579   -5.9848    2.5380 O   0  0  0  0  0  0  0  0  0  0  0  0
    4.5879   -3.6385    2.6429 C   0  0  0  0  0  0  0  0  0  0  0  0
    5.2634   -3.0901    1.7039 C   0  0  0  0  0  0  0  0  0  0  0  0
    3.5108   -2.5380    2.9899 C   0  0  0  0  0  0  0  0  0  0  0  0
    3.6109   -2.3122    4.5165 C   0  0  0  0  0  0  0  0  0  0  0  0
    2.0519   -2.9758    2.7241 C   0  0  0  0  0  0  0  0  0  0  0  0
    2.2809   -4.0928   -4.1322 H   0  0  0  0  0  0  0  0  0  0  0  0
    2.8804   -2.5061   -4.6578 H   0  0  0  0  0  0  0  0  0  0  0  0
    1.4178   -2.6307   -3.6557 H   0  0  0  0  0  0  0  0  0  0  0  0
    1.7977   -4.2181   -1.5383 H   0  0  0  0  0  0  0  0  0  0  0  0
    2.6984   -4.2607    0.5588 H   0  0  0  0  0  0  0  0  0  0  0  0
    1.8124    0.1724    0.6178 H   0  0  0  0  0  0  0  0  0  0  0  0
    1.1817    1.1477    1.9318 H   0  0  0  0  0  0  0  0  0  0  0  0
    0.9828   -0.6002    1.9713 H   0  0  0  0  0  0  0  0  0  0  0  0
    5.7849    0.0674    1.9609 H   0  0  0  0  0  0  0  0  0  0  0  0
    5.6513   -0.6730    3.5499 H   0  0  0  0  0  0  0  0  0  0  0  0
    7.8809   -1.1833    0.8986 H   0  0  0  0  0  0  0  0  0  0  0  0
    5.6710   -4.0887   -1.2118 H   0  0  0  0  0  0  0  0  0  0  0  0
    4.8688   -5.8909    0.0496 H   0  0  0  0  0  0  0  0  0  0  0  0
    6.4836   -7.0930    1.3744 H   0  0  0  0  0  0  0  0  0  0  0  0
    7.3984   -5.6229    1.7350 H   0  0  0  0  0  0  0  0  0  0  0  0
    7.3351   -6.2473    0.0836 H   0  0  0  0  0  0  0  0  0  0  0  0
    2.9890   -1.4833    4.8535 H   0  0  0  0  0  0  0  0  0  0  0  0
    4.6336   -2.1060    4.8305 H   0  0  0  0  0  0  0  0  0  0  0  0
    3.2985   -3.2061    5.0561 H   0  0  0  0  0  0  0  0  0  0  0  0
    1.3527   -2.4627    3.3855 H   0  0  0  0  0  0  0  0  0  0  0  0
    1.9100   -4.0465    2.8695 H   0  0  0  0  0  0  0  0  0  0  0  0
    1.7356   -2.7203    1.7144 H   0  0  0  0  0  0  0  0  0  0  0  0
  1  2  1  0
  1 28  1  0
  1 29  1  0
  1 30  1  0
  2  3  2  0
  2  4  1  0
  4  5  2  3
  4 31  1  0
  6  5  1  1
  5 32  1  0
  6 18  1  0
  6 24  1  0
  6  7  1  0
  7  8  2  0
  7  9  1  0
  9 25  1  0
  9 10  1  6
  9 13  1  0
 10 11  1  0
 10 12  2  0
 11 33  1  0
 11 34  1  0
 11 35  1  0
 13 14  1  0
 13 36  1  0
 13 37  1  0
 14 24  1  0
 14 15  2  0
 15 16  1  0
 15 38  1  0
 16 17  2  0
 16 18  1  0
 18 19  1  0
 18 39  1  6
 19 20  1  0
 19 21  1  0
 19 40  1  6
 20 41  1  0
 20 42  1  0
 20 43  1  0
 21 22  2  0
 21 23  1  0
 23 24  2  0
 23 25  1  0
 25 26  1  0
 25 27  1  0
 26 44  1  0
 26 45  1  0
 26 46  1  0
 27 47  1  0
 27 48  1  0
 27 49  1  0
M  END
>  <i_m_ct_stereo_status>  (112) 
1

>  <s_m_source_file>  (112) 
/var/tmp/pbs.5076255.sched01/tmpy176o0g7/39stoh4b52.sdf

>  <i_m_source_file_index>  (112) 
12

>  <i_lp_mmshare_version>  (112) 
48012

>  <i_f3d_flags>  (112) 
0

>  <s_epik_input>  (112) 
W0NIM11DKD1PKS9bQ0hdPVtDSF1cQzEyW0NASF0zQyg9TylbQ0hdPUM0QzI9QyhDKD1PKVtDQEBIXTNbQ0gzXSlDKFtDSDNdKShbQ0gzXSlbQ0BdKEMxPU8pKFtDSDJdNClDKD1PKVtDSDNd

>  <s_epik_cmdline>  (112) 
J2VwaWtfcHl0aG9uJywgJy1waHQnLCAnMi4wJywgJy1waCcsICc3LjAnLCAnLXRuJywgJzgnLCAnLW1hJywgJzIwMCcsICctaW1hZScsICc8aW5maWxlLm1hZT4nLCAnLW9tYWUnLCAnPG91dGZpbGUubWFlPic=

>  <r_lp_tautomer_probability>  (112) 
1

>  <r_epik_Ionization_Penalty>  (112) 
1.06925e-09

>  <r_epik_Ionization_Penalty_Charging>  (112) 
0

>  <r_epik_Ionization_Penalty_Neutral>  (112) 
1.06925e-09

>  <r_epik_State_Penalty>  (112) 
-0

>  <r_epik_Charging_Adjusted_Penalty>  (112) 
0

>  <i_epik_Tot_Q>  (112) 
0

>  <i_epik_Tot_abs_Q>  (112) 
0

>  <s_lp_Force_Field>  (112) 
OPLS3e

>  <r_lp_Energy>  (112) 
279.708

>  <b_lp_Chiralities_Consistent>  (112) 
1

>  <s_lp_Variant>  (112) 
39:0-3

>  <s_i_glide_gridfile>  (112) 
pfpi4k_grid

>  <i_i_glide_lignum>  (112) 
12

>  <i_i_glide_rotatable_bonds>  (112) 
3

>  <r_i_docking_score>  (112) 
-3.35301

>  <r_i_glide_ligand_efficiency>  (112) 
-0.124185

>  <r_i_glide_ligand_efficiency_sa>  (112) 
-0.372556

>  <r_i_glide_ligand_efficiency_ln>  (112) 
-0.780524

>  <r_i_glide_gscore>  (112) 
-3.35301

>  <r_i_glide_lipo>  (112) 
-0.699662

>  <r_i_glide_hbond>  (112) 
0

>  <r_i_glide_metal>  (112) 
-0

>  <r_i_glide_rewards>  (112) 
-1.12214

>  <r_i_glide_evdw>  (112) 
-28.6614

>  <r_i_glide_ecoul>  (112) 
-2.16836

>  <r_i_glide_erotb>  (112) 
0.286726

>  <r_i_glide_esite>  (112) 
-0.0596085

>  <r_i_glide_emodel>  (112) 
-36.6889

>  <r_i_glide_energy>  (112) 
-30.8297

>  <r_i_glide_einternal>  (112) 
1.75377

>  <r_i_glide_intrahb_reward>  (112) 
-0

>  <i_i_glide_confnum>  (112) 
2

>  <i_i_glide_posenum>  (112) 
24

>  <r_i_glide_eff_state_penalty>  (112) 
0

>  <ligand_id>  (112) 
39

>  <original_smiles>  (112) 
CC(=O)C=CC12C(=O)C3(C(C)=O)CC4=CC(=O)C1C(C)C(=O)C(=C42)C3(C)C

>  <smiles>  (112) 
[H]C1=C2C3=C4C(=O)C([H])(C([H])([H])[H])C([H])(C1=O)C3(C([H])=C([H])C(=O)C([H])([H])[H])C(=O)C(C(=O)C([H])([H])[H])(C2([H])[H])C4(C([H])([H])[H])C([H])([H])[H]

$$$$
39:2:1
     RDKit          3D

 49 52  0  0  1  0  0  0  0  0999 V2000
   -3.8922    3.3400    2.4083 C   0  0  0  0  0  0  0  0  0  0  0  0
   -2.6121    3.0128    3.1900 C   0  0  0  0  0  0  0  0  0  0  0  0
   -2.3838    3.6240    4.2286 O   0  0  0  0  0  0  0  0  0  0  0  0
   -1.7737    1.9425    2.6379 C   0  0  0  0  0  0  0  0  0  0  0  0
   -0.6812    1.3974    3.2424 C   0  0  0  0  0  0  0  0  0  0  0  0
   -0.0566    1.7191    4.6033 C   0  0  2  0  0  0  0  0  0  0  0  0
   -0.6404    0.5599    5.5466 C   0  0  0  0  0  0  0  0  0  0  0  0
   -1.7931    0.5914    6.0023 O   0  0  0  0  0  0  0  0  0  0  0  0
    0.4617   -0.5767    5.9383 C   0  0  2  0  0  0  0  0  0  0  0  0
   -0.1637   -1.9052    6.4018 C   0  0  0  0  0  0  0  0  0  0  0  0
    0.6271   -2.8217    7.3548 C   0  0  0  0  0  0  0  0  0  0  0  0
   -1.2859   -2.2504    6.0120 O   0  0  0  0  0  0  0  0  0  0  0  0
    1.2218    0.2040    7.1272 C   0  0  0  0  0  0  0  0  0  0  0  0
    1.5629    1.5638    6.5086 C   0  0  0  0  0  0  0  0  0  0  0  0
    1.2817    2.8002    7.0051 C   0  0  0  0  0  0  0  0  0  0  0  0
    0.8282    3.8370    5.9764 C   0  0  0  0  0  0  0  0  0  0  0  0
    0.7176    5.0379    6.2210 O   0  0  0  0  0  0  0  0  0  0  0  0
    0.4316    3.2390    4.5499 C   0  0  1  0  0  0  0  0  0  0  0  0
    1.5876    3.1464    3.3282 C   0  0  1  0  0  0  0  0  0  0  0  0
    2.6558    4.2472    3.3944 C   0  0  0  0  0  0  0  0  0  0  0  0
    2.2267    1.6353    3.1427 C   0  0  0  0  0  0  0  0  0  0  0  0
    2.7213    1.2857    2.0734 O   0  0  0  0  0  0  0  0  0  0  0  0
    2.1221    0.7051    4.3504 C   0  0  0  0  0  0  0  0  0  0  0  0
    1.4142    1.4793    5.0821 C   0  0  0  0  0  0  0  0  0  0  0  0
    1.5563   -0.7335    4.6654 C   0  0  0  0  0  0  0  0  0  0  0  0
    2.7995   -1.5739    5.0483 C   0  0  0  0  0  0  0  0  0  0  0  0
    0.9142   -1.4536    3.4523 C   0  0  0  0  0  0  0  0  0  0  0  0
   -3.7175    3.5364    1.3444 H   0  0  0  0  0  0  0  0  0  0  0  0
   -4.4098    4.2048    2.8281 H   0  0  0  0  0  0  0  0  0  0  0  0
   -4.5838    2.5011    2.4522 H   0  0  0  0  0  0  0  0  0  0  0  0
   -2.0456    1.5548    1.6737 H   0  0  0  0  0  0  0  0  0  0  0  0
   -0.2037    0.6572    2.6350 H   0  0  0  0  0  0  0  0  0  0  0  0
    1.6170   -3.0573    6.9599 H   0  0  0  0  0  0  0  0  0  0  0  0
    0.0874   -3.7612    7.4850 H   0  0  0  0  0  0  0  0  0  0  0  0
    0.7463   -2.3602    8.3376 H   0  0  0  0  0  0  0  0  0  0  0  0
    0.5567    0.3625    7.9876 H   0  0  0  0  0  0  0  0  0  0  0  0
    2.1260   -0.2980    7.4892 H   0  0  0  0  0  0  0  0  0  0  0  0
    1.0790    2.9798    8.0457 H   0  0  0  0  0  0  0  0  0  0  0  0
   -0.2962    3.9211    4.1487 H   0  0  0  0  0  0  0  0  0  0  0  0
    1.0259    3.3099    2.4245 H   0  0  0  0  0  0  0  0  0  0  0  0
    3.2458    4.2667    2.4776 H   0  0  0  0  0  0  0  0  0  0  0  0
    3.3215    4.1082    4.2563 H   0  0  0  0  0  0  0  0  0  0  0  0
    2.1549    5.2151    3.4948 H   0  0  0  0  0  0  0  0  0  0  0  0
    2.5269   -2.5932    5.3210 H   0  0  0  0  0  0  0  0  0  0  0  0
    3.3532   -1.1210    5.8672 H   0  0  0  0  0  0  0  0  0  0  0  0
    3.4834   -1.6248    4.1944 H   0  0  0  0  0  0  0  0  0  0  0  0
    1.0273   -2.5422    3.5426 H   0  0  0  0  0  0  0  0  0  0  0  0
    1.3874   -1.1570    2.5159 H   0  0  0  0  0  0  0  0  0  0  0  0
   -0.1590   -1.2729    3.3847 H   0  0  0  0  0  0  0  0  0  0  0  0
  1  2  1  0
  1 28  1  0
  1 29  1  0
  1 30  1  0
  2  3  2  0
  2  4  1  0
  4  5  2  3
  4 31  1  0
  6  5  1  6
  5 32  1  0
  6 18  1  0
  6 24  1  0
  6  7  1  0
  7  8  2  0
  7  9  1  0
  9 25  1  0
  9 10  1  1
  9 13  1  0
 10 11  1  0
 10 12  2  0
 11 33  1  0
 11 34  1  0
 11 35  1  0
 13 14  1  0
 13 36  1  0
 13 37  1  0
 14 24  1  0
 14 15  2  0
 15 16  1  0
 15 38  1  0
 16 17  2  0
 16 18  1  0
 18 19  1  0
 18 39  1  6
 19 20  1  0
 19 21  1  0
 19 40  1  6
 20 41  1  0
 20 42  1  0
 20 43  1  0
 21 22  2  0
 21 23  1  0
 23 24  2  0
 23 25  1  0
 25 26  1  0
 25 27  1  0
 26 44  1  0
 26 45  1  0
 26 46  1  0
 27 47  1  0
 27 48  1  0
 27 49  1  0
M  END
>  <i_m_ct_stereo_status>  (113) 
1

>  <s_m_source_file>  (113) 
/var/tmp/pbs.5076255.sched01/tmpy176o0g7/39stoh4b52.sdf

>  <i_m_source_file_index>  (113) 
12

>  <i_lp_mmshare_version>  (113) 
48012

>  <i_f3d_flags>  (113) 
0

>  <s_epik_input>  (113) 
W0NIM11DKD1PKS9bQ0hdPVtDSF1cQzEyW0NASF0zQyg9TylbQ0hdPUM0QzI9QyhDKD1PKVtDQEBIXTNbQ0gzXSlDKFtDSDNdKShbQ0gzXSlbQ0BdKEMxPU8pKFtDSDJdNClDKD1PKVtDSDNd

>  <s_epik_cmdline>  (113) 
J2VwaWtfcHl0aG9uJywgJy1waHQnLCAnMi4wJywgJy1waCcsICc3LjAnLCAnLXRuJywgJzgnLCAnLW1hJywgJzIwMCcsICctaW1hZScsICc8aW5maWxlLm1hZT4nLCAnLW9tYWUnLCAnPG91dGZpbGUubWFlPic=

>  <r_lp_tautomer_probability>  (113) 
1

>  <r_epik_Ionization_Penalty>  (113) 
1.06925e-09

>  <r_epik_Ionization_Penalty_Charging>  (113) 
0

>  <r_epik_Ionization_Penalty_Neutral>  (113) 
1.06925e-09

>  <r_epik_State_Penalty>  (113) 
-0

>  <r_epik_Charging_Adjusted_Penalty>  (113) 
0

>  <i_epik_Tot_Q>  (113) 
0

>  <i_epik_Tot_abs_Q>  (113) 
0

>  <s_lp_Force_Field>  (113) 
OPLS3e

>  <r_lp_Energy>  (113) 
279.708

>  <b_lp_Chiralities_Consistent>  (113) 
1

>  <s_lp_Variant>  (113) 
39:0-3

>  <s_i_glide_gridfile>  (113) 
pfpi4k_grid

>  <i_i_glide_lignum>  (113) 
12

>  <i_i_glide_rotatable_bonds>  (113) 
3

>  <r_i_docking_score>  (113) 
-2.94749

>  <r_i_glide_ligand_efficiency>  (113) 
-0.109166

>  <r_i_glide_ligand_efficiency_sa>  (113) 
-0.327499

>  <r_i_glide_ligand_efficiency_ln>  (113) 
-0.686127

>  <r_i_glide_gscore>  (113) 
-2.94749

>  <r_i_glide_lipo>  (113) 
-0.173407

>  <r_i_glide_hbond>  (113) 
-0.0442437

>  <r_i_glide_metal>  (113) 
-0

>  <r_i_glide_rewards>  (113) 
-0.910861

>  <r_i_glide_evdw>  (113) 
-24.1963

>  <r_i_glide_ecoul>  (113) 
-5.25802

>  <r_i_glide_erotb>  (113) 
0.286726

>  <r_i_glide_esite>  (113) 
-0.107186

>  <r_i_glide_emodel>  (113) 
-32.9444

>  <r_i_glide_energy>  (113) 
-29.4544

>  <r_i_glide_einternal>  (113) 
2.15404

>  <r_i_glide_intrahb_reward>  (113) 
-0

>  <i_i_glide_confnum>  (113) 
4

>  <i_i_glide_posenum>  (113) 
14

>  <r_i_glide_eff_state_penalty>  (113) 
0

>  <ligand_id>  (113) 
39

>  <original_smiles>  (113) 
CC(=O)C=CC12C(=O)C3(C(C)=O)CC4=CC(=O)C1C(C)C(=O)C(=C42)C3(C)C

>  <smiles>  (113) 
[H]C1=C2C3=C4C(=O)C([H])(C([H])([H])[H])C([H])(C1=O)C3(C([H])=C([H])C(=O)C([H])([H])[H])C(=O)C(C(=O)C([H])([H])[H])(C2([H])[H])C4(C([H])([H])[H])C([H])([H])[H]

$$$$
39:2:2
     RDKit          3D

 49 52  0  0  1  0  0  0  0  0999 V2000
   -2.4781    3.0574    5.0464 C   0  0  0  0  0  0  0  0  0  0  0  0
   -2.5358    2.7850    3.5118 C   0  0  0  0  0  0  0  0  0  0  0  0
   -3.3640    3.3842    2.8392 O   0  0  0  0  0  0  0  0  0  0  0  0
   -1.6586    1.7893    2.8266 C   0  0  0  0  0  0  0  0  0  0  0  0
   -0.5287    1.2346    3.3092 C   0  0  0  0  0  0  0  0  0  0  0  0
    0.1408    1.4797    4.6824 C   0  0  2  0  0  0  0  0  0  0  0  0
   -0.3947    0.2486    5.5807 C   0  0  0  0  0  0  0  0  0  0  0  0
   -1.5263    0.2594    6.0867 O   0  0  0  0  0  0  0  0  0  0  0  0
    0.7029   -0.8846    5.8840 C   0  0  2  0  0  0  0  0  0  0  0  0
    0.0422   -2.2459    6.3308 C   0  0  0  0  0  0  0  0  0  0  0  0
    0.8710   -3.2584    7.1192 C   0  0  0  0  0  0  0  0  0  0  0  0
   -1.1309   -2.4905    6.0554 O   0  0  0  0  0  0  0  0  0  0  0  0
    1.4773   -0.1610    7.1035 C   0  0  0  0  0  0  0  0  0  0  0  0
    1.8169    1.2246    6.5384 C   0  0  0  0  0  0  0  0  0  0  0  0
    1.5563    2.4450    7.0984 C   0  0  0  0  0  0  0  0  0  0  0  0
    1.1181    3.5082    6.1085 C   0  0  0  0  0  0  0  0  0  0  0  0
    0.9789    4.7061    6.4019 O   0  0  0  0  0  0  0  0  0  0  0  0
    0.7048    2.9764    4.6712 C   0  0  1  0  0  0  0  0  0  0  0  0
    1.7963    2.9397    3.4457 C   0  0  1  0  0  0  0  0  0  0  0  0
    2.8625    4.0576    3.5349 C   0  0  0  0  0  0  0  0  0  0  0  0
    2.4009    1.4712    3.1502 C   0  0  0  0  0  0  0  0  0  0  0  0
    2.8707    1.1410    2.0557 O   0  0  0  0  0  0  0  0  0  0  0  0
    2.2870    0.4665    4.3207 C   0  0  0  0  0  0  0  0  0  0  0  0
    1.5917    1.2151    5.1097 C   0  0  0  0  0  0  0  0  0  0  0  0
    1.7379   -0.9731    4.5784 C   0  0  0  0  0  0  0  0  0  0  0  0
    2.9880   -1.8446    4.8598 C   0  0  0  0  0  0  0  0  0  0  0  0
    1.0422   -1.6213    3.3511 C   0  0  0  0  0  0  0  0  0  0  0  0
   -2.7512    2.1281    5.5679 H   0  0  0  0  0  0  0  0  0  0  0  0
   -3.2551    3.7824    5.3288 H   0  0  0  0  0  0  0  0  0  0  0  0
   -1.5433    3.4386    5.4059 H   0  0  0  0  0  0  0  0  0  0  0  0
   -1.9464    1.4592    1.8313 H   0  0  0  0  0  0  0  0  0  0  0  0
   -0.0292    0.5614    2.6344 H   0  0  0  0  0  0  0  0  0  0  0  0
    1.7862   -3.5441    6.6233 H   0  0  0  0  0  0  0  0  0  0  0  0
    0.2692   -4.1740    7.2246 H   0  0  0  0  0  0  0  0  0  0  0  0
    1.1087   -2.8643    8.1217 H   0  0  0  0  0  0  0  0  0  0  0  0
    0.8296   -0.0351    7.9710 H   0  0  0  0  0  0  0  0  0  0  0  0
    2.3764   -0.6857    7.4143 H   0  0  0  0  0  0  0  0  0  0  0  0
    1.3763    2.5817    8.1528 H   0  0  0  0  0  0  0  0  0  0  0  0
    0.0021    3.7080    4.2670 H   0  0  0  0  0  0  0  0  0  0  0  0
    1.2141    3.1780    2.5388 H   0  0  0  0  0  0  0  0  0  0  0  0
    3.4265    4.1280    2.6077 H   0  0  0  0  0  0  0  0  0  0  0  0
    3.5328    3.8559    4.3715 H   0  0  0  0  0  0  0  0  0  0  0  0
    2.3692    5.0080    3.7039 H   0  0  0  0  0  0  0  0  0  0  0  0
    2.7349   -2.8756    5.0342 H   0  0  0  0  0  0  0  0  0  0  0  0
    3.5535   -1.4337    5.7173 H   0  0  0  0  0  0  0  0  0  0  0  0
    3.6512   -1.8162    3.9891 H   0  0  0  0  0  0  0  0  0  0  0  0
    1.1139   -2.6990    3.3847 H   0  0  0  0  0  0  0  0  0  0  0  0
    1.4881   -1.2816    2.4211 H   0  0  0  0  0  0  0  0  0  0  0  0
   -0.0297   -1.4235    3.3215 H   0  0  0  0  0  0  0  0  0  0  0  0
  1  2  1  0
  1 28  1  0
  1 29  1  0
  1 30  1  0
  2  3  2  0
  2  4  1  0
  4  5  2  3
  4 31  1  0
  6  5  1  6
  5 32  1  0
  6 18  1  0
  6 24  1  0
  6  7  1  0
  7  8  2  0
  7  9  1  0
  9 25  1  0
  9 10  1  1
  9 13  1  0
 10 11  1  0
 10 12  2  0
 11 33  1  0
 11 34  1  0
 11 35  1  0
 13 14  1  0
 13 36  1  0
 13 37  1  0
 14 24  1  0
 14 15  2  0
 15 16  1  0
 15 38  1  0
 16 17  2  0
 16 18  1  0
 18 19  1  0
 18 39  1  6
 19 20  1  0
 19 21  1  0
 19 40  1  6
 20 41  1  0
 20 42  1  0
 20 43  1  0
 21 22  2  0
 21 23  1  0
 23 24  2  0
 23 25  1  0
 25 26  1  0
 25 27  1  0
 26 44  1  0
 26 45  1  0
 26 46  1  0
 27 47  1  0
 27 48  1  0
 27 49  1  0
M  END
>  <i_m_ct_stereo_status>  (114) 
1

>  <s_m_source_file>  (114) 
/var/tmp/pbs.5076255.sched01/tmpy176o0g7/39stoh4b52.sdf

>  <i_m_source_file_index>  (114) 
12

>  <i_lp_mmshare_version>  (114) 
48012

>  <i_f3d_flags>  (114) 
0

>  <s_epik_input>  (114) 
W0NIM11DKD1PKS9bQ0hdPVtDSF1cQzEyW0NASF0zQyg9TylbQ0hdPUM0QzI9QyhDKD1PKVtDQEBIXTNbQ0gzXSlDKFtDSDNdKShbQ0gzXSlbQ0BdKEMxPU8pKFtDSDJdNClDKD1PKVtDSDNd

>  <s_epik_cmdline>  (114) 
J2VwaWtfcHl0aG9uJywgJy1waHQnLCAnMi4wJywgJy1waCcsICc3LjAnLCAnLXRuJywgJzgnLCAnLW1hJywgJzIwMCcsICctaW1hZScsICc8aW5maWxlLm1hZT4nLCAnLW9tYWUnLCAnPG91dGZpbGUubWFlPic=

>  <r_lp_tautomer_probability>  (114) 
1

>  <r_epik_Ionization_Penalty>  (114) 
1.06925e-09

>  <r_epik_Ionization_Penalty_Charging>  (114) 
0

>  <r_epik_Ionization_Penalty_Neutral>  (114) 
1.06925e-09

>  <r_epik_State_Penalty>  (114) 
-0

>  <r_epik_Charging_Adjusted_Penalty>  (114) 
0

>  <i_epik_Tot_Q>  (114) 
0

>  <i_epik_Tot_abs_Q>  (114) 
0

>  <s_lp_Force_Field>  (114) 
OPLS3e

>  <r_lp_Energy>  (114) 
279.708

>  <b_lp_Chiralities_Consistent>  (114) 
1

>  <s_lp_Variant>  (114) 
39:0-3

>  <s_i_glide_gridfile>  (114) 
pfpi4k_grid

>  <i_i_glide_lignum>  (114) 
12

>  <i_i_glide_rotatable_bonds>  (114) 
3

>  <r_i_docking_score>  (114) 
-2.64295

>  <r_i_glide_ligand_efficiency>  (114) 
-0.0978871

>  <r_i_glide_ligand_efficiency_sa>  (114) 
-0.293661

>  <r_i_glide_ligand_efficiency_ln>  (114) 
-0.615236

>  <r_i_glide_gscore>  (114) 
-2.64295

>  <r_i_glide_lipo>  (114) 
0

>  <r_i_glide_hbond>  (114) 
-0.0883728

>  <r_i_glide_metal>  (114) 
-0

>  <r_i_glide_rewards>  (114) 
-0.910861

>  <r_i_glide_evdw>  (114) 
-23.5987

>  <r_i_glide_ecoul>  (114) 
-4.35195

>  <r_i_glide_erotb>  (114) 
0.286726

>  <r_i_glide_esite>  (114) 
-0.0977163

>  <r_i_glide_emodel>  (114) 
-31.4127

>  <r_i_glide_energy>  (114) 
-27.9506

>  <r_i_glide_einternal>  (114) 
1.08526

>  <r_i_glide_intrahb_reward>  (114) 
-0

>  <i_i_glide_confnum>  (114) 
4

>  <i_i_glide_posenum>  (114) 
3

>  <r_i_glide_eff_state_penalty>  (114) 
0

>  <ligand_id>  (114) 
39

>  <original_smiles>  (114) 
CC(=O)C=CC12C(=O)C3(C(C)=O)CC4=CC(=O)C1C(C)C(=O)C(=C42)C3(C)C

>  <smiles>  (114) 
[H]C1=C2C3=C4C(=O)C([H])(C([H])([H])[H])C([H])(C1=O)C3(C([H])=C([H])C(=O)C([H])([H])[H])C(=O)C(C(=O)C([H])([H])[H])(C2([H])[H])C4(C([H])([H])[H])C([H])([H])[H]

$$$$
39:3:0
     RDKit          3D

 49 52  0  0  1  0  0  0  0  0999 V2000
    2.5611   -3.0564   -3.8588 C   0  0  0  0  0  0  0  0  0  0  0  0
    3.4834   -2.8325   -2.6744 C   0  0  0  0  0  0  0  0  0  0  0  0
    4.6415   -2.4606   -2.8695 O   0  0  0  0  0  0  0  0  0  0  0  0
    2.9162   -3.0993   -1.3464 C   0  0  0  0  0  0  0  0  0  0  0  0
    3.6974   -3.3622   -0.2870 C   0  0  0  0  0  0  0  0  0  0  0  0
    3.1283   -3.6373    1.1224 C   0  0  2  0  0  0  0  0  0  0  0  0
    2.8230   -5.1922    1.0749 C   0  0  0  0  0  0  0  0  0  0  0  0
    1.8300   -5.6560    0.5095 O   0  0  0  0  0  0  0  0  0  0  0  0
    3.8852   -6.0464    1.9375 C   0  0  2  0  0  0  0  0  0  0  0  0
    3.9201   -7.5381    1.5151 C   0  0  0  0  0  0  0  0  0  0  0  0
    2.7386   -8.4503    1.8518 C   0  0  0  0  0  0  0  0  0  0  0  0
    4.8750   -8.0160    0.9081 O   0  0  0  0  0  0  0  0  0  0  0  0
    3.2788   -5.8300    3.4093 C   0  0  0  0  0  0  0  0  0  0  0  0
    3.1212   -4.3156    3.5177 C   0  0  0  0  0  0  0  0  0  0  0  0
    1.9869   -3.6310    3.8204 C   0  0  0  0  0  0  0  0  0  0  0  0
    1.7325   -2.3809    3.0025 C   0  0  0  0  0  0  0  0  0  0  0  0
    0.9094   -1.5162    3.3004 O   0  0  0  0  0  0  0  0  0  0  0  0
    2.6139   -2.2553    1.6749 C   0  0  1  0  0  0  0  0  0  0  0  0
    4.0449   -1.3922    1.7333 C   0  0  1  0  0  0  0  0  0  0  0  0
    4.0619   -0.2583    2.7666 C   0  0  0  0  0  0  0  0  0  0  0  0
    5.3729   -2.3540    1.8533 C   0  0  0  0  0  0  0  0  0  0  0  0
    6.4638   -1.9184    1.4973 O   0  0  0  0  0  0  0  0  0  0  0  0
    5.1573   -3.7696    2.4040 C   0  0  0  0  0  0  0  0  0  0  0  0
    3.8844   -3.6898    2.4816 C   0  0  0  0  0  0  0  0  0  0  0  0
    5.3716   -5.2554    1.8992 C   0  0  0  0  0  0  0  0  0  0  0  0
    6.3570   -5.8961    2.9044 C   0  0  0  0  0  0  0  0  0  0  0  0
    6.0634   -5.3408    0.5100 C   0  0  0  0  0  0  0  0  0  0  0  0
    1.6897   -2.4043   -3.7817 H   0  0  0  0  0  0  0  0  0  0  0  0
    2.2191   -4.0929   -3.8765 H   0  0  0  0  0  0  0  0  0  0  0  0
    3.0809   -2.8401   -4.7886 H   0  0  0  0  0  0  0  0  0  0  0  0
    1.8401   -3.0826   -1.2385 H   0  0  0  0  0  0  0  0  0  0  0  0
    4.7648   -3.3589   -0.4422 H   0  0  0  0  0  0  0  0  0  0  0  0
    2.4987   -8.4145    2.9143 H   0  0  0  0  0  0  0  0  0  0  0  0
    3.0061   -9.4805    1.6127 H   0  0  0  0  0  0  0  0  0  0  0  0
    1.8580   -8.1849    1.2656 H   0  0  0  0  0  0  0  0  0  0  0  0
    2.2880   -6.2757    3.5077 H   0  0  0  0  0  0  0  0  0  0  0  0
    3.9024   -6.2275    4.2113 H   0  0  0  0  0  0  0  0  0  0  0  0
    1.1681   -4.0643    4.3755 H   0  0  0  0  0  0  0  0  0  0  0  0
    1.9713   -1.7829    0.9294 H   0  0  0  0  0  0  0  0  0  0  0  0
    4.1480   -0.9154    0.7593 H   0  0  0  0  0  0  0  0  0  0  0  0
    4.9416    0.3723    2.6305 H   0  0  0  0  0  0  0  0  0  0  0  0
    4.0780   -0.6381    3.7919 H   0  0  0  0  0  0  0  0  0  0  0  0
    3.1836    0.3806    2.6475 H   0  0  0  0  0  0  0  0  0  0  0  0
    6.5057   -6.9597    2.7192 H   0  0  0  0  0  0  0  0  0  0  0  0
    6.0197   -5.7908    3.9364 H   0  0  0  0  0  0  0  0  0  0  0  0
    7.3358   -5.4187    2.8494 H   0  0  0  0  0  0  0  0  0  0  0  0
    6.6674   -6.2454    0.4282 H   0  0  0  0  0  0  0  0  0  0  0  0
    6.7357   -4.5011    0.3277 H   0  0  0  0  0  0  0  0  0  0  0  0
    5.3480   -5.4113   -0.3093 H   0  0  0  0  0  0  0  0  0  0  0  0
  1  2  1  0
  1 28  1  0
  1 29  1  0
  1 30  1  0
  2  3  2  0
  2  4  1  0
  4  5  2  3
  4 31  1  0
  6  5  1  6
  5 32  1  0
  6 18  1  0
  6 24  1  0
  6  7  1  0
  7  8  2  0
  7  9  1  0
  9 25  1  0
  9 10  1  6
  9 13  1  0
 10 11  1  0
 10 12  2  0
 11 33  1  0
 11 34  1  0
 11 35  1  0
 13 14  1  0
 13 36  1  0
 13 37  1  0
 14 24  1  0
 14 15  2  0
 15 16  1  0
 15 38  1  0
 16 17  2  0
 16 18  1  0
 18 19  1  0
 18 39  1  6
 19 20  1  0
 19 21  1  0
 19 40  1  6
 20 41  1  0
 20 42  1  0
 20 43  1  0
 21 22  2  0
 21 23  1  0
 23 24  2  0
 23 25  1  0
 25 26  1  0
 25 27  1  0
 26 44  1  0
 26 45  1  0
 26 46  1  0
 27 47  1  0
 27 48  1  0
 27 49  1  0
M  END
>  <i_m_ct_stereo_status>  (115) 
1

>  <s_m_source_file>  (115) 
/var/tmp/pbs.5076255.sched01/tmpy176o0g7/39stoh4b52.sdf

>  <i_m_source_file_index>  (115) 
13

>  <i_lp_mmshare_version>  (115) 
48012

>  <i_f3d_flags>  (115) 
0

>  <s_epik_input>  (115) 
W0NIM11DKD1PKS9bQ0hdPVtDSF1cQzEyW0NASF0zQyg9TylbQ0hdPUM0QzI9QyhDKD1PKVtDQEBIXTNbQ0gzXSlDKFtDSDNdKShbQ0gzXSlbQ0BdKEMxPU8pKFtDSDJdNClDKD1PKVtDSDNd

>  <s_epik_cmdline>  (115) 
J2VwaWtfcHl0aG9uJywgJy1waHQnLCAnMi4wJywgJy1waCcsICc3LjAnLCAnLXRuJywgJzgnLCAnLW1hJywgJzIwMCcsICctaW1hZScsICc8aW5maWxlLm1hZT4nLCAnLW9tYWUnLCAnPG91dGZpbGUubWFlPic=

>  <r_lp_tautomer_probability>  (115) 
1

>  <r_epik_Ionization_Penalty>  (115) 
1.06925e-09

>  <r_epik_Ionization_Penalty_Charging>  (115) 
0

>  <r_epik_Ionization_Penalty_Neutral>  (115) 
1.06925e-09

>  <r_epik_State_Penalty>  (115) 
-0

>  <r_epik_Charging_Adjusted_Penalty>  (115) 
0

>  <i_epik_Tot_Q>  (115) 
0

>  <i_epik_Tot_abs_Q>  (115) 
0

>  <s_lp_Force_Field>  (115) 
OPLS3e

>  <r_lp_Energy>  (115) 
277.117

>  <b_lp_Chiralities_Consistent>  (115) 
1

>  <s_lp_Variant>  (115) 
39:0-4

>  <s_i_glide_gridfile>  (115) 
pfpi4k_grid

>  <i_i_glide_lignum>  (115) 
13

>  <i_i_glide_rotatable_bonds>  (115) 
3

>  <r_i_docking_score>  (115) 
-3.42188

>  <r_i_glide_ligand_efficiency>  (115) 
-0.126736

>  <r_i_glide_ligand_efficiency_sa>  (115) 
-0.380208

>  <r_i_glide_ligand_efficiency_ln>  (115) 
-0.796556

>  <r_i_glide_gscore>  (115) 
-3.42188

>  <r_i_glide_lipo>  (115) 
-0.486042

>  <r_i_glide_hbond>  (115) 
-0.0839327

>  <r_i_glide_metal>  (115) 
-0

>  <r_i_glide_rewards>  (115) 
-1.06009

>  <r_i_glide_evdw>  (115) 
-28.7819

>  <r_i_glide_ecoul>  (115) 
-3.99183

>  <r_i_glide_erotb>  (115) 
0.286726

>  <r_i_glide_esite>  (115) 
-0.0406642

>  <r_i_glide_emodel>  (115) 
-38.9962

>  <r_i_glide_energy>  (115) 
-32.7738

>  <r_i_glide_einternal>  (115) 
1.57349

>  <r_i_glide_intrahb_reward>  (115) 
-0

>  <i_i_glide_confnum>  (115) 
2

>  <i_i_glide_posenum>  (115) 
39

>  <r_i_glide_eff_state_penalty>  (115) 
0

>  <ligand_id>  (115) 
39

>  <original_smiles>  (115) 
CC(=O)C=CC12C(=O)C3(C(C)=O)CC4=CC(=O)C1C(C)C(=O)C(=C42)C3(C)C

>  <smiles>  (115) 
[H]C1=C2C3=C4C(=O)C([H])(C([H])([H])[H])C([H])(C1=O)C3(C([H])=C([H])C(=O)C([H])([H])[H])C(=O)C(C(=O)C([H])([H])[H])(C2([H])[H])C4(C([H])([H])[H])C([H])([H])[H]

$$$$
39:3:1
     RDKit          3D

 49 52  0  0  1  0  0  0  0  0999 V2000
    2.6147   -2.3938   -3.7736 C   0  0  0  0  0  0  0  0  0  0  0  0
    3.5096   -3.0310   -2.7409 C   0  0  0  0  0  0  0  0  0  0  0  0
    4.6332   -3.4237   -3.0602 O   0  0  0  0  0  0  0  0  0  0  0  0
    2.9392   -3.1355   -1.3882 C   0  0  0  0  0  0  0  0  0  0  0  0
    3.6346   -3.7099   -0.3871 C   0  0  0  0  0  0  0  0  0  0  0  0
    3.0829   -3.8379    1.0596 C   0  0  2  0  0  0  0  0  0  0  0  0
    2.6800   -5.3757    1.1552 C   0  0  0  0  0  0  0  0  0  0  0  0
    1.6129   -5.7741    0.6556 O   0  0  0  0  0  0  0  0  0  0  0  0
    3.7170   -6.2402    2.0695 C   0  0  2  0  0  0  0  0  0  0  0  0
    3.5744   -7.7849    1.7873 C   0  0  0  0  0  0  0  0  0  0  0  0
    4.7580   -8.7381    2.0307 C   0  0  0  0  0  0  0  0  0  0  0  0
    2.5042   -8.2717    1.4366 O   0  0  0  0  0  0  0  0  0  0  0  0
    3.1516   -5.8599    3.5211 C   0  0  0  0  0  0  0  0  0  0  0  0
    3.0920   -4.3264    3.4938 C   0  0  0  0  0  0  0  0  0  0  0  0
    2.0276   -3.5340    3.7913 C   0  0  0  0  0  0  0  0  0  0  0  0
    1.8356   -2.3328    2.8795 C   0  0  0  0  0  0  0  0  0  0  0  0
    1.0656   -1.3902    3.1124 O   0  0  0  0  0  0  0  0  0  0  0  0
    2.6846   -2.3821    1.5295 C   0  0  1  0  0  0  0  0  0  0  0  0
    4.1850   -1.6400    1.4559 C   0  0  1  0  0  0  0  0  0  0  0  0
    4.3205   -0.4142    2.3733 C   0  0  0  0  0  0  0  0  0  0  0  0
    5.4385   -2.6903    1.6137 C   0  0  0  0  0  0  0  0  0  0  0  0
    6.5518   -2.3746    1.1899 O   0  0  0  0  0  0  0  0  0  0  0  0
    5.1262   -4.0333    2.2886 C   0  0  0  0  0  0  0  0  0  0  0  0
    3.8672   -3.8446    2.3900 C   0  0  0  0  0  0  0  0  0  0  0  0
    5.2595   -5.5597    1.9563 C   0  0  0  0  0  0  0  0  0  0  0  0
    6.2799   -6.0749    3.0378 C   0  0  0  0  0  0  0  0  0  0  0  0
    5.8957   -5.8558    0.5721 C   0  0  0  0  0  0  0  0  0  0  0  0
    2.4123   -1.3663   -3.4710 H   0  0  0  0  0  0  0  0  0  0  0  0
    1.6687   -2.9385   -3.8291 H   0  0  0  0  0  0  0  0  0  0  0  0
    3.1030   -2.4047   -4.7456 H   0  0  0  0  0  0  0  0  0  0  0  0
    1.9445   -2.7281   -1.2475 H   0  0  0  0  0  0  0  0  0  0  0  0
    4.6224   -4.0754   -0.6024 H   0  0  0  0  0  0  0  0  0  0  0  0
    5.6555   -8.3947    1.4962 H   0  0  0  0  0  0  0  0  0  0  0  0
    4.5367   -9.7412    1.7116 H   0  0  0  0  0  0  0  0  0  0  0  0
    4.9901   -8.7555    3.1076 H   0  0  0  0  0  0  0  0  0  0  0  0
    2.1350   -6.2371    3.6785 H   0  0  0  0  0  0  0  0  0  0  0  0
    3.7708   -6.2118    4.3503 H   0  0  0  0  0  0  0  0  0  0  0  0
    1.1889   -3.8519    4.4034 H   0  0  0  0  0  0  0  0  0  0  0  0
    2.0437   -1.8874    0.7989 H   0  0  0  0  0  0  0  0  0  0  0  0
    4.2720   -1.2547    0.4320 H   0  0  0  0  0  0  0  0  0  0  0  0
    5.2472    0.1141    2.1454 H   0  0  0  0  0  0  0  0  0  0  0  0
    4.3291   -0.7059    3.4288 H   0  0  0  0  0  0  0  0  0  0  0  0
    3.4872    0.2711    2.2038 H   0  0  0  0  0  0  0  0  0  0  0  0
    6.5095   -7.1379    3.0161 H   0  0  0  0  0  0  0  0  0  0  0  0
    5.9333   -5.8051    4.0476 H   0  0  0  0  0  0  0  0  0  0  0  0
    7.2270   -5.5351    2.9060 H   0  0  0  0  0  0  0  0  0  0  0  0
    6.5238   -6.7410    0.6490 H   0  0  0  0  0  0  0  0  0  0  0  0
    6.5482   -5.0425    0.2479 H   0  0  0  0  0  0  0  0  0  0  0  0
    5.1395   -6.0322   -0.2077 H   0  0  0  0  0  0  0  0  0  0  0  0
  1  2  1  0
  1 28  1  0
  1 29  1  0
  1 30  1  0
  2  3  2  0
  2  4  1  0
  4  5  2  3
  4 31  1  0
  6  5  1  6
  5 32  1  0
  6 18  1  0
  6 24  1  0
  6  7  1  0
  7  8  2  0
  7  9  1  0
  9 25  1  0
  9 10  1  6
  9 13  1  0
 10 11  1  0
 10 12  2  0
 11 33  1  0
 11 34  1  0
 11 35  1  0
 13 14  1  0
 13 36  1  0
 13 37  1  0
 14 24  1  0
 14 15  2  0
 15 16  1  0
 15 38  1  0
 16 17  2  0
 16 18  1  0
 18 19  1  0
 18 39  1  6
 19 20  1  0
 19 21  1  0
 19 40  1  6
 20 41  1  0
 20 42  1  0
 20 43  1  0
 21 22  2  0
 21 23  1  0
 23 24  2  0
 23 25  1  0
 25 26  1  0
 25 27  1  0
 26 44  1  0
 26 45  1  0
 26 46  1  0
 27 47  1  0
 27 48  1  0
 27 49  1  0
M  END
>  <i_m_ct_stereo_status>  (116) 
1

>  <s_m_source_file>  (116) 
/var/tmp/pbs.5076255.sched01/tmpy176o0g7/39stoh4b52.sdf

>  <i_m_source_file_index>  (116) 
13

>  <i_lp_mmshare_version>  (116) 
48012

>  <i_f3d_flags>  (116) 
0

>  <s_epik_input>  (116) 
W0NIM11DKD1PKS9bQ0hdPVtDSF1cQzEyW0NASF0zQyg9TylbQ0hdPUM0QzI9QyhDKD1PKVtDQEBIXTNbQ0gzXSlDKFtDSDNdKShbQ0gzXSlbQ0BdKEMxPU8pKFtDSDJdNClDKD1PKVtDSDNd

>  <s_epik_cmdline>  (116) 
J2VwaWtfcHl0aG9uJywgJy1waHQnLCAnMi4wJywgJy1waCcsICc3LjAnLCAnLXRuJywgJzgnLCAnLW1hJywgJzIwMCcsICctaW1hZScsICc8aW5maWxlLm1hZT4nLCAnLW9tYWUnLCAnPG91dGZpbGUubWFlPic=

>  <r_lp_tautomer_probability>  (116) 
1

>  <r_epik_Ionization_Penalty>  (116) 
1.06925e-09

>  <r_epik_Ionization_Penalty_Charging>  (116) 
0

>  <r_epik_Ionization_Penalty_Neutral>  (116) 
1.06925e-09

>  <r_epik_State_Penalty>  (116) 
-0

>  <r_epik_Charging_Adjusted_Penalty>  (116) 
0

>  <i_epik_Tot_Q>  (116) 
0

>  <i_epik_Tot_abs_Q>  (116) 
0

>  <s_lp_Force_Field>  (116) 
OPLS3e

>  <r_lp_Energy>  (116) 
277.117

>  <b_lp_Chiralities_Consistent>  (116) 
1

>  <s_lp_Variant>  (116) 
39:0-4

>  <s_i_glide_gridfile>  (116) 
pfpi4k_grid

>  <i_i_glide_lignum>  (116) 
13

>  <i_i_glide_rotatable_bonds>  (116) 
3

>  <r_i_docking_score>  (116) 
-3.29832

>  <r_i_glide_ligand_efficiency>  (116) 
-0.12216

>  <r_i_glide_ligand_efficiency_sa>  (116) 
-0.36648

>  <r_i_glide_ligand_efficiency_ln>  (116) 
-0.767795

>  <r_i_glide_gscore>  (116) 
-3.29832

>  <r_i_glide_lipo>  (116) 
-0.507137

>  <r_i_glide_hbond>  (116) 
-0.140086

>  <r_i_glide_metal>  (116) 
-0

>  <r_i_glide_rewards>  (116) 
-0.999649

>  <r_i_glide_evdw>  (116) 
-27.2414

>  <r_i_glide_ecoul>  (116) 
-3.5352

>  <r_i_glide_erotb>  (116) 
0.286726

>  <r_i_glide_esite>  (116) 
-0.0458257

>  <r_i_glide_emodel>  (116) 
-35.628

>  <r_i_glide_energy>  (116) 
-30.7766

>  <r_i_glide_einternal>  (116) 
3.3766

>  <r_i_glide_intrahb_reward>  (116) 
-0

>  <i_i_glide_confnum>  (116) 
1

>  <i_i_glide_posenum>  (116) 
29

>  <r_i_glide_eff_state_penalty>  (116) 
0

>  <ligand_id>  (116) 
39

>  <original_smiles>  (116) 
CC(=O)C=CC12C(=O)C3(C(C)=O)CC4=CC(=O)C1C(C)C(=O)C(=C42)C3(C)C

>  <smiles>  (116) 
[H]C1=C2C3=C4C(=O)C([H])(C([H])([H])[H])C([H])(C1=O)C3(C([H])=C([H])C(=O)C([H])([H])[H])C(=O)C(C(=O)C([H])([H])[H])(C2([H])[H])C4(C([H])([H])[H])C([H])([H])[H]

$$$$
39:3:2
     RDKit          3D

 49 52  0  0  1  0  0  0  0  0999 V2000
    2.6255   -2.7115   -3.9297 C   0  0  0  0  0  0  0  0  0  0  0  0
    3.6207   -3.1048   -2.8639 C   0  0  0  0  0  0  0  0  0  0  0  0
    4.7699   -3.4170   -3.1897 O   0  0  0  0  0  0  0  0  0  0  0  0
    3.1012   -3.1423   -1.4958 C   0  0  0  0  0  0  0  0  0  0  0  0
    3.8022   -3.6980   -0.4923 C   0  0  0  0  0  0  0  0  0  0  0  0
    3.3135   -3.7584    0.9815 C   0  0  2  0  0  0  0  0  0  0  0  0
    2.9407   -5.2945    1.1787 C   0  0  0  0  0  0  0  0  0  0  0  0
    1.8956   -5.7859    0.7512 O   0  0  0  0  0  0  0  0  0  0  0  0
    4.0223   -6.0525    2.1121 C   0  0  2  0  0  0  0  0  0  0  0  0
    3.9467   -7.5943    1.9718 C   0  0  0  0  0  0  0  0  0  0  0  0
    4.5510   -8.2785    0.7437 C   0  0  0  0  0  0  0  0  0  0  0  0
    3.4189   -8.2726    2.8520 O   0  0  0  0  0  0  0  0  0  0  0  0
    3.4971   -5.5776    3.5666 C   0  0  0  0  0  0  0  0  0  0  0  0
    3.4115   -4.0558    3.4541 C   0  0  0  0  0  0  0  0  0  0  0  0
    2.3288   -3.2714    3.7118 C   0  0  0  0  0  0  0  0  0  0  0  0
    2.0782   -2.1482    2.7265 C   0  0  0  0  0  0  0  0  0  0  0  0
    1.2914   -1.2196    2.9189 O   0  0  0  0  0  0  0  0  0  0  0  0
    2.8866   -2.2822    1.3538 C   0  0  1  0  0  0  0  0  0  0  0  0
    4.3614   -1.5027    1.1866 C   0  0  1  0  0  0  0  0  0  0  0  0
    4.4957   -0.2391    2.0269 C   0  0  0  0  0  0  0  0  0  0  0  0
    5.6575   -2.4997    1.3878 C   0  0  0  0  0  0  0  0  0  0  0  0
    6.7461   -2.2037    0.8982 O   0  0  0  0  0  0  0  0  0  0  0  0
    5.4084   -3.8019    2.1616 C   0  0  0  0  0  0  0  0  0  0  0  0
    4.1446   -3.6421    2.2953 C   0  0  0  0  0  0  0  0  0  0  0  0
    5.5388   -5.3560    1.8875 C   0  0  0  0  0  0  0  0  0  0  0  0
    6.5341   -5.8879    2.9476 C   0  0  0  0  0  0  0  0  0  0  0  0
    6.1891   -5.6778    0.5172 C   0  0  0  0  0  0  0  0  0  0  0  0
    2.2827   -1.6917   -3.7444 H   0  0  0  0  0  0  0  0  0  0  0  0
    1.7663   -3.3850   -3.8881 H   0  0  0  0  0  0  0  0  0  0  0  0
    3.0808   -2.7814   -4.9112 H   0  0  0  0  0  0  0  0  0  0  0  0
    2.1245   -2.6999   -1.3354 H   0  0  0  0  0  0  0  0  0  0  0  0
    4.7733   -4.1038   -0.7329 H   0  0  0  0  0  0  0  0  0  0  0  0
    4.2247   -7.7917   -0.1798 H   0  0  0  0  0  0  0  0  0  0  0  0
    4.2652   -9.3308    0.6918 H   0  0  0  0  0  0  0  0  0  0  0  0
    5.6381   -8.2348    0.7996 H   0  0  0  0  0  0  0  0  0  0  0  0
    2.4971   -5.9670    3.7869 H   0  0  0  0  0  0  0  0  0  0  0  0
    4.1462   -5.8727    4.3971 H   0  0  0  0  0  0  0  0  0  0  0  0
    1.5239   -3.5761    4.3733 H   0  0  0  0  0  0  0  0  0  0  0  0
    2.2076   -1.8528    0.6163 H   0  0  0  0  0  0  0  0  0  0  0  0
    4.4217   -1.1869    0.1423 H   0  0  0  0  0  0  0  0  0  0  0  0
    5.3999    0.2880    1.7267 H   0  0  0  0  0  0  0  0  0  0  0  0
    4.5530   -0.4538    3.0977 H   0  0  0  0  0  0  0  0  0  0  0  0
    3.6452    0.4197    1.8436 H   0  0  0  0  0  0  0  0  0  0  0  0
    6.6133   -6.9741    2.9150 H   0  0  0  0  0  0  0  0  0  0  0  0
    6.2591   -5.6053    3.9651 H   0  0  0  0  0  0  0  0  0  0  0  0
    7.5278   -5.4771    2.7687 H   0  0  0  0  0  0  0  0  0  0  0  0
    6.8570   -6.5386    0.5887 H   0  0  0  0  0  0  0  0  0  0  0  0
    6.7856   -4.8473    0.1395 H   0  0  0  0  0  0  0  0  0  0  0  0
    5.4384   -5.9299   -0.2320 H   0  0  0  0  0  0  0  0  0  0  0  0
  1  2  1  0
  1 28  1  0
  1 29  1  0
  1 30  1  0
  2  3  2  0
  2  4  1  0
  4  5  2  3
  4 31  1  0
  6  5  1  6
  5 32  1  0
  6 18  1  0
  6 24  1  0
  6  7  1  0
  7  8  2  0
  7  9  1  0
  9 25  1  0
  9 10  1  1
  9 13  1  0
 10 11  1  0
 10 12  2  0
 11 33  1  0
 11 34  1  0
 11 35  1  0
 13 14  1  0
 13 36  1  0
 13 37  1  0
 14 24  1  0
 14 15  2  0
 15 16  1  0
 15 38  1  0
 16 17  2  0
 16 18  1  0
 18 19  1  0
 18 39  1  6
 19 20  1  0
 19 21  1  0
 19 40  1  6
 20 41  1  0
 20 42  1  0
 20 43  1  0
 21 22  2  0
 21 23  1  0
 23 24  2  0
 23 25  1  0
 25 26  1  0
 25 27  1  0
 26 44  1  0
 26 45  1  0
 26 46  1  0
 27 47  1  0
 27 48  1  0
 27 49  1  0
M  END
>  <i_m_ct_stereo_status>  (117) 
1

>  <s_m_source_file>  (117) 
/var/tmp/pbs.5076255.sched01/tmpy176o0g7/39stoh4b52.sdf

>  <i_m_source_file_index>  (117) 
13

>  <i_lp_mmshare_version>  (117) 
48012

>  <i_f3d_flags>  (117) 
0

>  <s_epik_input>  (117) 
W0NIM11DKD1PKS9bQ0hdPVtDSF1cQzEyW0NASF0zQyg9TylbQ0hdPUM0QzI9QyhDKD1PKVtDQEBIXTNbQ0gzXSlDKFtDSDNdKShbQ0gzXSlbQ0BdKEMxPU8pKFtDSDJdNClDKD1PKVtDSDNd

>  <s_epik_cmdline>  (117) 
J2VwaWtfcHl0aG9uJywgJy1waHQnLCAnMi4wJywgJy1waCcsICc3LjAnLCAnLXRuJywgJzgnLCAnLW1hJywgJzIwMCcsICctaW1hZScsICc8aW5maWxlLm1hZT4nLCAnLW9tYWUnLCAnPG91dGZpbGUubWFlPic=

>  <r_lp_tautomer_probability>  (117) 
1

>  <r_epik_Ionization_Penalty>  (117) 
1.06925e-09

>  <r_epik_Ionization_Penalty_Charging>  (117) 
0

>  <r_epik_Ionization_Penalty_Neutral>  (117) 
1.06925e-09

>  <r_epik_State_Penalty>  (117) 
-0

>  <r_epik_Charging_Adjusted_Penalty>  (117) 
0

>  <i_epik_Tot_Q>  (117) 
0

>  <i_epik_Tot_abs_Q>  (117) 
0

>  <s_lp_Force_Field>  (117) 
OPLS3e

>  <r_lp_Energy>  (117) 
277.117

>  <b_lp_Chiralities_Consistent>  (117) 
1

>  <s_lp_Variant>  (117) 
39:0-4

>  <s_i_glide_gridfile>  (117) 
pfpi4k_grid

>  <i_i_glide_lignum>  (117) 
13

>  <i_i_glide_rotatable_bonds>  (117) 
3

>  <r_i_docking_score>  (117) 
-3.12215

>  <r_i_glide_ligand_efficiency>  (117) 
-0.115635

>  <r_i_glide_ligand_efficiency_sa>  (117) 
-0.346905

>  <r_i_glide_ligand_efficiency_ln>  (117) 
-0.726784

>  <r_i_glide_gscore>  (117) 
-3.12215

>  <r_i_glide_lipo>  (117) 
-0.479277

>  <r_i_glide_hbond>  (117) 
-0.0523968

>  <r_i_glide_metal>  (117) 
-0

>  <r_i_glide_rewards>  (117) 
-1.04781

>  <r_i_glide_evdw>  (117) 
-27.8511

>  <r_i_glide_ecoul>  (117) 
-2.72305

>  <r_i_glide_erotb>  (117) 
0.286726

>  <r_i_glide_esite>  (117) 
-0.0283777

>  <r_i_glide_emodel>  (117) 
-35.5138

>  <r_i_glide_energy>  (117) 
-30.5741

>  <r_i_glide_einternal>  (117) 
1.98814

>  <r_i_glide_intrahb_reward>  (117) 
-0

>  <i_i_glide_confnum>  (117) 
1

>  <i_i_glide_posenum>  (117) 
27

>  <r_i_glide_eff_state_penalty>  (117) 
0

>  <ligand_id>  (117) 
39

>  <original_smiles>  (117) 
CC(=O)C=CC12C(=O)C3(C(C)=O)CC4=CC(=O)C1C(C)C(=O)C(=C42)C3(C)C

>  <smiles>  (117) 
[H]C1=C2C3=C4C(=O)C([H])(C([H])([H])[H])C([H])(C1=O)C3(C([H])=C([H])C(=O)C([H])([H])[H])C(=O)C(C(=O)C([H])([H])[H])(C2([H])[H])C4(C([H])([H])[H])C([H])([H])[H]

$$$$
40:0:0
     RDKit          3D

 32 36  0  0  1  0  0  0  0  0999 V2000
    4.1456   -1.2437   -3.2067 C   0  0  0  0  0  0  0  0  0  0  0  0
    4.4196   -2.5980   -2.5566 C   0  0  0  0  0  0  0  0  0  0  0  0
    4.7540   -2.4199   -1.1406 N   0  0  0  0  0  0  0  0  0  0  0  0
    5.9397   -2.3835   -0.4996 C   0  0  0  0  0  0  0  0  0  0  0  0
    7.0410   -2.2937   -1.0520 O   0  0  0  0  0  0  0  0  0  0  0  0
    5.7727   -2.4726    1.0950 C   0  0  2  0  0  0  0  0  0  0  0  0
    5.8262   -0.8626    1.0430 C   0  0  0  0  0  0  0  0  0  0  0  0
    4.4211   -0.3124    0.6912 C   0  0  0  0  0  0  0  0  0  0  0  0
    3.6043   -1.5678    0.9292 C   0  0  2  0  0  0  0  0  0  0  0  0
    4.4900   -2.1849    2.0274 C   0  0  1  0  0  0  0  0  0  0  0  0
    3.7823   -3.4486    2.5496 C   0  0  0  0  0  0  0  0  0  0  0  0
    3.7614   -4.2689    1.3120 C   0  0  1  0  0  0  0  0  0  0  0  0
    2.9539   -3.9827    0.0203 C   0  0  0  0  0  0  0  0  0  0  0  0
    3.7533   -2.6883   -0.1288 C   0  0  1  0  0  0  0  0  0  0  0  0
    4.8142   -3.5692    0.5153 C   0  0  1  0  0  0  0  0  0  0  0  0
    3.9344   -1.3536   -4.2692 H   0  0  0  0  0  0  0  0  0  0  0  0
    5.0047   -0.5904   -3.0887 H   0  0  0  0  0  0  0  0  0  0  0  0
    3.2914   -0.7632   -2.7310 H   0  0  0  0  0  0  0  0  0  0  0  0
    3.5680   -3.2750   -2.6817 H   0  0  0  0  0  0  0  0  0  0  0  0
    5.2618   -3.0855   -3.0501 H   0  0  0  0  0  0  0  0  0  0  0  0
    6.1462   -0.4729    2.0142 H   0  0  0  0  0  0  0  0  0  0  0  0
    6.5839   -0.3785    0.4142 H   0  0  0  0  0  0  0  0  0  0  0  0
    4.1214    0.4720    1.3800 H   0  0  0  0  0  0  0  0  0  0  0  0
    4.3278    0.0518   -0.3340 H   0  0  0  0  0  0  0  0  0  0  0  0
    2.5674   -1.3824    1.2262 H   0  0  0  0  0  0  0  0  0  0  0  0
    4.6383   -1.5397    2.9017 H   0  0  0  0  0  0  0  0  0  0  0  0
    4.3751   -3.9414    3.3207 H   0  0  0  0  0  0  0  0  0  0  0  0
    2.7782   -3.2625    2.9417 H   0  0  0  0  0  0  0  0  0  0  0  0
    3.9345   -5.3432    1.4380 H   0  0  0  0  0  0  0  0  0  0  0  0
    3.0813   -4.7241   -0.7655 H   0  0  0  0  0  0  0  0  0  0  0  0
    1.9291   -3.7624    0.2682 H   0  0  0  0  0  0  0  0  0  0  0  0
    5.2124   -4.4488   -0.0327 H   0  0  0  0  0  0  0  0  0  0  0  0
  1  2  1  0
  1 16  1  0
  1 17  1  0
  1 18  1  0
  2  3  1  0
  2 19  1  0
  2 20  1  0
 14  3  1  1
  3  4  1  0
  4  5  2  0
  4  6  1  0
  6 10  1  0
  6 15  1  0
  6  7  1  1
  7  8  1  0
  7 21  1  0
  7 22  1  0
  8  9  1  0
  8 23  1  0
  8 24  1  0
  9 14  1  0
  9 10  1  0
  9 25  1  1
 10 11  1  0
 10 26  1  1
 11 12  1  0
 11 27  1  0
 11 28  1  0
 12 15  1  0
 12 13  1  0
 12 29  1  1
 13 14  1  0
 13 30  1  0
 13 31  1  0
 14 15  1  0
 15 32  1  6
M  END
>  <i_m_ct_stereo_status>  (118) 
1

>  <s_m_source_file>  (118) 
/var/tmp/pbs.5076255.sched01/tmpy176o0g7/39stoh4b52.sdf

>  <i_m_source_file_index>  (118) 
14

>  <i_lp_mmshare_version>  (118) 
48012

>  <i_f3d_flags>  (118) 
0

>  <s_epik_input>  (118) 
W0NIM11bQ0gyXU4oQzE9TylbQ0BdMihbQ0BASF0oW0NAQEhdM0MxNDUpW0NIMl1bQ0gyXTQpW0NAQEhdNVtDQEBIXShbQ0gyXTMpW0NIMl0y

>  <s_epik_cmdline>  (118) 
J2VwaWtfcHl0aG9uJywgJy1waHQnLCAnMi4wJywgJy1waCcsICc3LjAnLCAnLXRuJywgJzgnLCAnLW1hJywgJzIwMCcsICctaW1hZScsICc8aW5maWxlLm1hZT4nLCAnLW9tYWUnLCAnPG91dGZpbGUubWFlPic=

>  <r_lp_tautomer_probability>  (118) 
1

>  <r_epik_Ionization_Penalty>  (118) 
6.76587e-07

>  <r_epik_Ionization_Penalty_Charging>  (118) 
0

>  <r_epik_Ionization_Penalty_Neutral>  (118) 
6.76587e-07

>  <r_epik_State_Penalty>  (118) 
-0

>  <r_epik_Charging_Adjusted_Penalty>  (118) 
0

>  <i_epik_Tot_Q>  (118) 
0

>  <i_epik_Tot_abs_Q>  (118) 
0

>  <s_lp_Force_Field>  (118) 
OPLS3e

>  <r_lp_Energy>  (118) 
207.159

>  <b_lp_Chiralities_Consistent>  (118) 
1

>  <s_lp_Variant>  (118) 
40:0-1

>  <s_i_glide_gridfile>  (118) 
pfpi4k_grid

>  <i_i_glide_lignum>  (118) 
14

>  <i_i_glide_rotatable_bonds>  (118) 
1

>  <r_i_docking_score>  (118) 
-4.02153

>  <r_i_glide_ligand_efficiency>  (118) 
-0.268102

>  <r_i_glide_ligand_efficiency_sa>  (118) 
-0.661197

>  <r_i_glide_ligand_efficiency_ln>  (118) 
-1.08454

>  <r_i_glide_gscore>  (118) 
-4.02153

>  <r_i_glide_lipo>  (118) 
-0.583507

>  <r_i_glide_hbond>  (118) 
-0.16

>  <r_i_glide_metal>  (118) 
-0

>  <r_i_glide_rewards>  (118) 
-2.02309

>  <r_i_glide_evdw>  (118) 
-15.9298

>  <r_i_glide_ecoul>  (118) 
-2.82968

>  <r_i_glide_erotb>  (118) 
0

>  <r_i_glide_esite>  (118) 
-0.0339899

>  <r_i_glide_emodel>  (118) 
-23.2044

>  <r_i_glide_energy>  (118) 
-18.7595

>  <r_i_glide_einternal>  (118) 
0.347961

>  <r_i_glide_intrahb_reward>  (118) 
-0

>  <i_i_glide_confnum>  (118) 
1

>  <i_i_glide_posenum>  (118) 
39

>  <r_i_glide_eff_state_penalty>  (118) 
0

>  <ligand_id>  (118) 
40

>  <original_smiles>  (118) 
CCN1C(=O)C23CCC4C2CC2CC41C23

>  <smiles>  (118) 
[H]C([H])([H])C([H])([H])N1C(=O)C23C([H])([H])C([H])([H])C4([H])C2([H])C([H])([H])C2([H])C([H])([H])C14C23[H]

$$$$
40:0:1
     RDKit          3D

 32 36  0  0  1  0  0  0  0  0999 V2000
    5.8798   -5.4098    0.6715 C   0  0  0  0  0  0  0  0  0  0  0  0
    4.7574   -5.3462   -0.3638 C   0  0  0  0  0  0  0  0  0  0  0  0
    4.4301   -3.9583   -0.6928 N   0  0  0  0  0  0  0  0  0  0  0  0
    3.4459   -3.1456   -0.2616 C   0  0  0  0  0  0  0  0  0  0  0  0
    2.6862   -3.4084    0.6840 O   0  0  0  0  0  0  0  0  0  0  0  0
    3.3479   -1.8021   -1.1208 C   0  0  2  0  0  0  0  0  0  0  0  0
    4.2825   -1.1595    0.0324 C   0  0  0  0  0  0  0  0  0  0  0  0
    5.7670   -1.5038   -0.2574 C   0  0  0  0  0  0  0  0  0  0  0  0
    5.6289   -1.9765   -1.6937 C   0  0  2  0  0  0  0  0  0  0  0  0
    4.4302   -1.1022   -2.0943 C   0  0  1  0  0  0  0  0  0  0  0  0
    4.1658   -1.2978   -3.6052 C   0  0  0  0  0  0  0  0  0  0  0  0
    3.8463   -2.7442   -3.6368 C   0  0  1  0  0  0  0  0  0  0  0  0
    4.8630   -3.8853   -3.3447 C   0  0  0  0  0  0  0  0  0  0  0  0
    4.9543   -3.3528   -1.9067 C   0  0  1  0  0  0  0  0  0  0  0  0
    3.4978   -2.9513   -2.1866 C   0  0  1  0  0  0  0  0  0  0  0  0
    6.1049   -6.4421    0.9357 H   0  0  0  0  0  0  0  0  0  0  0  0
    5.5960   -4.8824    1.5824 H   0  0  0  0  0  0  0  0  0  0  0  0
    6.7877   -4.9509    0.2831 H   0  0  0  0  0  0  0  0  0  0  0  0
    5.0112   -5.8969   -1.2672 H   0  0  0  0  0  0  0  0  0  0  0  0
    3.8639   -5.8363    0.0275 H   0  0  0  0  0  0  0  0  0  0  0  0
    4.1543   -0.0745    0.0524 H   0  0  0  0  0  0  0  0  0  0  0  0
    4.0459   -1.3658    1.0831 H   0  0  0  0  0  0  0  0  0  0  0  0
    6.3807   -0.6077   -0.1862 H   0  0  0  0  0  0  0  0  0  0  0  0
    6.1784   -2.2705    0.3998 H   0  0  0  0  0  0  0  0  0  0  0  0
    6.5224   -1.8438   -2.3058 H   0  0  0  0  0  0  0  0  0  0  0  0
    4.6076   -0.0254   -1.9663 H   0  0  0  0  0  0  0  0  0  0  0  0
    3.3071   -0.7019   -3.9236 H   0  0  0  0  0  0  0  0  0  0  0  0
    5.0151   -1.0539   -4.2365 H   0  0  0  0  0  0  0  0  0  0  0  0
    3.0609   -3.0444   -4.3327 H   0  0  0  0  0  0  0  0  0  0  0  0
    4.5479   -4.9184   -3.4664 H   0  0  0  0  0  0  0  0  0  0  0  0
    5.7961   -3.7286   -3.8768 H   0  0  0  0  0  0  0  0  0  0  0  0
    2.6943   -3.7126   -2.2917 H   0  0  0  0  0  0  0  0  0  0  0  0
  1  2  1  0
  1 16  1  0
  1 17  1  0
  1 18  1  0
  2  3  1  0
  2 19  1  0
  2 20  1  0
 14  3  1  6
  3  4  1  0
  4  5  2  0
  4  6  1  0
  6 10  1  0
  6 15  1  0
  6  7  1  6
  7  8  1  0
  7 21  1  0
  7 22  1  0
  8  9  1  0
  8 23  1  0
  8 24  1  0
  9 14  1  0
  9 10  1  0
  9 25  1  6
 10 11  1  0
 10 26  1  6
 11 12  1  0
 11 27  1  0
 11 28  1  0
 12 15  1  0
 12 13  1  0
 12 29  1  6
 13 14  1  0
 13 30  1  0
 13 31  1  0
 14 15  1  0
 15 32  1  6
M  END
>  <i_m_ct_stereo_status>  (119) 
1

>  <s_m_source_file>  (119) 
/var/tmp/pbs.5076255.sched01/tmpy176o0g7/39stoh4b52.sdf

>  <i_m_source_file_index>  (119) 
14

>  <i_lp_mmshare_version>  (119) 
48012

>  <i_f3d_flags>  (119) 
0

>  <s_epik_input>  (119) 
W0NIM11bQ0gyXU4oQzE9TylbQ0BdMihbQ0BASF0oW0NAQEhdM0MxNDUpW0NIMl1bQ0gyXTQpW0NAQEhdNVtDQEBIXShbQ0gyXTMpW0NIMl0y

>  <s_epik_cmdline>  (119) 
J2VwaWtfcHl0aG9uJywgJy1waHQnLCAnMi4wJywgJy1waCcsICc3LjAnLCAnLXRuJywgJzgnLCAnLW1hJywgJzIwMCcsICctaW1hZScsICc8aW5maWxlLm1hZT4nLCAnLW9tYWUnLCAnPG91dGZpbGUubWFlPic=

>  <r_lp_tautomer_probability>  (119) 
1

>  <r_epik_Ionization_Penalty>  (119) 
6.76587e-07

>  <r_epik_Ionization_Penalty_Charging>  (119) 
0

>  <r_epik_Ionization_Penalty_Neutral>  (119) 
6.76587e-07

>  <r_epik_State_Penalty>  (119) 
-0

>  <r_epik_Charging_Adjusted_Penalty>  (119) 
0

>  <i_epik_Tot_Q>  (119) 
0

>  <i_epik_Tot_abs_Q>  (119) 
0

>  <s_lp_Force_Field>  (119) 
OPLS3e

>  <r_lp_Energy>  (119) 
207.159

>  <b_lp_Chiralities_Consistent>  (119) 
1

>  <s_lp_Variant>  (119) 
40:0-1

>  <s_i_glide_gridfile>  (119) 
pfpi4k_grid

>  <i_i_glide_lignum>  (119) 
14

>  <i_i_glide_rotatable_bonds>  (119) 
1

>  <r_i_docking_score>  (119) 
-3.569

>  <r_i_glide_ligand_efficiency>  (119) 
-0.237933

>  <r_i_glide_ligand_efficiency_sa>  (119) 
-0.586794

>  <r_i_glide_ligand_efficiency_ln>  (119) 
-0.9625

>  <r_i_glide_gscore>  (119) 
-3.569

>  <r_i_glide_lipo>  (119) 
-0.656596

>  <r_i_glide_hbond>  (119) 
0

>  <r_i_glide_metal>  (119) 
-0

>  <r_i_glide_rewards>  (119) 
-2.02309

>  <r_i_glide_evdw>  (119) 
-18.5075

>  <r_i_glide_ecoul>  (119) 
0.28737

>  <r_i_glide_erotb>  (119) 
0

>  <r_i_glide_esite>  (119) 
-0.00704409

>  <r_i_glide_emodel>  (119) 
-21.9455

>  <r_i_glide_energy>  (119) 
-18.2201

>  <r_i_glide_einternal>  (119) 
0.368693

>  <r_i_glide_intrahb_reward>  (119) 
-0

>  <i_i_glide_confnum>  (119) 
1

>  <i_i_glide_posenum>  (119) 
37

>  <r_i_glide_eff_state_penalty>  (119) 
0

>  <ligand_id>  (119) 
40

>  <original_smiles>  (119) 
CCN1C(=O)C23CCC4C2CC2CC41C23

>  <smiles>  (119) 
[H]C([H])([H])C([H])([H])N1C(=O)C23C([H])([H])C([H])([H])C4([H])C2([H])C([H])([H])C2([H])C([H])([H])C14C23[H]

$$$$
41:0:0
     RDKit          3D

 60 66  0  0  1  0  0  0  0  0999 V2000
   -1.5121   -8.9970    2.5261 C   0  0  0  0  0  0  0  0  0  0  0  0
   -0.1478   -8.5187    3.0307 C   0  0  2  0  0  0  0  0  0  0  0  0
   -0.3510   -7.7479    4.1582 O   0  0  0  0  0  0  0  0  0  0  0  0
    0.7538   -6.8733    4.2145 C   0  0  2  0  0  0  0  0  0  0  0  0
    0.4628   -5.6270    5.0785 C   0  0  1  0  0  0  0  0  0  0  0  0
   -0.7306   -5.8168    6.0239 C   0  0  0  0  0  0  0  0  0  0  0  0
    1.5402   -5.3183    5.9508 O   0  0  0  0  0  0  0  0  0  0  0  0
    2.8793   -5.2100    5.4655 C   0  0  1  0  0  0  0  0  0  0  0  0
    3.7438   -6.4027    6.0381 C   0  0  0  0  0  0  0  0  0  0  0  0
    3.7550   -7.9467    5.6053 C   0  0  0  0  0  0  0  0  0  0  0  0
    3.6457   -8.5288    4.1894 N   0  0  2  0  0  0  0  0  0  0  0  0
    4.1050   -9.9416    4.1749 C   0  0  0  0  0  0  0  0  0  0  0  0
    4.0990   -7.7930    2.9583 C   0  0  1  0  0  0  0  0  0  0  0  0
    4.6641   -6.4779    3.3166 C   0  0  0  0  0  0  0  0  0  0  0  0
    3.5105   -5.4956    2.9253 C   0  0  2  0  0  0  0  0  0  0  0  0
    4.2676   -4.6551    2.0017 C   0  0  0  0  0  0  0  0  0  0  0  0
    4.7156   -5.1529    0.7677 C   0  0  0  0  0  0  0  0  0  0  0  0
    5.5437   -4.2606    0.0563 C   0  0  0  0  0  0  0  0  0  0  0  0
    5.8710   -2.9984    0.6354 C   0  0  0  0  0  0  0  0  0  0  0  0
    5.4051   -2.6130    1.9265 C   0  0  0  0  0  0  0  0  0  0  0  0
    5.7825   -1.4142    2.4657 O   0  0  0  0  0  0  0  0  0  0  0  0
    4.5589   -3.4804    2.6542 C   0  0  0  0  0  0  0  0  0  0  0  0
    4.0398   -3.4394    3.9356 O   0  0  0  0  0  0  0  0  0  0  0  0
    3.0982   -4.5429    4.0478 C   0  0  2  0  0  0  0  0  0  0  0  0
    4.3042   -6.6578    0.5352 C   0  0  0  0  0  0  0  0  0  0  0  0
    3.3276   -7.3460    1.6252 C   0  0  2  0  0  0  0  0  0  0  0  0
    2.3770   -6.2031    2.0893 C   0  0  2  0  0  0  0  0  0  0  0  0
    1.8901   -5.4530    0.9732 O   0  0  0  0  0  0  0  0  0  0  0  0
    0.9812   -6.5850    2.7210 C   0  0  1  0  0  0  0  0  0  0  0  0
    0.4642   -7.7343    2.0713 O   0  0  0  0  0  0  0  0  0  0  0  0
   -2.1725   -8.1485    2.3457 H   0  0  0  0  0  0  0  0  0  0  0  0
   -1.9667   -9.6457    3.2763 H   0  0  0  0  0  0  0  0  0  0  0  0
   -1.3896   -9.5679    1.6073 H   0  0  0  0  0  0  0  0  0  0  0  0
    0.5171   -9.3590    3.2379 H   0  0  0  0  0  0  0  0  0  0  0  0
    1.5170   -7.4661    4.6763 H   0  0  0  0  0  0  0  0  0  0  0  0
    0.2367   -4.7660    4.4511 H   0  0  0  0  0  0  0  0  0  0  0  0
   -1.6441   -6.0354    5.4734 H   0  0  0  0  0  0  0  0  0  0  0  0
   -0.9074   -4.9187    6.6160 H   0  0  0  0  0  0  0  0  0  0  0  0
   -0.5526   -6.6396    6.7154 H   0  0  0  0  0  0  0  0  0  0  0  0
    3.2140   -4.3919    6.1050 H   0  0  0  0  0  0  0  0  0  0  0  0
    4.7710   -6.0506    6.1533 H   0  0  0  0  0  0  0  0  0  0  0  0
    3.4551   -6.4445    7.0916 H   0  0  0  0  0  0  0  0  0  0  0  0
    4.6656   -8.3488    6.0543 H   0  0  0  0  0  0  0  0  0  0  0  0
    2.9584   -8.4259    6.1786 H   0  0  0  0  0  0  0  0  0  0  0  0
    5.1894  -10.0135    4.2995 H   0  0  0  0  0  0  0  0  0  0  0  0
    3.8310  -10.4296    3.2345 H   0  0  0  0  0  0  0  0  0  0  0  0
    3.6331  -10.5116    4.9851 H   0  0  0  0  0  0  0  0  0  0  0  0
    3.0537   -7.9159    3.2035 H   0  0  0  0  0  0  0  0  0  0  0  0
    5.2206   -6.3447    4.2286 H   0  0  0  0  0  0  0  0  0  0  0  0
    5.5589   -6.4201    2.6965 H   0  0  0  0  0  0  0  0  0  0  0  0
    5.9577   -4.5369   -0.9015 H   0  0  0  0  0  0  0  0  0  0  0  0
    6.5248   -2.3340    0.0930 H   0  0  0  0  0  0  0  0  0  0  0  0
    6.3842   -0.9193    1.9308 H   0  0  0  0  0  0  0  0  0  0  0  0
    2.1690   -4.0631    3.7494 H   0  0  0  0  0  0  0  0  0  0  0  0
    3.8055   -6.6709   -0.4316 H   0  0  0  0  0  0  0  0  0  0  0  0
    5.2044   -7.2568    0.4077 H   0  0  0  0  0  0  0  0  0  0  0  0
    2.8022   -8.1879    1.1670 H   0  0  0  0  0  0  0  0  0  0  0  0
    2.6321   -5.2230    0.4308 H   0  0  0  0  0  0  0  0  0  0  0  0
    0.2612   -5.7969    2.5019 H   0  0  0  0  0  0  0  0  0  0  0  0
    2.6471   -8.6188    4.0690 H   0  0  0  0  0  0  0  0  0  0  0  0
  1  2  1  0
  1 31  1  0
  1 32  1  0
  1 33  1  0
  2 30  1  0
  2  3  1  0
  2 34  1  1
  3  4  1  0
  4 29  1  0
  4  5  1  0
  4 35  1  1
  5  6  1  0
  5  7  1  0
  5 36  1  6
  6 37  1  0
  6 38  1  0
  6 39  1  0
  7  8  1  0
  8 24  1  0
  8  9  1  0
  8 40  1  1
  9 10  1  0
  9 41  1  0
  9 42  1  0
 10 11  1  0
 10 43  1  0
 10 44  1  0
 11 12  1  0
 11 13  1  0
 11 60  1  6
 12 45  1  0
 12 46  1  0
 12 47  1  0
 13 26  1  0
 13 14  1  0
 13 48  1  6
 15 14  1  1
 14 49  1  0
 14 50  1  0
 15 24  1  0
 15 27  1  0
 15 16  1  0
 16 22  2  0
 16 17  1  0
 17 18  2  0
 17 25  1  0
 18 19  1  0
 18 51  1  0
 19 20  2  0
 19 52  1  0
 20 21  1  0
 20 22  1  0
 21 53  1  0
 22 23  1  0
 23 24  1  0
 24 54  1  6
 25 26  1  0
 25 55  1  0
 25 56  1  0
 26 27  1  0
 26 57  1  6
 27 28  1  6
 27 29  1  0
 28 58  1  0
 29 30  1  0
 29 59  1  6
M  CHG  1  11   1
M  END
>  <i_m_ct_stereo_status>  (120) 
1

>  <s_m_source_file>  (120) 
/var/tmp/pbs.5076255.sched01/tmpy176o0g7/39stoh4b52.sdf

>  <i_m_source_file_index>  (120) 
15

>  <i_lp_mmshare_version>  (120) 
48012

>  <i_f3d_flags>  (120) 
0

>  <s_epik_input>  (120) 
W0NIMl0xW0NIMl1OKFtDSDNdKVtDQEBIXShbQ0gyXTIpW0NASF0oW0NIMl0zKVtDQEBdNChbT0hdKVtDQEBIXShPW0NAQEhdKE81KVtDSDNdKVtDQEhdNVtDQEBIXShbQ0gzXSlPW0NIXTFbQ0BIXTZPYzdjKFtPSF0pW2NIXVtjSF1jM2M3W0NAXTI0Ng==

>  <s_epik_cmdline>  (120) 
J2VwaWtfcHl0aG9uJywgJy1waHQnLCAnMi4wJywgJy1waCcsICc3LjAnLCAnLXRuJywgJzgnLCAnLW1hJywgJzIwMCcsICctaW1hZScsICc8aW5maWxlLm1hZT4nLCAnLW9tYWUnLCAnPG91dGZpbGUubWFlPic=

>  <r_lp_tautomer_probability>  (120) 
1

>  <r_epik_Ionization_Penalty>  (120) 
0.0258719

>  <r_epik_Ionization_Penalty_Charging>  (120) 
0.0221228

>  <r_epik_Ionization_Penalty_Neutral>  (120) 
0.00374916

>  <r_epik_State_Penalty>  (120) 
0.0178315

>  <r_epik_Charging_Adjusted_Penalty>  (120) 
0.0399543

>  <i_epik_Tot_Q>  (120) 
1

>  <i_epik_Tot_abs_Q>  (120) 
1

>  <s_epik_Chemistry_Notes>  (120) 
This compound contains an acetal/aminal-like group ( X-CH(R)-Y where X, Y are N, S, or O) that may be acid/base labile, releasing an aldehyde.

>  <s_lp_Force_Field>  (120) 
OPLS3e

>  <r_lp_Energy>  (120) 
192.213

>  <b_lp_Chiralities_Consistent>  (120) 
1

>  <s_lp_Variant>  (120) 
41:0-1

>  <s_i_glide_gridfile>  (120) 
pfpi4k_grid

>  <i_i_glide_lignum>  (120) 
15

>  <i_i_glide_rotatable_bonds>  (120) 
2

>  <r_i_docking_score>  (120) 
-2.96344

>  <r_i_glide_ligand_efficiency>  (120) 
-0.0987812

>  <r_i_glide_ligand_efficiency_sa>  (120) 
-0.306936

>  <r_i_glide_ligand_efficiency_ln>  (120) 
-0.673325

>  <r_i_glide_gscore>  (120) 
-2.96344

>  <r_i_glide_lipo>  (120) 
-0.644679

>  <r_i_glide_hbond>  (120) 
0

>  <r_i_glide_metal>  (120) 
-0

>  <r_i_glide_rewards>  (120) 
-0.569404

>  <r_i_glide_evdw>  (120) 
-20.0294

>  <r_i_glide_ecoul>  (120) 
-4.72214

>  <r_i_glide_erotb>  (120) 
0

>  <r_i_glide_esite>  (120) 
-0.0395605

>  <r_i_glide_emodel>  (120) 
-30.7082

>  <r_i_glide_energy>  (120) 
-24.7516

>  <r_i_glide_einternal>  (120) 
0.0568816

>  <r_i_glide_intrahb_reward>  (120) 
-0

>  <i_i_glide_confnum>  (120) 
2

>  <i_i_glide_posenum>  (120) 
2

>  <r_i_glide_eff_state_penalty>  (120) 
0

>  <ligand_id>  (120) 
41

>  <original_smiles>  (120) 
CC1OC2C(C)OC3CCN(C)C4CC56c7c(ccc(O)c7OC35)CC4C6(O)C2O1

>  <smiles>  (120) 
[H]Oc1c([H])c([H])c2c3c1OC1([H])C4([H])OC([H])(C([H])([H])[H])C5([H])OC([H])(C([H])([H])[H])OC5([H])C5(O[H])C([H])(C2([H])[H])C([H])(C([H])([H])C315)[N+]([H])(C([H])([H])[H])C([H])([H])C4([H])[H]

$$$$
41:0:1
     RDKit          3D

 60 66  0  0  1  0  0  0  0  0999 V2000
    1.8332    0.2440    1.7329 C   0  0  0  0  0  0  0  0  0  0  0  0
    1.7716    1.3103    2.8271 C   0  0  2  0  0  0  0  0  0  0  0  0
    2.9007    1.1879    3.6117 O   0  0  0  0  0  0  0  0  0  0  0  0
    2.5310    1.6842    4.8776 C   0  0  2  0  0  0  0  0  0  0  0  0
    3.4555    1.1693    6.0033 C   0  0  1  0  0  0  0  0  0  0  0  0
    4.7858    0.6015    5.4862 C   0  0  0  0  0  0  0  0  0  0  0  0
    3.8428    2.2093    6.8910 O   0  0  0  0  0  0  0  0  0  0  0  0
    2.8754    3.0799    7.4825 C   0  0  1  0  0  0  0  0  0  0  0  0
    3.0592    4.5371    6.8975 C   0  0  0  0  0  0  0  0  0  0  0  0
    2.6471    5.1103    5.4580 C   0  0  0  0  0  0  0  0  0  0  0  0
    1.3760    4.8029    4.6472 N   0  0  2  0  0  0  0  0  0  0  0  0
    1.1739    5.8279    3.5877 C   0  0  0  0  0  0  0  0  0  0  0  0
    0.0708    4.3992    5.2817 C   0  0  1  0  0  0  0  0  0  0  0  0
    0.1914    4.3760    6.7517 C   0  0  0  0  0  0  0  0  0  0  0  0
    0.2842    2.8477    7.0618 C   0  0  2  0  0  0  0  0  0  0  0  0
   -0.8538    2.7607    7.9753 C   0  0  0  0  0  0  0  0  0  0  0  0
   -2.1704    2.9299    7.5123 C   0  0  0  0  0  0  0  0  0  0  0  0
   -3.1392    2.9513    8.5361 C   0  0  0  0  0  0  0  0  0  0  0  0
   -2.7181    2.8297    9.8963 C   0  0  0  0  0  0  0  0  0  0  0  0
   -1.3459    2.7113   10.2684 C   0  0  0  0  0  0  0  0  0  0  0  0
   -0.9789    2.6258   11.5831 O   0  0  0  0  0  0  0  0  0  0  0  0
   -0.3550    2.6820    9.2490 C   0  0  0  0  0  0  0  0  0  0  0  0
    1.0275    2.6773    9.2841 O   0  0  0  0  0  0  0  0  0  0  0  0
    1.4873    2.4576    7.9219 C   0  0  2  0  0  0  0  0  0  0  0  0
   -2.2381    3.1984    5.9602 C   0  0  0  0  0  0  0  0  0  0  0  0
   -0.8560    3.1048    5.1165 C   0  0  2  0  0  0  0  0  0  0  0  0
   -0.0517    1.9624    5.8047 C   0  0  2  0  0  0  0  0  0  0  0  0
   -0.8868    0.8310    6.0693 O   0  0  0  0  0  0  0  0  0  0  0  0
    1.0688    1.2136    4.9768 C   0  0  1  0  0  0  0  0  0  0  0  0
    0.6559    1.1082    3.6234 O   0  0  0  0  0  0  0  0  0  0  0  0
    1.9317   -0.7510    2.1693 H   0  0  0  0  0  0  0  0  0  0  0  0
    2.6903    0.4297    1.0829 H   0  0  0  0  0  0  0  0  0  0  0  0
    0.9239    0.2876    1.1353 H   0  0  0  0  0  0  0  0  0  0  0  0
    1.6927    2.3131    2.4003 H   0  0  0  0  0  0  0  0  0  0  0  0
    2.6557    2.7412    4.7667 H   0  0  0  0  0  0  0  0  0  0  0  0
    2.9704    0.3714    6.5632 H   0  0  0  0  0  0  0  0  0  0  0  0
    4.6234   -0.2459    4.8195 H   0  0  0  0  0  0  0  0  0  0  0  0
    5.4065    0.2543    6.3120 H   0  0  0  0  0  0  0  0  0  0  0  0
    5.3550    1.3523    4.9385 H   0  0  0  0  0  0  0  0  0  0  0  0
    3.3403    3.1938    8.4628 H   0  0  0  0  0  0  0  0  0  0  0  0
    2.7704    5.2509    7.6708 H   0  0  0  0  0  0  0  0  0  0  0  0
    4.1420    4.6839    6.9209 H   0  0  0  0  0  0  0  0  0  0  0  0
    2.7030    6.1952    5.5700 H   0  0  0  0  0  0  0  0  0  0  0  0
    3.4784    4.8808    4.7908 H   0  0  0  0  0  0  0  0  0  0  0  0
    0.8731    6.7899    4.0126 H   0  0  0  0  0  0  0  0  0  0  0  0
    0.4118    5.5053    2.8772 H   0  0  0  0  0  0  0  0  0  0  0  0
    2.0964    5.9858    3.0198 H   0  0  0  0  0  0  0  0  0  0  0  0
    0.7040    3.6885    4.7675 H   0  0  0  0  0  0  0  0  0  0  0  0
    0.8209    5.0821    7.2667 H   0  0  0  0  0  0  0  0  0  0  0  0
   -0.7233    4.8658    7.0812 H   0  0  0  0  0  0  0  0  0  0  0  0
   -4.1862    3.0854    8.3123 H   0  0  0  0  0  0  0  0  0  0  0  0
   -3.4609    2.8610   10.6826 H   0  0  0  0  0  0  0  0  0  0  0  0
   -1.7032    2.4188   12.1795 H   0  0  0  0  0  0  0  0  0  0  0  0
    1.5769    1.3740    7.8975 H   0  0  0  0  0  0  0  0  0  0  0  0
   -2.9277    2.4543    5.5586 H   0  0  0  0  0  0  0  0  0  0  0  0
   -2.7222    4.1496    5.7841 H   0  0  0  0  0  0  0  0  0  0  0  0
   -1.0856    2.9047    4.0660 H   0  0  0  0  0  0  0  0  0  0  0  0
   -1.0971    0.4555    5.2238 H   0  0  0  0  0  0  0  0  0  0  0  0
    1.1532    0.1816    5.3250 H   0  0  0  0  0  0  0  0  0  0  0  0
    1.6525    3.9875    4.1144 H   0  0  0  0  0  0  0  0  0  0  0  0
  1  2  1  0
  1 31  1  0
  1 32  1  0
  1 33  1  0
  2 30  1  0
  2  3  1  0
  2 34  1  6
  3  4  1  0
  4 29  1  0
  4  5  1  0
  4 35  1  6
  5  6  1  0
  5  7  1  0
  5 36  1  1
  6 37  1  0
  6 38  1  0
  6 39  1  0
  7  8  1  0
  8 24  1  0
  8  9  1  0
  8 40  1  1
  9 10  1  0
  9 41  1  0
  9 42  1  0
 10 11  1  0
 10 43  1  0
 10 44  1  0
 11 12  1  0
 11 13  1  0
 11 60  1  6
 12 45  1  0
 12 46  1  0
 12 47  1  0
 13 26  1  0
 13 14  1  0
 13 48  1  1
 15 14  1  6
 14 49  1  0
 14 50  1  0
 15 24  1  0
 15 27  1  0
 15 16  1  0
 16 22  2  0
 16 17  1  0
 17 18  2  0
 17 25  1  0
 18 19  1  0
 18 51  1  0
 19 20  2  0
 19 52  1  0
 20 21  1  0
 20 22  1  0
 21 53  1  0
 22 23  1  0
 23 24  1  0
 24 54  1  1
 25 26  1  0
 25 55  1  0
 25 56  1  0
 26 27  1  0
 26 57  1  6
 27 28  1  1
 27 29  1  0
 28 58  1  0
 29 30  1  0
 29 59  1  1
M  CHG  1  11   1
M  END
>  <i_m_ct_stereo_status>  (121) 
1

>  <s_m_source_file>  (121) 
/var/tmp/pbs.5076255.sched01/tmpy176o0g7/39stoh4b52.sdf

>  <i_m_source_file_index>  (121) 
15

>  <i_lp_mmshare_version>  (121) 
48012

>  <i_f3d_flags>  (121) 
0

>  <s_epik_input>  (121) 
W0NIMl0xW0NIMl1OKFtDSDNdKVtDQEBIXShbQ0gyXTIpW0NASF0oW0NIMl0zKVtDQEBdNChbT0hdKVtDQEBIXShPW0NAQEhdKE81KVtDSDNdKVtDQEhdNVtDQEBIXShbQ0gzXSlPW0NIXTFbQ0BIXTZPYzdjKFtPSF0pW2NIXVtjSF1jM2M3W0NAXTI0Ng==

>  <s_epik_cmdline>  (121) 
J2VwaWtfcHl0aG9uJywgJy1waHQnLCAnMi4wJywgJy1waCcsICc3LjAnLCAnLXRuJywgJzgnLCAnLW1hJywgJzIwMCcsICctaW1hZScsICc8aW5maWxlLm1hZT4nLCAnLW9tYWUnLCAnPG91dGZpbGUubWFlPic=

>  <r_lp_tautomer_probability>  (121) 
1

>  <r_epik_Ionization_Penalty>  (121) 
0.0258719

>  <r_epik_Ionization_Penalty_Charging>  (121) 
0.0221228

>  <r_epik_Ionization_Penalty_Neutral>  (121) 
0.00374916

>  <r_epik_State_Penalty>  (121) 
0.0178315

>  <r_epik_Charging_Adjusted_Penalty>  (121) 
0.0399543

>  <i_epik_Tot_Q>  (121) 
1

>  <i_epik_Tot_abs_Q>  (121) 
1

>  <s_epik_Chemistry_Notes>  (121) 
This compound contains an acetal/aminal-like group ( X-CH(R)-Y where X, Y are N, S, or O) that may be acid/base labile, releasing an aldehyde.

>  <s_lp_Force_Field>  (121) 
OPLS3e

>  <r_lp_Energy>  (121) 
192.213

>  <b_lp_Chiralities_Consistent>  (121) 
1

>  <s_lp_Variant>  (121) 
41:0-1

>  <s_i_glide_gridfile>  (121) 
pfpi4k_grid

>  <i_i_glide_lignum>  (121) 
15

>  <i_i_glide_rotatable_bonds>  (121) 
2

>  <r_i_docking_score>  (121) 
-2.85739

>  <r_i_glide_ligand_efficiency>  (121) 
-0.0952464

>  <r_i_glide_ligand_efficiency_sa>  (121) 
-0.295953

>  <r_i_glide_ligand_efficiency_ln>  (121) 
-0.649231

>  <r_i_glide_gscore>  (121) 
-2.85739

>  <r_i_glide_lipo>  (121) 
-0.187577

>  <r_i_glide_hbond>  (121) 
0

>  <r_i_glide_metal>  (121) 
-0

>  <r_i_glide_rewards>  (121) 
-0.569404

>  <r_i_glide_evdw>  (121) 
-18.2623

>  <r_i_glide_ecoul>  (121) 
-7.7269

>  <r_i_glide_erotb>  (121) 
0

>  <r_i_glide_esite>  (121) 
-0.0282644

>  <r_i_glide_emodel>  (121) 
-31.4628

>  <r_i_glide_energy>  (121) 
-25.9892

>  <r_i_glide_einternal>  (121) 
0.34034

>  <r_i_glide_intrahb_reward>  (121) 
-0

>  <i_i_glide_confnum>  (121) 
2

>  <i_i_glide_posenum>  (121) 
32

>  <r_i_glide_eff_state_penalty>  (121) 
0

>  <ligand_id>  (121) 
41

>  <original_smiles>  (121) 
CC1OC2C(C)OC3CCN(C)C4CC56c7c(ccc(O)c7OC35)CC4C6(O)C2O1

>  <smiles>  (121) 
[H]Oc1c([H])c([H])c2c3c1OC1([H])C4([H])OC([H])(C([H])([H])[H])C5([H])OC([H])(C([H])([H])[H])OC5([H])C5(O[H])C([H])(C2([H])[H])C([H])(C([H])([H])C315)[N+]([H])(C([H])([H])[H])C([H])([H])C4([H])[H]

$$$$
41:0:2
     RDKit          3D

 60 66  0  0  1  0  0  0  0  0999 V2000
    1.7398   -6.6792    6.3734 C   0  0  0  0  0  0  0  0  0  0  0  0
    2.6060   -6.8894    5.1279 C   0  0  2  0  0  0  0  0  0  0  0  0
    3.9206   -7.0261    5.5285 O   0  0  0  0  0  0  0  0  0  0  0  0
    4.6961   -6.5840    4.4350 C   0  0  2  0  0  0  0  0  0  0  0  0
    6.1266   -6.1770    4.8551 C   0  0  1  0  0  0  0  0  0  0  0  0
    6.5333   -6.7301    6.2295 C   0  0  0  0  0  0  0  0  0  0  0  0
    7.1115   -6.6950    3.9701 O   0  0  0  0  0  0  0  0  0  0  0  0
    7.0050   -6.5255    2.5551 C   0  0  1  0  0  0  0  0  0  0  0  0
    6.7374   -7.9279    1.8759 C   0  0  0  0  0  0  0  0  0  0  0  0
    5.3908   -8.7914    1.8308 C   0  0  0  0  0  0  0  0  0  0  0  0
    3.9465   -8.2849    1.6599 N   0  0  2  0  0  0  0  0  0  0  0  0
    3.0462   -9.4023    1.2678 C   0  0  0  0  0  0  0  0  0  0  0  0
    3.5902   -7.0033    0.9420 C   0  0  1  0  0  0  0  0  0  0  0  0
    4.8005   -6.3558    0.4155 C   0  0  0  0  0  0  0  0  0  0  0  0
    5.0373   -5.1901    1.4205 C   0  0  2  0  0  0  0  0  0  0  0  0
    5.0302   -4.0936    0.4541 C   0  0  0  0  0  0  0  0  0  0  0  0
    3.8548   -3.7327   -0.2206 C   0  0  0  0  0  0  0  0  0  0  0  0
    4.0354   -2.7471   -1.2169 C   0  0  0  0  0  0  0  0  0  0  0  0
    5.3496   -2.2447   -1.4618 C   0  0  0  0  0  0  0  0  0  0  0  0
    6.4858   -2.7304   -0.7488 C   0  0  0  0  0  0  0  0  0  0  0  0
    7.7311   -2.2676   -1.0640 O   0  0  0  0  0  0  0  0  0  0  0  0
    6.3296   -3.7018    0.2613 C   0  0  0  0  0  0  0  0  0  0  0  0
    7.2266   -4.4125    1.0333 O   0  0  0  0  0  0  0  0  0  0  0  0
    6.4430   -5.1512    2.0161 C   0  0  2  0  0  0  0  0  0  0  0  0
    2.6169   -4.6150    0.1897 C   0  0  0  0  0  0  0  0  0  0  0  0
    2.8213   -5.6766    1.3973 C   0  0  2  0  0  0  0  0  0  0  0  0
    3.8113   -4.9761    2.3809 C   0  0  2  0  0  0  0  0  0  0  0  0
    3.4709   -3.6012    2.5946 O   0  0  0  0  0  0  0  0  0  0  0  0
    3.8279   -5.4368    3.8918 C   0  0  1  0  0  0  0  0  0  0  0  0
    2.5122   -5.7959    4.2865 O   0  0  0  0  0  0  0  0  0  0  0  0
    2.1012   -5.8248    6.9483 H   0  0  0  0  0  0  0  0  0  0  0  0
    1.7896   -7.5697    7.0032 H   0  0  0  0  0  0  0  0  0  0  0  0
    0.7008   -6.5103    6.0914 H   0  0  0  0  0  0  0  0  0  0  0  0
    2.2799   -7.7583    4.5529 H   0  0  0  0  0  0  0  0  0  0  0  0
    4.7398   -7.4455    3.8022 H   0  0  0  0  0  0  0  0  0  0  0  0
    6.2159   -5.0933    4.9135 H   0  0  0  0  0  0  0  0  0  0  0  0
    5.8735   -6.3648    7.0168 H   0  0  0  0  0  0  0  0  0  0  0  0
    7.5467   -6.4231    6.4876 H   0  0  0  0  0  0  0  0  0  0  0  0
    6.5029   -7.8204    6.2450 H   0  0  0  0  0  0  0  0  0  0  0  0
    8.0658   -6.3927    2.3320 H   0  0  0  0  0  0  0  0  0  0  0  0
    7.1909   -7.9139    0.8833 H   0  0  0  0  0  0  0  0  0  0  0  0
    7.4403   -8.5933    2.3814 H   0  0  0  0  0  0  0  0  0  0  0  0
    5.5574   -9.5387    1.0520 H   0  0  0  0  0  0  0  0  0  0  0  0
    5.3758   -9.3814    2.7454 H   0  0  0  0  0  0  0  0  0  0  0  0
    3.2365   -9.7251    0.2400 H   0  0  0  0  0  0  0  0  0  0  0  0
    2.0001   -9.1068    1.3517 H   0  0  0  0  0  0  0  0  0  0  0  0
    3.1954  -10.2688    1.9183 H   0  0  0  0  0  0  0  0  0  0  0  0
    3.5582   -7.0833    2.0179 H   0  0  0  0  0  0  0  0  0  0  0  0
    5.6269   -6.9458    0.0868 H   0  0  0  0  0  0  0  0  0  0  0  0
    4.5204   -6.0647   -0.5955 H   0  0  0  0  0  0  0  0  0  0  0  0
    3.2030   -2.3999   -1.8168 H   0  0  0  0  0  0  0  0  0  0  0  0
    5.4917   -1.5146   -2.2381 H   0  0  0  0  0  0  0  0  0  0  0  0
    8.4391   -2.7228   -0.6165 H   0  0  0  0  0  0  0  0  0  0  0  0
    6.4111   -4.4509    2.8439 H   0  0  0  0  0  0  0  0  0  0  0  0
    1.8502   -3.9068    0.4929 H   0  0  0  0  0  0  0  0  0  0  0  0
    2.2248   -5.1096   -0.7023 H   0  0  0  0  0  0  0  0  0  0  0  0
    1.8524   -5.9111    1.8491 H   0  0  0  0  0  0  0  0  0  0  0  0
    3.3994   -3.1817    1.7491 H   0  0  0  0  0  0  0  0  0  0  0  0
    4.0982   -4.5902    4.5253 H   0  0  0  0  0  0  0  0  0  0  0  0
    3.6727   -8.1046    2.6221 H   0  0  0  0  0  0  0  0  0  0  0  0
  1  2  1  0
  1 31  1  0
  1 32  1  0
  1 33  1  0
  2 30  1  0
  2  3  1  0
  2 34  1  6
  3  4  1  0
  4 29  1  0
  4  5  1  0
  4 35  1  6
  5  6  1  0
  5  7  1  0
  5 36  1  1
  6 37  1  0
  6 38  1  0
  6 39  1  0
  7  8  1  0
  8 24  1  0
  8  9  1  0
  8 40  1  6
  9 10  1  0
  9 41  1  0
  9 42  1  0
 10 11  1  0
 10 43  1  0
 10 44  1  0
 11 12  1  0
 11 13  1  0
 11 60  1  1
 12 45  1  0
 12 46  1  0
 12 47  1  0
 13 26  1  0
 13 14  1  0
 13 48  1  6
 15 14  1  6
 14 49  1  0
 14 50  1  0
 15 24  1  0
 15 27  1  0
 15 16  1  0
 16 22  2  0
 16 17  1  0
 17 18  2  0
 17 25  1  0
 18 19  1  0
 18 51  1  0
 19 20  2  0
 19 52  1  0
 20 21  1  0
 20 22  1  0
 21 53  1  0
 22 23  1  0
 23 24  1  0
 24 54  1  1
 25 26  1  0
 25 55  1  0
 25 56  1  0
 26 27  1  0
 26 57  1  1
 27 28  1  1
 27 29  1  0
 28 58  1  0
 29 30  1  0
 29 59  1  1
M  CHG  1  11   1
M  END
>  <i_m_ct_stereo_status>  (122) 
1

>  <s_m_source_file>  (122) 
/var/tmp/pbs.5076255.sched01/tmpy176o0g7/39stoh4b52.sdf

>  <i_m_source_file_index>  (122) 
15

>  <i_lp_mmshare_version>  (122) 
48012

>  <i_f3d_flags>  (122) 
0

>  <s_epik_input>  (122) 
W0NIMl0xW0NIMl1OKFtDSDNdKVtDQEBIXShbQ0gyXTIpW0NASF0oW0NIMl0zKVtDQEBdNChbT0hdKVtDQEBIXShPW0NAQEhdKE81KVtDSDNdKVtDQEhdNVtDQEBIXShbQ0gzXSlPW0NIXTFbQ0BIXTZPYzdjKFtPSF0pW2NIXVtjSF1jM2M3W0NAXTI0Ng==

>  <s_epik_cmdline>  (122) 
J2VwaWtfcHl0aG9uJywgJy1waHQnLCAnMi4wJywgJy1waCcsICc3LjAnLCAnLXRuJywgJzgnLCAnLW1hJywgJzIwMCcsICctaW1hZScsICc8aW5maWxlLm1hZT4nLCAnLW9tYWUnLCAnPG91dGZpbGUubWFlPic=

>  <r_lp_tautomer_probability>  (122) 
1

>  <r_epik_Ionization_Penalty>  (122) 
0.0258719

>  <r_epik_Ionization_Penalty_Charging>  (122) 
0.0221228

>  <r_epik_Ionization_Penalty_Neutral>  (122) 
0.00374916

>  <r_epik_State_Penalty>  (122) 
0.0178315

>  <r_epik_Charging_Adjusted_Penalty>  (122) 
0.0399543

>  <i_epik_Tot_Q>  (122) 
1

>  <i_epik_Tot_abs_Q>  (122) 
1

>  <s_epik_Chemistry_Notes>  (122) 
This compound contains an acetal/aminal-like group ( X-CH(R)-Y where X, Y are N, S, or O) that may be acid/base labile, releasing an aldehyde.

>  <s_lp_Force_Field>  (122) 
OPLS3e

>  <r_lp_Energy>  (122) 
192.213

>  <b_lp_Chiralities_Consistent>  (122) 
1

>  <s_lp_Variant>  (122) 
41:0-1

>  <s_i_glide_gridfile>  (122) 
pfpi4k_grid

>  <i_i_glide_lignum>  (122) 
15

>  <i_i_glide_rotatable_bonds>  (122) 
2

>  <r_i_docking_score>  (122) 
-2.85332

>  <r_i_glide_ligand_efficiency>  (122) 
-0.0951108

>  <r_i_glide_ligand_efficiency_sa>  (122) 
-0.295531

>  <r_i_glide_ligand_efficiency_ln>  (122) 
-0.648306

>  <r_i_glide_gscore>  (122) 
-2.85332

>  <r_i_glide_lipo>  (122) 
-0.572424

>  <r_i_glide_hbond>  (122) 
0

>  <r_i_glide_metal>  (122) 
-0

>  <r_i_glide_rewards>  (122) 
-0.569404

>  <r_i_glide_evdw>  (122) 
-20.4461

>  <r_i_glide_ecoul>  (122) 
-4.51233

>  <r_i_glide_erotb>  (122) 
0

>  <r_i_glide_esite>  (122) 
-0.0123392

>  <r_i_glide_emodel>  (122) 
-30.6298

>  <r_i_glide_energy>  (122) 
-24.9585

>  <r_i_glide_einternal>  (122) 
0.0899954

>  <r_i_glide_intrahb_reward>  (122) 
-0

>  <i_i_glide_confnum>  (122) 
1

>  <i_i_glide_posenum>  (122) 
20

>  <r_i_glide_eff_state_penalty>  (122) 
0

>  <ligand_id>  (122) 
41

>  <original_smiles>  (122) 
CC1OC2C(C)OC3CCN(C)C4CC56c7c(ccc(O)c7OC35)CC4C6(O)C2O1

>  <smiles>  (122) 
[H]Oc1c([H])c([H])c2c3c1OC1([H])C4([H])OC([H])(C([H])([H])[H])C5([H])OC([H])(C([H])([H])[H])OC5([H])C5(O[H])C([H])(C2([H])[H])C([H])(C([H])([H])C315)[N+]([H])(C([H])([H])[H])C([H])([H])C4([H])[H]

$$$$
41:1:0
     RDKit          3D

 59 65  0  0  1  0  0  0  0  0999 V2000
   -1.6946   -8.5914    2.5409 C   0  0  0  0  0  0  0  0  0  0  0  0
   -0.2875   -8.2315    3.0265 C   0  0  2  0  0  0  0  0  0  0  0  0
   -0.4082   -7.4643    4.1677 O   0  0  0  0  0  0  0  0  0  0  0  0
    0.8167   -6.7694    4.2571 C   0  0  2  0  0  0  0  0  0  0  0  0
    0.6839   -5.5534    5.2090 C   0  0  1  0  0  0  0  0  0  0  0  0
   -0.4146   -5.7418    6.2661 C   0  0  0  0  0  0  0  0  0  0  0  0
    1.8477   -5.3367    5.9984 O   0  0  0  0  0  0  0  0  0  0  0  0
    3.1424   -5.1908    5.4096 C   0  0  1  0  0  0  0  0  0  0  0  0
    4.0647   -6.4207    5.9250 C   0  0  0  0  0  0  0  0  0  0  0  0
    4.1196   -7.9420    5.3802 C   0  0  0  0  0  0  0  0  0  0  0  0
    4.5638   -8.3385    3.9903 N   0  0  0  0  0  0  0  0  0  0  0  0
    4.1347   -9.7039    3.7105 C   0  0  0  0  0  0  0  0  0  0  0  0
    3.9685   -7.3890    3.0771 C   0  0  1  0  0  0  0  0  0  0  0  0
    4.7206   -6.1522    3.1744 C   0  0  0  0  0  0  0  0  0  0  0  0
    3.5215   -5.2884    2.7814 C   0  0  2  0  0  0  0  0  0  0  0  0
    4.2177   -4.4678    1.8278 C   0  0  0  0  0  0  0  0  0  0  0  0
    4.6527   -5.0182    0.6088 C   0  0  0  0  0  0  0  0  0  0  0  0
    5.4890   -4.1487   -0.1235 C   0  0  0  0  0  0  0  0  0  0  0  0
    5.8251   -2.8701    0.4239 C   0  0  0  0  0  0  0  0  0  0  0  0
    5.3876   -2.4543    1.7182 C   0  0  0  0  0  0  0  0  0  0  0  0
    5.7995   -1.2558    2.2330 O   0  0  0  0  0  0  0  0  0  0  0  0
    4.5353   -3.2991    2.4736 C   0  0  0  0  0  0  0  0  0  0  0  0
    4.0871   -3.2725    3.7925 O   0  0  0  0  0  0  0  0  0  0  0  0
    3.1880   -4.4138    3.9895 C   0  0  2  0  0  0  0  0  0  0  0  0
    4.2996   -6.5674    0.4713 C   0  0  0  0  0  0  0  0  0  0  0  0
    3.3702   -7.2588    1.6159 C   0  0  2  0  0  0  0  0  0  0  0  0
    2.3943   -6.1168    2.0297 C   0  0  2  0  0  0  0  0  0  0  0  0
    1.8595   -5.4609    0.8778 O   0  0  0  0  0  0  0  0  0  0  0  0
    1.0184   -6.4240    2.7548 C   0  0  1  0  0  0  0  0  0  0  0  0
    0.3604   -7.4771    2.0702 O   0  0  0  0  0  0  0  0  0  0  0  0
   -2.2915   -7.6869    2.4133 H   0  0  0  0  0  0  0  0  0  0  0  0
   -2.1822   -9.2294    3.2821 H   0  0  0  0  0  0  0  0  0  0  0  0
   -1.6393   -9.1326    1.5955 H   0  0  0  0  0  0  0  0  0  0  0  0
    0.3229   -9.1189    3.2093 H   0  0  0  0  0  0  0  0  0  0  0  0
    1.4726   -7.5134    4.6909 H   0  0  0  0  0  0  0  0  0  0  0  0
    0.4170   -4.6545    4.6541 H   0  0  0  0  0  0  0  0  0  0  0  0
   -1.3949   -5.8571    5.8047 H   0  0  0  0  0  0  0  0  0  0  0  0
   -0.4690   -4.8779    6.9285 H   0  0  0  0  0  0  0  0  0  0  0  0
   -0.2140   -6.6202    6.8792 H   0  0  0  0  0  0  0  0  0  0  0  0
    3.5209   -4.3929    6.0478 H   0  0  0  0  0  0  0  0  0  0  0  0
    5.0859   -6.0625    6.0472 H   0  0  0  0  0  0  0  0  0  0  0  0
    3.7623   -6.5412    6.9673 H   0  0  0  0  0  0  0  0  0  0  0  0
    4.8083   -8.4694    6.0386 H   0  0  0  0  0  0  0  0  0  0  0  0
    3.1550   -8.4068    5.5891 H   0  0  0  0  0  0  0  0  0  0  0  0
    4.4439  -10.0147    2.7117 H   0  0  0  0  0  0  0  0  0  0  0  0
    3.0518   -9.8191    3.7843 H   0  0  0  0  0  0  0  0  0  0  0  0
    4.5912  -10.3928    4.4222 H   0  0  0  0  0  0  0  0  0  0  0  0
    3.0597   -7.3729    3.6263 H   0  0  0  0  0  0  0  0  0  0  0  0
    5.2754   -5.8294    4.0383 H   0  0  0  0  0  0  0  0  0  0  0  0
    5.5774   -6.2538    2.5062 H   0  0  0  0  0  0  0  0  0  0  0  0
    5.9123   -4.4566   -1.0685 H   0  0  0  0  0  0  0  0  0  0  0  0
    6.4833   -2.2245   -0.1325 H   0  0  0  0  0  0  0  0  0  0  0  0
    6.4220   -0.7924    1.6909 H   0  0  0  0  0  0  0  0  0  0  0  0
    2.2222   -3.9436    3.8132 H   0  0  0  0  0  0  0  0  0  0  0  0
    3.8062   -6.6745   -0.4888 H   0  0  0  0  0  0  0  0  0  0  0  0
    5.2329   -7.1228    0.3927 H   0  0  0  0  0  0  0  0  0  0  0  0
    2.8592   -8.1584    1.2764 H   0  0  0  0  0  0  0  0  0  0  0  0
    2.5898   -5.2414    0.3128 H   0  0  0  0  0  0  0  0  0  0  0  0
    0.3785   -5.5535    2.6190 H   0  0  0  0  0  0  0  0  0  0  0  0
  1  2  1  0
  1 31  1  0
  1 32  1  0
  1 33  1  0
  2 30  1  0
  2  3  1  0
  2 34  1  1
  3  4  1  0
  4 29  1  0
  4  5  1  0
  4 35  1  1
  5  6  1  0
  5  7  1  0
  5 36  1  6
  6 37  1  0
  6 38  1  0
  6 39  1  0
  7  8  1  0
  8 24  1  0
  8  9  1  0
  8 40  1  1
  9 10  1  0
  9 41  1  0
  9 42  1  0
 10 11  1  0
 10 43  1  0
 10 44  1  0
 11 12  1  0
 11 13  1  0
 12 45  1  0
 12 46  1  0
 12 47  1  0
 13 26  1  0
 13 14  1  0
 13 48  1  1
 15 14  1  1
 14 49  1  0
 14 50  1  0
 15 24  1  0
 15 27  1  0
 15 16  1  0
 16 22  2  0
 16 17  1  0
 17 18  2  0
 17 25  1  0
 18 19  1  0
 18 51  1  0
 19 20  2  0
 19 52  1  0
 20 21  1  0
 20 22  1  0
 21 53  1  0
 22 23  1  0
 23 24  1  0
 24 54  1  6
 25 26  1  0
 25 55  1  0
 25 56  1  0
 26 27  1  0
 26 57  1  6
 27 28  1  6
 27 29  1  0
 28 58  1  0
 29 30  1  0
 29 59  1  1
M  END
>  <i_m_ct_stereo_status>  (123) 
1

>  <s_m_source_file>  (123) 
/var/tmp/pbs.5076255.sched01/tmpy176o0g7/39stoh4b52.sdf

>  <i_m_source_file_index>  (123) 
16

>  <i_lp_mmshare_version>  (123) 
48012

>  <i_f3d_flags>  (123) 
0

>  <s_epik_input>  (123) 
W0NIMl0xW0NIMl1OKFtDSDNdKVtDQEBIXShbQ0gyXTIpW0NASF0oW0NIMl0zKVtDQEBdNChbT0hdKVtDQEBIXShPW0NAQEhdKE81KVtDSDNdKVtDQEhdNVtDQEBIXShbQ0gzXSlPW0NIXTFbQ0BIXTZPYzdjKFtPSF0pW2NIXVtjSF1jM2M3W0NAXTI0Ng==

>  <s_epik_cmdline>  (123) 
J2VwaWtfcHl0aG9uJywgJy1waHQnLCAnMi4wJywgJy1waCcsICc3LjAnLCAnLXRuJywgJzgnLCAnLW1hJywgJzIwMCcsICctaW1hZScsICc8aW5maWxlLm1hZT4nLCAnLW9tYWUnLCAnPG91dGZpbGUubWFlPic=

>  <r_lp_tautomer_probability>  (123) 
1

>  <r_epik_Ionization_Penalty>  (123) 
1.95994

>  <r_epik_Ionization_Penalty_Charging>  (123) 
0

>  <r_epik_Ionization_Penalty_Neutral>  (123) 
1.95994

>  <r_epik_State_Penalty>  (123) 
2.08459

>  <r_epik_Charging_Adjusted_Penalty>  (123) 
2.08459

>  <i_epik_Tot_Q>  (123) 
0

>  <i_epik_Tot_abs_Q>  (123) 
0

>  <s_epik_Chemistry_Notes>  (123) 
This compound contains an acetal/aminal-like group ( X-CH(R)-Y where X, Y are N, S, or O) that may be acid/base labile, releasing an aldehyde.

>  <s_lp_Force_Field>  (123) 
OPLS3e

>  <r_lp_Energy>  (123) 
191.263

>  <b_lp_Chiralities_Consistent>  (123) 
1

>  <s_lp_Variant>  (123) 
41:0-2

>  <s_i_glide_gridfile>  (123) 
pfpi4k_grid

>  <i_i_glide_lignum>  (123) 
16

>  <i_i_glide_rotatable_bonds>  (123) 
2

>  <r_i_docking_score>  (123) 
-2.88657

>  <r_i_glide_ligand_efficiency>  (123) 
-0.0962189

>  <r_i_glide_ligand_efficiency_sa>  (123) 
-0.298975

>  <r_i_glide_ligand_efficiency_ln>  (123) 
-0.65586

>  <r_i_glide_gscore>  (123) 
-2.88657

>  <r_i_glide_lipo>  (123) 
-0.609866

>  <r_i_glide_hbond>  (123) 
0

>  <r_i_glide_metal>  (123) 
-0

>  <r_i_glide_rewards>  (123) 
-0.576276

>  <r_i_glide_evdw>  (123) 
-21.1808

>  <r_i_glide_ecoul>  (123) 
-3.97428

>  <r_i_glide_erotb>  (123) 
0

>  <r_i_glide_esite>  (123) 
-0.0452435

>  <r_i_glide_emodel>  (123) 
-29.8807

>  <r_i_glide_energy>  (123) 
-25.1551

>  <r_i_glide_einternal>  (123) 
0.0582007

>  <r_i_glide_intrahb_reward>  (123) 
-0

>  <i_i_glide_confnum>  (123) 
2

>  <i_i_glide_posenum>  (123) 
12

>  <r_i_glide_eff_state_penalty>  (123) 
0

>  <ligand_id>  (123) 
41

>  <original_smiles>  (123) 
CC1OC2C(C)OC3CCN(C)C4CC56c7c(ccc(O)c7OC35)CC4C6(O)C2O1

>  <smiles>  (123) 
[H]Oc1c([H])c([H])c2c3c1OC1([H])C4([H])OC([H])(C([H])([H])[H])C5([H])OC([H])(C([H])([H])[H])OC5([H])C5(O[H])C([H])(C2([H])[H])C([H])(N(C([H])([H])[H])C([H])([H])C4([H])[H])C([H])([H])C315

$$$$
41:1:1
     RDKit          3D

 59 65  0  0  1  0  0  0  0  0999 V2000
   -1.4764   -8.7908    2.4579 C   0  0  0  0  0  0  0  0  0  0  0  0
   -0.0999   -8.3004    2.9189 C   0  0  2  0  0  0  0  0  0  0  0  0
   -0.2793   -7.4805    4.0147 O   0  0  0  0  0  0  0  0  0  0  0  0
    0.8891   -6.6912    4.0638 C   0  0  2  0  0  0  0  0  0  0  0  0
    0.6587   -5.4367    4.9446 C   0  0  1  0  0  0  0  0  0  0  0  0
   -0.4278   -5.6471    6.0117 C   0  0  0  0  0  0  0  0  0  0  0  0
    1.7990   -5.0845    5.7203 O   0  0  0  0  0  0  0  0  0  0  0  0
    3.0830   -4.8789    5.1263 C   0  0  1  0  0  0  0  0  0  0  0  0
    4.0905   -6.0061    5.7132 C   0  0  0  0  0  0  0  0  0  0  0  0
    4.2620   -7.5483    5.2570 C   0  0  0  0  0  0  0  0  0  0  0  0
    4.7396   -7.9897    3.8914 N   0  0  0  0  0  0  0  0  0  0  0  0
    4.4167   -9.3980    3.6936 C   0  0  0  0  0  0  0  0  0  0  0  0
    4.0801   -7.1423    2.9220 C   0  0  1  0  0  0  0  0  0  0  0  0
    4.7393   -5.8518    2.9534 C   0  0  0  0  0  0  0  0  0  0  0  0
    3.4833   -5.1015    2.5117 C   0  0  2  0  0  0  0  0  0  0  0  0
    4.1264   -4.2917    1.5126 C   0  0  0  0  0  0  0  0  0  0  0  0
    4.6068   -4.8742    0.3266 C   0  0  0  0  0  0  0  0  0  0  0  0
    5.3770   -3.9866   -0.4554 C   0  0  0  0  0  0  0  0  0  0  0  0
    5.6113   -2.6579    0.0203 C   0  0  0  0  0  0  0  0  0  0  0  0
    5.1336   -2.2074    1.2879 C   0  0  0  0  0  0  0  0  0  0  0  0
    5.4431   -0.9534    1.7304 O   0  0  0  0  0  0  0  0  0  0  0  0
    4.3475   -3.0687    2.0895 C   0  0  0  0  0  0  0  0  0  0  0  0
    3.8895   -2.9906    3.4031 O   0  0  0  0  0  0  0  0  0  0  0  0
    3.0790   -4.1838    3.6641 C   0  0  2  0  0  0  0  0  0  0  0  0
    4.3655   -6.4480    0.2662 C   0  0  0  0  0  0  0  0  0  0  0  0
    3.4809   -7.1347    1.4514 C   0  0  2  0  0  0  0  0  0  0  0  0
    2.4224   -6.0413    1.7986 C   0  0  2  0  0  0  0  0  0  0  0  0
    1.8462   -5.4554    0.6262 O   0  0  0  0  0  0  0  0  0  0  0  0
    1.0722   -6.4184    2.5428 C   0  0  1  0  0  0  0  0  0  0  0  0
    0.4984   -7.5560    1.9217 O   0  0  0  0  0  0  0  0  0  0  0  0
   -2.1357   -7.9433    2.2629 H   0  0  0  0  0  0  0  0  0  0  0  0
   -1.9226   -9.4146    3.2365 H   0  0  0  0  0  0  0  0  0  0  0  0
   -1.3859   -9.3880    1.5510 H   0  0  0  0  0  0  0  0  0  0  0  0
    0.5726   -9.1294    3.1509 H   0  0  0  0  0  0  0  0  0  0  0  0
    1.5955   -7.3579    4.5421 H   0  0  0  0  0  0  0  0  0  0  0  0
    0.3280   -4.5939    4.3383 H   0  0  0  0  0  0  0  0  0  0  0  0
   -1.3934   -5.8680    5.5596 H   0  0  0  0  0  0  0  0  0  0  0  0
   -0.5519   -4.7522    6.6208 H   0  0  0  0  0  0  0  0  0  0  0  0
   -0.1726   -6.4727    6.6753 H   0  0  0  0  0  0  0  0  0  0  0  0
    3.3978   -4.0202    5.7176 H   0  0  0  0  0  0  0  0  0  0  0  0
    5.0819   -5.5669    5.8174 H   0  0  0  0  0  0  0  0  0  0  0  0
    3.7906   -6.0883    6.7600 H   0  0  0  0  0  0  0  0  0  0  0  0
    4.9846   -7.9833    5.9464 H   0  0  0  0  0  0  0  0  0  0  0  0
    3.3341   -8.0710    5.4934 H   0  0  0  0  0  0  0  0  0  0  0  0
    4.7534   -9.7413    2.7145 H   0  0  0  0  0  0  0  0  0  0  0  0
    3.3446   -9.5901    3.7718 H   0  0  0  0  0  0  0  0  0  0  0  0
    4.9190  -10.0102    4.4439 H   0  0  0  0  0  0  0  0  0  0  0  0
    3.1697   -7.1642    3.4682 H   0  0  0  0  0  0  0  0  0  0  0  0
    5.2651   -5.4393    3.7985 H   0  0  0  0  0  0  0  0  0  0  0  0
    5.6054   -5.9278    2.2936 H   0  0  0  0  0  0  0  0  0  0  0  0
    5.8224   -4.3103   -1.3842 H   0  0  0  0  0  0  0  0  0  0  0  0
    6.2188   -1.9867   -0.5637 H   0  0  0  0  0  0  0  0  0  0  0  0
    5.0595   -0.7641    2.5739 H   0  0  0  0  0  0  0  0  0  0  0  0
    2.0822   -3.7986    3.4579 H   0  0  0  0  0  0  0  0  0  0  0  0
    3.8989   -6.6522   -0.6924 H   0  0  0  0  0  0  0  0  0  0  0  0
    5.3390   -6.9345    0.2326 H   0  0  0  0  0  0  0  0  0  0  0  0
    3.0444   -8.0911    1.1660 H   0  0  0  0  0  0  0  0  0  0  0  0
    2.5477   -5.3163   -0.0026 H   0  0  0  0  0  0  0  0  0  0  0  0
    0.3650   -5.6117    2.3605 H   0  0  0  0  0  0  0  0  0  0  0  0
  1  2  1  0
  1 31  1  0
  1 32  1  0
  1 33  1  0
  2 30  1  0
  2  3  1  0
  2 34  1  1
  3  4  1  0
  4 29  1  0
  4  5  1  0
  4 35  1  1
  5  6  1  0
  5  7  1  0
  5 36  1  6
  6 37  1  0
  6 38  1  0
  6 39  1  0
  7  8  1  0
  8 24  1  0
  8  9  1  0
  8 40  1  1
  9 10  1  0
  9 41  1  0
  9 42  1  0
 10 11  1  0
 10 43  1  0
 10 44  1  0
 11 12  1  0
 11 13  1  0
 12 45  1  0
 12 46  1  0
 12 47  1  0
 13 26  1  0
 13 14  1  0
 13 48  1  1
 15 14  1  1
 14 49  1  0
 14 50  1  0
 15 24  1  0
 15 27  1  0
 15 16  1  0
 16 22  2  0
 16 17  1  0
 17 18  2  0
 17 25  1  0
 18 19  1  0
 18 51  1  0
 19 20  2  0
 19 52  1  0
 20 21  1  0
 20 22  1  0
 21 53  1  0
 22 23  1  0
 23 24  1  0
 24 54  1  6
 25 26  1  0
 25 55  1  0
 25 56  1  0
 26 27  1  0
 26 57  1  6
 27 28  1  6
 27 29  1  0
 28 58  1  0
 29 30  1  0
 29 59  1  6
M  END
>  <i_m_ct_stereo_status>  (124) 
1

>  <s_m_source_file>  (124) 
/var/tmp/pbs.5076255.sched01/tmpy176o0g7/39stoh4b52.sdf

>  <i_m_source_file_index>  (124) 
16

>  <i_lp_mmshare_version>  (124) 
48012

>  <i_f3d_flags>  (124) 
0

>  <s_epik_input>  (124) 
W0NIMl0xW0NIMl1OKFtDSDNdKVtDQEBIXShbQ0gyXTIpW0NASF0oW0NIMl0zKVtDQEBdNChbT0hdKVtDQEBIXShPW0NAQEhdKE81KVtDSDNdKVtDQEhdNVtDQEBIXShbQ0gzXSlPW0NIXTFbQ0BIXTZPYzdjKFtPSF0pW2NIXVtjSF1jM2M3W0NAXTI0Ng==

>  <s_epik_cmdline>  (124) 
J2VwaWtfcHl0aG9uJywgJy1waHQnLCAnMi4wJywgJy1waCcsICc3LjAnLCAnLXRuJywgJzgnLCAnLW1hJywgJzIwMCcsICctaW1hZScsICc8aW5maWxlLm1hZT4nLCAnLW9tYWUnLCAnPG91dGZpbGUubWFlPic=

>  <r_lp_tautomer_probability>  (124) 
1

>  <r_epik_Ionization_Penalty>  (124) 
1.95994

>  <r_epik_Ionization_Penalty_Charging>  (124) 
0

>  <r_epik_Ionization_Penalty_Neutral>  (124) 
1.95994

>  <r_epik_State_Penalty>  (124) 
2.08459

>  <r_epik_Charging_Adjusted_Penalty>  (124) 
2.08459

>  <i_epik_Tot_Q>  (124) 
0

>  <i_epik_Tot_abs_Q>  (124) 
0

>  <s_epik_Chemistry_Notes>  (124) 
This compound contains an acetal/aminal-like group ( X-CH(R)-Y where X, Y are N, S, or O) that may be acid/base labile, releasing an aldehyde.

>  <s_lp_Force_Field>  (124) 
OPLS3e

>  <r_lp_Energy>  (124) 
191.263

>  <b_lp_Chiralities_Consistent>  (124) 
1

>  <s_lp_Variant>  (124) 
41:0-2

>  <s_i_glide_gridfile>  (124) 
pfpi4k_grid

>  <i_i_glide_lignum>  (124) 
16

>  <i_i_glide_rotatable_bonds>  (124) 
2

>  <r_i_docking_score>  (124) 
-2.7276

>  <r_i_glide_ligand_efficiency>  (124) 
-0.09092

>  <r_i_glide_ligand_efficiency_sa>  (124) 
-0.282509

>  <r_i_glide_ligand_efficiency_ln>  (124) 
-0.61974

>  <r_i_glide_gscore>  (124) 
-2.7276

>  <r_i_glide_lipo>  (124) 
-0.551508

>  <r_i_glide_hbond>  (124) 
0

>  <r_i_glide_metal>  (124) 
-0

>  <r_i_glide_rewards>  (124) 
-0.576276

>  <r_i_glide_evdw>  (124) 
-21.5176

>  <r_i_glide_ecoul>  (124) 
-3.21779

>  <r_i_glide_erotb>  (124) 
0

>  <r_i_glide_esite>  (124) 
-0.0412681

>  <r_i_glide_emodel>  (124) 
-29.1851

>  <r_i_glide_energy>  (124) 
-24.7354

>  <r_i_glide_einternal>  (124) 
0.0991337

>  <r_i_glide_intrahb_reward>  (124) 
-0

>  <i_i_glide_confnum>  (124) 
2

>  <i_i_glide_posenum>  (124) 
38

>  <r_i_glide_eff_state_penalty>  (124) 
0

>  <ligand_id>  (124) 
41

>  <original_smiles>  (124) 
CC1OC2C(C)OC3CCN(C)C4CC56c7c(ccc(O)c7OC35)CC4C6(O)C2O1

>  <smiles>  (124) 
[H]Oc1c([H])c([H])c2c3c1OC1([H])C4([H])OC([H])(C([H])([H])[H])C5([H])OC([H])(C([H])([H])[H])OC5([H])C5(O[H])C([H])(C2([H])[H])C([H])(N(C([H])([H])[H])C([H])([H])C4([H])[H])C([H])([H])C315

$$$$
41:1:2
     RDKit          3D

 59 65  0  0  1  0  0  0  0  0999 V2000
   -0.4845   -9.1398    2.8834 C   0  0  0  0  0  0  0  0  0  0  0  0
    0.7244   -8.2688    3.2407 C   0  0  2  0  0  0  0  0  0  0  0  0
    0.3390   -7.3625    4.2092 O   0  0  0  0  0  0  0  0  0  0  0  0
    1.2784   -6.3139    4.1094 C   0  0  2  0  0  0  0  0  0  0  0  0
    0.7396   -5.0374    4.8033 C   0  0  1  0  0  0  0  0  0  0  0  0
   -0.2747   -5.3467    5.9172 C   0  0  0  0  0  0  0  0  0  0  0  0
    1.7530   -4.3094    5.4888 O   0  0  0  0  0  0  0  0  0  0  0  0
    2.9497   -3.8872    4.8313 C   0  0  1  0  0  0  0  0  0  0  0  0
    4.1978   -4.6314    5.5468 C   0  0  0  0  0  0  0  0  0  0  0  0
    4.7448   -6.1358    5.3195 C   0  0  0  0  0  0  0  0  0  0  0  0
    5.3283   -6.6463    4.0218 N   0  0  0  0  0  0  0  0  0  0  0  0
    5.3626   -8.1031    4.0428 C   0  0  0  0  0  0  0  0  0  0  0  0
    4.4916   -6.1388    2.9570 C   0  0  1  0  0  0  0  0  0  0  0  0
    4.8132   -4.7371    2.7744 C   0  0  0  0  0  0  0  0  0  0  0  0
    3.4148   -4.3919    2.2583 C   0  0  2  0  0  0  0  0  0  0  0  0
    3.8480   -3.6098    1.1339 C   0  0  0  0  0  0  0  0  0  0  0  0
    4.4690   -4.2316    0.0365 C   0  0  0  0  0  0  0  0  0  0  0  0
    5.0129   -3.3106   -0.8861 C   0  0  0  0  0  0  0  0  0  0  0  0
    4.9055   -1.9051   -0.6209 C   0  0  0  0  0  0  0  0  0  0  0  0
    4.3276   -1.3990    0.5835 C   0  0  0  0  0  0  0  0  0  0  0  0
    4.3384   -0.0588    0.8439 O   0  0  0  0  0  0  0  0  0  0  0  0
    3.7620   -2.2960    1.5204 C   0  0  0  0  0  0  0  0  0  0  0  0
    3.2905   -2.1407    2.8244 O   0  0  0  0  0  0  0  0  0  0  0  0
    2.7892   -3.4407    3.2815 C   0  0  2  0  0  0  0  0  0  0  0  0
    4.6203   -5.8087    0.2200 C   0  0  0  0  0  0  0  0  0  0  0  0
    3.9236   -6.5020    1.5208 C   0  0  2  0  0  0  0  0  0  0  0  0
    2.6252   -5.6642    1.7308 C   0  0  2  0  0  0  0  0  0  0  0  0
    1.9351   -5.4550    0.4947 O   0  0  0  0  0  0  0  0  0  0  0  0
    1.4016   -6.2372    2.5604 C   0  0  1  0  0  0  0  0  0  0  0  0
    1.1485   -7.5641    2.1328 O   0  0  0  0  0  0  0  0  0  0  0  0
   -1.3294   -8.5173    2.5842 H   0  0  0  0  0  0  0  0  0  0  0  0
   -0.7753   -9.7264    3.7564 H   0  0  0  0  0  0  0  0  0  0  0  0
   -0.2338   -9.8261    2.0787 H   0  0  0  0  0  0  0  0  0  0  0  0
    1.5739   -8.8667    3.5822 H   0  0  0  0  0  0  0  0  0  0  0  0
    2.1220   -6.7115    4.6589 H   0  0  0  0  0  0  0  0  0  0  0  0
    0.2241   -4.3982    4.0880 H   0  0  0  0  0  0  0  0  0  0  0  0
   -1.1533   -5.8633    5.5301 H   0  0  0  0  0  0  0  0  0  0  0  0
   -0.6211   -4.4284    6.3904 H   0  0  0  0  0  0  0  0  0  0  0  0
    0.1687   -5.9749    6.6908 H   0  0  0  0  0  0  0  0  0  0  0  0
    3.0410   -2.8996    5.2799 H   0  0  0  0  0  0  0  0  0  0  0  0
    5.0501   -3.9537    5.5543 H   0  0  0  0  0  0  0  0  0  0  0  0
    3.9210   -4.6250    6.6034 H   0  0  0  0  0  0  0  0  0  0  0  0
    5.5465   -6.2734    6.0443 H   0  0  0  0  0  0  0  0  0  0  0  0
    3.9668   -6.8249    5.6528 H   0  0  0  0  0  0  0  0  0  0  0  0
    5.7834   -8.4957    3.1168 H   0  0  0  0  0  0  0  0  0  0  0  0
    4.3691   -8.5352    4.1787 H   0  0  0  0  0  0  0  0  0  0  0  0
    5.9929   -8.4517    4.8637 H   0  0  0  0  0  0  0  0  0  0  0  0
    3.6100   -6.2947    3.5263 H   0  0  0  0  0  0  0  0  0  0  0  0
    5.2130   -4.0887    3.5363 H   0  0  0  0  0  0  0  0  0  0  0  0
    5.6763   -4.6965    2.1092 H   0  0  0  0  0  0  0  0  0  0  0  0
    5.5494   -3.6525   -1.7588 H   0  0  0  0  0  0  0  0  0  0  0  0
    5.3355   -1.2106   -1.3214 H   0  0  0  0  0  0  0  0  0  0  0  0
    4.6733    0.4735    0.1343 H   0  0  0  0  0  0  0  0  0  0  0  0
    1.7292   -3.3454    3.0497 H   0  0  0  0  0  0  0  0  0  0  0  0
    4.2133   -6.2632   -0.6798 H   0  0  0  0  0  0  0  0  0  0  0  0
    5.6824   -6.0470    0.2203 H   0  0  0  0  0  0  0  0  0  0  0  0
    3.7300   -7.5641    1.3882 H   0  0  0  0  0  0  0  0  0  0  0  0
    2.5822   -5.2251   -0.1620 H   0  0  0  0  0  0  0  0  0  0  0  0
    0.5159   -5.6712    2.2741 H   0  0  0  0  0  0  0  0  0  0  0  0
  1  2  1  0
  1 31  1  0
  1 32  1  0
  1 33  1  0
  2 30  1  0
  2  3  1  0
  2 34  1  1
  3  4  1  0
  4 29  1  0
  4  5  1  0
  4 35  1  1
  5  6  1  0
  5  7  1  0
  5 36  1  6
  6 37  1  0
  6 38  1  0
  6 39  1  0
  7  8  1  0
  8 24  1  0
  8  9  1  0
  8 40  1  1
  9 10  1  0
  9 41  1  0
  9 42  1  0
 10 11  1  0
 10 43  1  0
 10 44  1  0
 11 12  1  0
 11 13  1  0
 12 45  1  0
 12 46  1  0
 12 47  1  0
 13 26  1  0
 13 14  1  0
 13 48  1  1
 15 14  1  1
 14 49  1  0
 14 50  1  0
 15 24  1  0
 15 27  1  0
 15 16  1  0
 16 22  2  0
 16 17  1  0
 17 18  2  0
 17 25  1  0
 18 19  1  0
 18 51  1  0
 19 20  2  0
 19 52  1  0
 20 21  1  0
 20 22  1  0
 21 53  1  0
 22 23  1  0
 23 24  1  0
 24 54  1  6
 25 26  1  0
 25 55  1  0
 25 56  1  0
 26 27  1  0
 26 57  1  6
 27 28  1  6
 27 29  1  0
 28 58  1  0
 29 30  1  0
 29 59  1  6
M  END
>  <i_m_ct_stereo_status>  (125) 
1

>  <s_m_source_file>  (125) 
/var/tmp/pbs.5076255.sched01/tmpy176o0g7/39stoh4b52.sdf

>  <i_m_source_file_index>  (125) 
16

>  <i_lp_mmshare_version>  (125) 
48012

>  <i_f3d_flags>  (125) 
0

>  <s_epik_input>  (125) 
W0NIMl0xW0NIMl1OKFtDSDNdKVtDQEBIXShbQ0gyXTIpW0NASF0oW0NIMl0zKVtDQEBdNChbT0hdKVtDQEBIXShPW0NAQEhdKE81KVtDSDNdKVtDQEhdNVtDQEBIXShbQ0gzXSlPW0NIXTFbQ0BIXTZPYzdjKFtPSF0pW2NIXVtjSF1jM2M3W0NAXTI0Ng==

>  <s_epik_cmdline>  (125) 
J2VwaWtfcHl0aG9uJywgJy1waHQnLCAnMi4wJywgJy1waCcsICc3LjAnLCAnLXRuJywgJzgnLCAnLW1hJywgJzIwMCcsICctaW1hZScsICc8aW5maWxlLm1hZT4nLCAnLW9tYWUnLCAnPG91dGZpbGUubWFlPic=

>  <r_lp_tautomer_probability>  (125) 
1

>  <r_epik_Ionization_Penalty>  (125) 
1.95994

>  <r_epik_Ionization_Penalty_Charging>  (125) 
0

>  <r_epik_Ionization_Penalty_Neutral>  (125) 
1.95994

>  <r_epik_State_Penalty>  (125) 
2.08459

>  <r_epik_Charging_Adjusted_Penalty>  (125) 
2.08459

>  <i_epik_Tot_Q>  (125) 
0

>  <i_epik_Tot_abs_Q>  (125) 
0

>  <s_epik_Chemistry_Notes>  (125) 
This compound contains an acetal/aminal-like group ( X-CH(R)-Y where X, Y are N, S, or O) that may be acid/base labile, releasing an aldehyde.

>  <s_lp_Force_Field>  (125) 
OPLS3e

>  <r_lp_Energy>  (125) 
191.263

>  <b_lp_Chiralities_Consistent>  (125) 
1

>  <s_lp_Variant>  (125) 
41:0-2

>  <s_i_glide_gridfile>  (125) 
pfpi4k_grid

>  <i_i_glide_lignum>  (125) 
16

>  <i_i_glide_rotatable_bonds>  (125) 
2

>  <r_i_docking_score>  (125) 
-2.62698

>  <r_i_glide_ligand_efficiency>  (125) 
-0.0875659

>  <r_i_glide_ligand_efficiency_sa>  (125) 
-0.272088

>  <r_i_glide_ligand_efficiency_ln>  (125) 
-0.596878

>  <r_i_glide_gscore>  (125) 
-2.62698

>  <r_i_glide_lipo>  (125) 
-0.228707

>  <r_i_glide_hbond>  (125) 
0

>  <r_i_glide_metal>  (125) 
-0

>  <r_i_glide_rewards>  (125) 
-0.576276

>  <r_i_glide_evdw>  (125) 
-21.8103

>  <r_i_glide_ecoul>  (125) 
-4.72054

>  <r_i_glide_erotb>  (125) 
0

>  <r_i_glide_esite>  (125) 
-0.0233961

>  <r_i_glide_emodel>  (125) 
-30.7677

>  <r_i_glide_energy>  (125) 
-26.5309

>  <r_i_glide_einternal>  (125) 
0.136767

>  <r_i_glide_intrahb_reward>  (125) 
-0

>  <i_i_glide_confnum>  (125) 
1

>  <i_i_glide_posenum>  (125) 
10

>  <r_i_glide_eff_state_penalty>  (125) 
0

>  <ligand_id>  (125) 
41

>  <original_smiles>  (125) 
CC1OC2C(C)OC3CCN(C)C4CC56c7c(ccc(O)c7OC35)CC4C6(O)C2O1

>  <smiles>  (125) 
[H]Oc1c([H])c([H])c2c3c1OC1([H])C4([H])OC([H])(C([H])([H])[H])C5([H])OC([H])(C([H])([H])[H])OC5([H])C5(O[H])C([H])(C2([H])[H])C([H])(N(C([H])([H])[H])C([H])([H])C4([H])[H])C([H])([H])C315

$$$$
42:0:0
     RDKit          3D

 53 58  0  0  1  0  0  0  0  0999 V2000
    3.7261   -2.5534   -1.8591 C   0  0  0  0  0  0  0  0  0  0  0  0
    3.9852   -2.8437   -0.5719 C   0  0  0  0  0  0  0  0  0  0  0  0
    3.7234   -1.7427    0.4060 C   0  0  0  0  0  0  0  0  0  0  0  0
    4.2986   -0.6551    0.3629 O   0  0  0  0  0  0  0  0  0  0  0  0
    2.8503   -2.1005    1.4009 O   0  0  0  0  0  0  0  0  0  0  0  0
    2.9098   -1.4770    2.6987 C   0  0  0  0  0  0  0  0  0  0  0  0
    2.5053   -2.3727    3.9346 C   0  0  1  0  0  0  0  0  0  0  0  0
    1.2874   -3.2824    3.7013 C   0  0  0  0  0  0  0  0  0  0  0  0
    1.5910   -4.6676    4.3153 C   0  0  1  0  0  0  0  0  0  0  0  0
    1.1045   -5.8747    3.4729 C   0  0  0  0  0  0  0  0  0  0  0  0
    2.1887   -6.8388    2.9653 C   0  0  0  0  0  0  0  0  0  0  0  0
    3.5628   -6.1867    2.7275 C   0  0  1  0  0  0  0  0  0  0  0  0
    4.4358   -7.2121    2.2847 O   0  0  0  0  0  0  0  0  0  0  0  0
    3.5770   -5.0393    1.7042 C   0  0  2  0  0  0  0  0  0  0  0  0
    3.7355   -5.2868    0.2123 C   0  0  0  0  0  0  0  0  0  0  0  0
    4.7069   -4.1741   -0.1882 C   0  0  2  0  0  0  0  0  0  0  0  0
    5.6173   -4.1485    0.9335 O   0  0  0  0  0  0  0  0  0  0  0  0
    4.7910   -4.1989    2.0818 C   0  0  2  0  0  0  0  0  0  0  0  0
    5.1974   -4.5192    3.5166 C   0  0  1  0  0  0  0  0  0  0  0  0
    5.0203   -3.2798    4.4265 C   0  0  0  0  0  0  0  0  0  0  0  0
    3.5272   -3.1922    4.8292 C   0  0  1  0  0  0  0  0  0  0  0  0
    3.4519   -2.6503    6.2800 C   0  0  0  0  0  0  0  0  0  0  0  0
    3.0651   -4.6703    4.7898 C   0  0  2  0  0  0  0  0  0  0  0  0
    4.1327   -5.5259    4.0153 C   0  0  1  0  0  0  0  0  0  0  0  0
    4.7781   -6.5438    4.9909 C   0  0  0  0  0  0  0  0  0  0  0  0
    3.9352   -3.2600   -2.6484 H   0  0  0  0  0  0  0  0  0  0  0  0
    3.2774   -1.6103   -2.1419 H   0  0  0  0  0  0  0  0  0  0  0  0
    3.8966   -1.0409    2.8735 H   0  0  0  0  0  0  0  0  0  0  0  0
    2.2228   -0.6318    2.6438 H   0  0  0  0  0  0  0  0  0  0  0  0
    2.1325   -1.5962    4.6026 H   0  0  0  0  0  0  0  0  0  0  0  0
    0.4079   -2.8537    4.1812 H   0  0  0  0  0  0  0  0  0  0  0  0
    1.0301   -3.3307    2.6465 H   0  0  0  0  0  0  0  0  0  0  0  0
    0.9988   -4.6914    5.2320 H   0  0  0  0  0  0  0  0  0  0  0  0
    0.3845   -6.4493    4.0581 H   0  0  0  0  0  0  0  0  0  0  0  0
    0.5419   -5.5137    2.6126 H   0  0  0  0  0  0  0  0  0  0  0  0
    2.3091   -7.6319    3.7048 H   0  0  0  0  0  0  0  0  0  0  0  0
    1.8382   -7.3319    2.0557 H   0  0  0  0  0  0  0  0  0  0  0  0
    4.0294   -7.6430    1.5512 H   0  0  0  0  0  0  0  0  0  0  0  0
    2.6854   -4.4465    1.8358 H   0  0  0  0  0  0  0  0  0  0  0  0
    4.1886   -6.2515   -0.0120 H   0  0  0  0  0  0  0  0  0  0  0  0
    2.7880   -5.2378   -0.3219 H   0  0  0  0  0  0  0  0  0  0  0  0
    5.2702   -4.4948   -1.0657 H   0  0  0  0  0  0  0  0  0  0  0  0
    4.6289   -3.1624    2.1831 H   0  0  0  0  0  0  0  0  0  0  0  0
    6.2132   -4.9192    3.5411 H   0  0  0  0  0  0  0  0  0  0  0  0
    5.6235   -3.4560    5.3176 H   0  0  0  0  0  0  0  0  0  0  0  0
    5.4037   -2.3533    4.0004 H   0  0  0  0  0  0  0  0  0  0  0  0
    4.0541   -3.2413    6.9723 H   0  0  0  0  0  0  0  0  0  0  0  0
    2.4315   -2.6613    6.6630 H   0  0  0  0  0  0  0  0  0  0  0  0
    3.8140   -1.6227    6.3377 H   0  0  0  0  0  0  0  0  0  0  0  0
    3.0423   -5.0543    5.8102 H   0  0  0  0  0  0  0  0  0  0  0  0
    5.1702   -6.0448    5.8764 H   0  0  0  0  0  0  0  0  0  0  0  0
    5.6158   -7.0714    4.5347 H   0  0  0  0  0  0  0  0  0  0  0  0
    4.0603   -7.2929    5.3245 H   0  0  0  0  0  0  0  0  0  0  0  0
  1  2  2  0
  1 26  1  0
  1 27  1  0
  2 16  1  0
  2  3  1  0
  3  4  2  0
  3  5  1  0
  5  6  1  0
  6  7  1  0
  6 28  1  0
  6 29  1  0
  7 21  1  0
  7  8  1  0
  7 30  1  1
  8  9  1  0
  8 31  1  0
  8 32  1  0
  9 23  1  0
  9 10  1  0
  9 33  1  1
 10 11  1  0
 10 34  1  0
 10 35  1  0
 11 12  1  0
 11 36  1  0
 11 37  1  0
 12 24  1  0
 12 13  1  6
 12 14  1  0
 13 38  1  0
 14 18  1  0
 14 15  1  0
 14 39  1  6
 15 16  1  0
 15 40  1  0
 15 41  1  0
 16 17  1  0
 16 42  1  6
 17 18  1  0
 18 19  1  0
 18 43  1  1
 19 24  1  0
 19 20  1  0
 19 44  1  6
 20 21  1  0
 20 45  1  0
 20 46  1  0
 21 22  1  1
 21 23  1  0
 22 47  1  0
 22 48  1  0
 22 49  1  0
 23 24  1  0
 23 50  1  1
 24 25  1  1
 25 51  1  0
 25 52  1  0
 25 53  1  0
M  END
>  <i_m_ct_stereo_status>  (126) 
1

>  <s_m_source_file>  (126) 
/var/tmp/pbs.5076255.sched01/tmpy176o0g7/39stoh4b52.sdf

>  <i_m_source_file_index>  (126) 
17

>  <i_lp_mmshare_version>  (126) 
48012

>  <i_f3d_flags>  (126) 
0

>  <s_epik_input>  (126) 
W0NIMl0xW0NASF0oTzIpQyg9W0NIMl0pQyg9TylPW0NIMl1bQ0BIXShbQ0BAXTMoW0NIMl00KVtDSDNdKVtDSDJdW0NAQEhdKFtDSDJdW0NIMl01KVtDQEhdM1tDQF02KFtDSDNdKVtDQEhdNFtDQEBIXTJbQ0BASF0xW0NAXTU2W09IXQ==

>  <s_epik_cmdline>  (126) 
J2VwaWtfcHl0aG9uJywgJy1waHQnLCAnMi4wJywgJy1waCcsICc3LjAnLCAnLXRuJywgJzgnLCAnLW1hJywgJzIwMCcsICctaW1hZScsICc8aW5maWxlLm1hZT4nLCAnLW9tYWUnLCAnPG91dGZpbGUubWFlPic=

>  <r_lp_tautomer_probability>  (126) 
1

>  <r_epik_Ionization_Penalty>  (126) 
6.07683e-07

>  <r_epik_Ionization_Penalty_Charging>  (126) 
0

>  <r_epik_Ionization_Penalty_Neutral>  (126) 
6.07683e-07

>  <r_epik_State_Penalty>  (126) 
-0

>  <r_epik_Charging_Adjusted_Penalty>  (126) 
0

>  <i_epik_Tot_Q>  (126) 
0

>  <i_epik_Tot_abs_Q>  (126) 
0

>  <s_epik_Chemistry_Notes>  (126) 
This compound has an ester and may undergo hydrolysis at high or low pH.

>  <s_lp_Force_Field>  (126) 
OPLS3e

>  <r_lp_Energy>  (126) 
67.7743

>  <b_lp_Chiralities_Consistent>  (126) 
1

>  <s_lp_Variant>  (126) 
42:0-1

>  <s_i_glide_gridfile>  (126) 
pfpi4k_grid

>  <i_i_glide_lignum>  (126) 
17

>  <i_i_glide_rotatable_bonds>  (126) 
1

>  <r_i_docking_score>  (126) 
-2.32437

>  <r_i_glide_ligand_efficiency>  (126) 
-0.0929749

>  <r_i_glide_ligand_efficiency_sa>  (126) 
-0.27186

>  <r_i_glide_ligand_efficiency_ln>  (126) 
-0.550946

>  <r_i_glide_gscore>  (126) 
-2.32437

>  <r_i_glide_lipo>  (126) 
-0.136443

>  <r_i_glide_hbond>  (126) 
0

>  <r_i_glide_metal>  (126) 
-0

>  <r_i_glide_rewards>  (126) 
-1.0606

>  <r_i_glide_evdw>  (126) 
-20.1354

>  <r_i_glide_ecoul>  (126) 
-0.523314

>  <r_i_glide_erotb>  (126) 
0

>  <r_i_glide_esite>  (126) 
-0.042057

>  <r_i_glide_emodel>  (126) 
-23.5004

>  <r_i_glide_energy>  (126) 
-20.6587

>  <r_i_glide_einternal>  (126) 
0.0179721

>  <r_i_glide_intrahb_reward>  (126) 
-0

>  <i_i_glide_confnum>  (126) 
2

>  <i_i_glide_posenum>  (126) 
12

>  <r_i_glide_eff_state_penalty>  (126) 
0

>  <ligand_id>  (126) 
42

>  <original_smiles>  (126) 
C=C1C(=O)OCC2CC3CCC4(O)C5CC1OC5C1CC2(C)C3C14C

>  <smiles>  (126) 
[H]OC12C([H])([H])C([H])([H])C3([H])C([H])([H])C4([H])C([H])([H])OC(=O)C(=C([H])[H])C5([H])OC([H])(C1([H])C5([H])[H])C1([H])C([H])([H])C4(C([H])([H])[H])C3([H])C12C([H])([H])[H]

$$$$
42:0:1
     RDKit          3D

 53 58  0  0  1  0  0  0  0  0999 V2000
    3.4296   -2.6696   -1.7824 C   0  0  0  0  0  0  0  0  0  0  0  0
    3.7452   -2.9635   -0.5079 C   0  0  0  0  0  0  0  0  0  0  0  0
    3.5748   -1.8479    0.4744 C   0  0  0  0  0  0  0  0  0  0  0  0
    4.1866   -0.7810    0.3953 O   0  0  0  0  0  0  0  0  0  0  0  0
    2.7398   -2.1688    1.5142 O   0  0  0  0  0  0  0  0  0  0  0  0
    2.8903   -1.5437    2.8034 C   0  0  0  0  0  0  0  0  0  0  0  0
    2.5165   -2.4180    4.0641 C   0  0  1  0  0  0  0  0  0  0  0  0
    1.2535   -3.2810    3.9041 C   0  0  0  0  0  0  0  0  0  0  0  0
    1.5374   -4.6747    4.5083 C   0  0  1  0  0  0  0  0  0  0  0  0
    0.9624   -5.8656    3.6985 C   0  0  0  0  0  0  0  0  0  0  0  0
    1.9825   -6.8730    3.1416 C   0  0  0  0  0  0  0  0  0  0  0  0
    3.3673   -6.2761    2.8308 C   0  0  1  0  0  0  0  0  0  0  0  0
    4.1770   -7.3373    2.3511 O   0  0  0  0  0  0  0  0  0  0  0  0
    3.3718   -5.1339    1.8033 C   0  0  2  0  0  0  0  0  0  0  0  0
    3.4450   -5.3946    0.3084 C   0  0  0  0  0  0  0  0  0  0  0  0
    4.4341   -4.3201   -0.1522 C   0  0  2  0  0  0  0  0  0  0  0  0
    5.4014   -4.3226    0.9210 O   0  0  0  0  0  0  0  0  0  0  0  0
    4.6339   -4.3385    2.1104 C   0  0  2  0  0  0  0  0  0  0  0  0
    5.1021   -4.6670    3.5244 C   0  0  1  0  0  0  0  0  0  0  0  0
    5.0187   -3.4172    4.4325 C   0  0  0  0  0  0  0  0  0  0  0  0
    3.5524   -3.2712    4.9105 C   0  0  1  0  0  0  0  0  0  0  0  0
    3.5721   -2.7203    6.3593 C   0  0  0  0  0  0  0  0  0  0  0  0
    3.0329   -4.7309    4.9062 C   0  0  2  0  0  0  0  0  0  0  0  0
    4.0272   -5.6313    4.0846 C   0  0  1  0  0  0  0  0  0  0  0  0
    4.6820   -6.6682    5.0330 C   0  0  0  0  0  0  0  0  0  0  0  0
    3.5699   -3.3878   -2.5763 H   0  0  0  0  0  0  0  0  0  0  0  0
    3.0015   -1.7119   -2.0479 H   0  0  0  0  0  0  0  0  0  0  0  0
    3.9009   -1.1453    2.9242 H   0  0  0  0  0  0  0  0  0  0  0  0
    2.2344   -0.6725    2.7790 H   0  0  0  0  0  0  0  0  0  0  0  0
    2.2101   -1.6248    4.7453 H   0  0  0  0  0  0  0  0  0  0  0  0
    0.4174   -2.8164    4.4262 H   0  0  0  0  0  0  0  0  0  0  0  0
    0.9377   -3.3273    2.8665 H   0  0  0  0  0  0  0  0  0  0  0  0
    0.9922   -4.6726    5.4538 H   0  0  0  0  0  0  0  0  0  0  0  0
    0.2513   -6.4099    4.3232 H   0  0  0  0  0  0  0  0  0  0  0  0
    0.3691   -5.4872    2.8669 H   0  0  0  0  0  0  0  0  0  0  0  0
    2.1018   -7.6682    3.8787 H   0  0  0  0  0  0  0  0  0  0  0  0
    1.5730   -7.3541    2.2502 H   0  0  0  0  0  0  0  0  0  0  0  0
    4.1204   -8.0473    2.9692 H   0  0  0  0  0  0  0  0  0  0  0  0
    2.5108   -4.5070    1.9745 H   0  0  0  0  0  0  0  0  0  0  0  0
    3.8473   -6.3800    0.0764 H   0  0  0  0  0  0  0  0  0  0  0  0
    2.4770   -5.3149   -0.1829 H   0  0  0  0  0  0  0  0  0  0  0  0
    4.9374   -4.6670   -1.0561 H   0  0  0  0  0  0  0  0  0  0  0  0
    4.5130   -3.2966    2.2119 H   0  0  0  0  0  0  0  0  0  0  0  0
    6.1024   -5.1032    3.4972 H   0  0  0  0  0  0  0  0  0  0  0  0
    5.6604   -3.6123    5.2919 H   0  0  0  0  0  0  0  0  0  0  0  0
    5.4155   -2.5088    3.9800 H   0  0  0  0  0  0  0  0  0  0  0  0
    4.1863   -3.3313    7.0235 H   0  0  0  0  0  0  0  0  0  0  0  0
    2.5730   -2.6912    6.7931 H   0  0  0  0  0  0  0  0  0  0  0  0
    3.9755   -1.7071    6.3915 H   0  0  0  0  0  0  0  0  0  0  0  0
    3.0476   -5.1082    5.9298 H   0  0  0  0  0  0  0  0  0  0  0  0
    5.1361   -6.1784    5.8945 H   0  0  0  0  0  0  0  0  0  0  0  0
    5.4787   -7.2264    4.5416 H   0  0  0  0  0  0  0  0  0  0  0  0
    3.9539   -7.3874    5.4085 H   0  0  0  0  0  0  0  0  0  0  0  0
  1  2  2  0
  1 26  1  0
  1 27  1  0
  2 16  1  0
  2  3  1  0
  3  4  2  0
  3  5  1  0
  5  6  1  0
  6  7  1  0
  6 28  1  0
  6 29  1  0
  7 21  1  0
  7  8  1  0
  7 30  1  1
  8  9  1  0
  8 31  1  0
  8 32  1  0
  9 23  1  0
  9 10  1  0
  9 33  1  1
 10 11  1  0
 10 34  1  0
 10 35  1  0
 11 12  1  0
 11 36  1  0
 11 37  1  0
 12 24  1  0
 12 13  1  6
 12 14  1  0
 13 38  1  0
 14 18  1  0
 14 15  1  0
 14 39  1  6
 15 16  1  0
 15 40  1  0
 15 41  1  0
 16 17  1  0
 16 42  1  6
 17 18  1  0
 18 19  1  0
 18 43  1  1
 19 24  1  0
 19 20  1  0
 19 44  1  6
 20 21  1  0
 20 45  1  0
 20 46  1  0
 21 22  1  1
 21 23  1  0
 22 47  1  0
 22 48  1  0
 22 49  1  0
 23 24  1  0
 23 50  1  1
 24 25  1  1
 25 51  1  0
 25 52  1  0
 25 53  1  0
M  END
>  <i_m_ct_stereo_status>  (127) 
1

>  <s_m_source_file>  (127) 
/var/tmp/pbs.5076255.sched01/tmpy176o0g7/39stoh4b52.sdf

>  <i_m_source_file_index>  (127) 
17

>  <i_lp_mmshare_version>  (127) 
48012

>  <i_f3d_flags>  (127) 
0

>  <s_epik_input>  (127) 
W0NIMl0xW0NASF0oTzIpQyg9W0NIMl0pQyg9TylPW0NIMl1bQ0BIXShbQ0BAXTMoW0NIMl00KVtDSDNdKVtDSDJdW0NAQEhdKFtDSDJdW0NIMl01KVtDQEhdM1tDQF02KFtDSDNdKVtDQEhdNFtDQEBIXTJbQ0BASF0xW0NAXTU2W09IXQ==

>  <s_epik_cmdline>  (127) 
J2VwaWtfcHl0aG9uJywgJy1waHQnLCAnMi4wJywgJy1waCcsICc3LjAnLCAnLXRuJywgJzgnLCAnLW1hJywgJzIwMCcsICctaW1hZScsICc8aW5maWxlLm1hZT4nLCAnLW9tYWUnLCAnPG91dGZpbGUubWFlPic=

>  <r_lp_tautomer_probability>  (127) 
1

>  <r_epik_Ionization_Penalty>  (127) 
6.07683e-07

>  <r_epik_Ionization_Penalty_Charging>  (127) 
0

>  <r_epik_Ionization_Penalty_Neutral>  (127) 
6.07683e-07

>  <r_epik_State_Penalty>  (127) 
-0

>  <r_epik_Charging_Adjusted_Penalty>  (127) 
0

>  <i_epik_Tot_Q>  (127) 
0

>  <i_epik_Tot_abs_Q>  (127) 
0

>  <s_epik_Chemistry_Notes>  (127) 
This compound has an ester and may undergo hydrolysis at high or low pH.

>  <s_lp_Force_Field>  (127) 
OPLS3e

>  <r_lp_Energy>  (127) 
67.7743

>  <b_lp_Chiralities_Consistent>  (127) 
1

>  <s_lp_Variant>  (127) 
42:0-1

>  <s_i_glide_gridfile>  (127) 
pfpi4k_grid

>  <i_i_glide_lignum>  (127) 
17

>  <i_i_glide_rotatable_bonds>  (127) 
1

>  <r_i_docking_score>  (127) 
-2.31099

>  <r_i_glide_ligand_efficiency>  (127) 
-0.0924397

>  <r_i_glide_ligand_efficiency_sa>  (127) 
-0.270295

>  <r_i_glide_ligand_efficiency_ln>  (127) 
-0.547775

>  <r_i_glide_gscore>  (127) 
-2.31099

>  <r_i_glide_lipo>  (127) 
-0.0958521

>  <r_i_glide_hbond>  (127) 
0

>  <r_i_glide_metal>  (127) 
-0

>  <r_i_glide_rewards>  (127) 
-1.0606

>  <r_i_glide_evdw>  (127) 
-19.9666

>  <r_i_glide_ecoul>  (127) 
-0.740596

>  <r_i_glide_erotb>  (127) 
0

>  <r_i_glide_esite>  (127) 
-0.0451144

>  <r_i_glide_emodel>  (127) 
-23.5439

>  <r_i_glide_energy>  (127) 
-20.7072

>  <r_i_glide_einternal>  (127) 
0.0193522

>  <r_i_glide_intrahb_reward>  (127) 
-0

>  <i_i_glide_confnum>  (127) 
2

>  <i_i_glide_posenum>  (127) 
23

>  <r_i_glide_eff_state_penalty>  (127) 
0

>  <ligand_id>  (127) 
42

>  <original_smiles>  (127) 
C=C1C(=O)OCC2CC3CCC4(O)C5CC1OC5C1CC2(C)C3C14C

>  <smiles>  (127) 
[H]OC12C([H])([H])C([H])([H])C3([H])C([H])([H])C4([H])C([H])([H])OC(=O)C(=C([H])[H])C5([H])OC([H])(C1([H])C5([H])[H])C1([H])C([H])([H])C4(C([H])([H])[H])C3([H])C12C([H])([H])[H]

$$$$
42:0:2
     RDKit          3D

 53 58  0  0  1  0  0  0  0  0999 V2000
    3.8307   -1.8814   -4.3592 C   0  0  0  0  0  0  0  0  0  0  0  0
    3.7541   -2.0216   -3.0345 C   0  0  0  0  0  0  0  0  0  0  0  0
    2.7013   -2.9575   -2.6341 C   0  0  0  0  0  0  0  0  0  0  0  0
    1.5711   -2.9622   -3.1211 O   0  0  0  0  0  0  0  0  0  0  0  0
    3.0434   -3.8053   -1.6400 O   0  0  0  0  0  0  0  0  0  0  0  0
    2.0806   -4.2693   -0.7408 C   0  0  0  0  0  0  0  0  0  0  0  0
    2.6876   -4.8807    0.5682 C   0  0  1  0  0  0  0  0  0  0  0  0
    3.9986   -5.6632    0.3733 C   0  0  0  0  0  0  0  0  0  0  0  0
    4.9924   -5.2233    1.4706 C   0  0  1  0  0  0  0  0  0  0  0  0
    6.4571   -5.0912    0.9806 C   0  0  0  0  0  0  0  0  0  0  0  0
    7.0579   -3.6828    1.0496 C   0  0  0  0  0  0  0  0  0  0  0  0
    6.0439   -2.5381    0.9328 C   0  0  1  0  0  0  0  0  0  0  0  0
    6.7251   -1.3031    1.0177 O   0  0  0  0  0  0  0  0  0  0  0  0
    5.2633   -2.5436   -0.3662 C   0  0  2  0  0  0  0  0  0  0  0  0
    5.8246   -1.8594   -1.5925 C   0  0  0  0  0  0  0  0  0  0  0  0
    4.6040   -1.1241   -2.0976 C   0  0  2  0  0  0  0  0  0  0  0  0
    4.0496   -0.6265   -0.8659 O   0  0  0  0  0  0  0  0  0  0  0  0
    4.0070   -1.7533   -0.0130 C   0  0  2  0  0  0  0  0  0  0  0  0
    3.7743   -1.7242    1.4769 C   0  0  1  0  0  0  0  0  0  0  0  0
    2.4950   -2.5044    1.8466 C   0  0  0  0  0  0  0  0  0  0  0  0
    2.8479   -4.0155    1.8651 C   0  0  1  0  0  0  0  0  0  0  0  0
    2.0297   -4.6951    2.9881 C   0  0  0  0  0  0  0  0  0  0  0  0
    4.3584   -4.0272    2.2221 C   0  0  2  0  0  0  0  0  0  0  0  0
    4.9281   -2.5822    2.0181 C   0  0  1  0  0  0  0  0  0  0  0  0
    5.3325   -2.0188    3.3829 C   0  0  0  0  0  0  0  0  0  0  0  0
    4.5227   -1.1754   -4.7686 H   0  0  0  0  0  0  0  0  0  0  0  0
    3.2190   -2.4348   -5.0557 H   0  0  0  0  0  0  0  0  0  0  0  0
    1.3536   -3.4721   -0.5714 H   0  0  0  0  0  0  0  0  0  0  0  0
    1.5091   -5.0844   -1.2101 H   0  0  0  0  0  0  0  0  0  0  0  0
    1.9742   -5.6496    0.8186 H   0  0  0  0  0  0  0  0  0  0  0  0
    3.8274   -6.7371    0.4698 H   0  0  0  0  0  0  0  0  0  0  0  0
    4.4058   -5.5748   -0.6388 H   0  0  0  0  0  0  0  0  0  0  0  0
    4.9782   -6.0434    2.1967 H   0  0  0  0  0  0  0  0  0  0  0  0
    7.0789   -5.7716    1.5568 H   0  0  0  0  0  0  0  0  0  0  0  0
    6.5324   -5.4506   -0.0470 H   0  0  0  0  0  0  0  0  0  0  0  0
    7.5091   -3.6209    2.0344 H   0  0  0  0  0  0  0  0  0  0  0  0
    7.8581   -3.5711    0.3111 H   0  0  0  0  0  0  0  0  0  0  0  0
    7.1137   -1.2555    1.8718 H   0  0  0  0  0  0  0  0  0  0  0  0
    5.0408   -3.5660   -0.6300 H   0  0  0  0  0  0  0  0  0  0  0  0
    6.5795   -1.1352   -1.3320 H   0  0  0  0  0  0  0  0  0  0  0  0
    6.2473   -2.5524   -2.3158 H   0  0  0  0  0  0  0  0  0  0  0  0
    4.9043   -0.2466   -2.6732 H   0  0  0  0  0  0  0  0  0  0  0  0
    3.0511   -2.0753   -0.3281 H   0  0  0  0  0  0  0  0  0  0  0  0
    3.7711   -0.6893    1.8156 H   0  0  0  0  0  0  0  0  0  0  0  0
    2.2156   -2.1824    2.8485 H   0  0  0  0  0  0  0  0  0  0  0  0
    1.6490   -2.2492    1.2144 H   0  0  0  0  0  0  0  0  0  0  0  0
    2.1740   -4.2014    3.9545 H   0  0  0  0  0  0  0  0  0  0  0  0
    2.3182   -5.7450    3.1055 H   0  0  0  0  0  0  0  0  0  0  0  0
    0.9647   -4.6674    2.7523 H   0  0  0  0  0  0  0  0  0  0  0  0
    4.4623   -4.2595    3.2842 H   0  0  0  0  0  0  0  0  0  0  0  0
    4.5035   -2.0589    4.0903 H   0  0  0  0  0  0  0  0  0  0  0  0
    5.6486   -0.9779    3.3234 H   0  0  0  0  0  0  0  0  0  0  0  0
    6.1344   -2.6245    3.7900 H   0  0  0  0  0  0  0  0  0  0  0  0
  1  2  2  0
  1 26  1  0
  1 27  1  0
  2 16  1  0
  2  3  1  0
  3  4  2  0
  3  5  1  0
  5  6  1  0
  6  7  1  0
  6 28  1  0
  6 29  1  0
  7 21  1  0
  7  8  1  0
  7 30  1  1
  8  9  1  0
  8 31  1  0
  8 32  1  0
  9 23  1  0
  9 10  1  0
  9 33  1  1
 10 11  1  0
 10 34  1  0
 10 35  1  0
 11 12  1  0
 11 36  1  0
 11 37  1  0
 12 24  1  0
 12 13  1  1
 12 14  1  0
 13 38  1  0
 14 18  1  0
 14 15  1  0
 14 39  1  6
 15 16  1  0
 15 40  1  0
 15 41  1  0
 16 17  1  0
 16 42  1  6
 17 18  1  0
 18 19  1  0
 18 43  1  6
 19 24  1  0
 19 20  1  0
 19 44  1  1
 20 21  1  0
 20 45  1  0
 20 46  1  0
 21 22  1  1
 21 23  1  0
 22 47  1  0
 22 48  1  0
 22 49  1  0
 23 24  1  0
 23 50  1  1
 24 25  1  1
 25 51  1  0
 25 52  1  0
 25 53  1  0
M  END
>  <i_m_ct_stereo_status>  (128) 
1

>  <s_m_source_file>  (128) 
/var/tmp/pbs.5076255.sched01/tmpy176o0g7/39stoh4b52.sdf

>  <i_m_source_file_index>  (128) 
17

>  <i_lp_mmshare_version>  (128) 
48012

>  <i_f3d_flags>  (128) 
0

>  <s_epik_input>  (128) 
W0NIMl0xW0NASF0oTzIpQyg9W0NIMl0pQyg9TylPW0NIMl1bQ0BIXShbQ0BAXTMoW0NIMl00KVtDSDNdKVtDSDJdW0NAQEhdKFtDSDJdW0NIMl01KVtDQEhdM1tDQF02KFtDSDNdKVtDQEhdNFtDQEBIXTJbQ0BASF0xW0NAXTU2W09IXQ==

>  <s_epik_cmdline>  (128) 
J2VwaWtfcHl0aG9uJywgJy1waHQnLCAnMi4wJywgJy1waCcsICc3LjAnLCAnLXRuJywgJzgnLCAnLW1hJywgJzIwMCcsICctaW1hZScsICc8aW5maWxlLm1hZT4nLCAnLW9tYWUnLCAnPG91dGZpbGUubWFlPic=

>  <r_lp_tautomer_probability>  (128) 
1

>  <r_epik_Ionization_Penalty>  (128) 
6.07683e-07

>  <r_epik_Ionization_Penalty_Charging>  (128) 
0

>  <r_epik_Ionization_Penalty_Neutral>  (128) 
6.07683e-07

>  <r_epik_State_Penalty>  (128) 
-0

>  <r_epik_Charging_Adjusted_Penalty>  (128) 
0

>  <i_epik_Tot_Q>  (128) 
0

>  <i_epik_Tot_abs_Q>  (128) 
0

>  <s_epik_Chemistry_Notes>  (128) 
This compound has an ester and may undergo hydrolysis at high or low pH.

>  <s_lp_Force_Field>  (128) 
OPLS3e

>  <r_lp_Energy>  (128) 
67.7743

>  <b_lp_Chiralities_Consistent>  (128) 
1

>  <s_lp_Variant>  (128) 
42:0-1

>  <s_i_glide_gridfile>  (128) 
pfpi4k_grid

>  <i_i_glide_lignum>  (128) 
17

>  <i_i_glide_rotatable_bonds>  (128) 
1

>  <r_i_docking_score>  (128) 
-1.67951

>  <r_i_glide_ligand_efficiency>  (128) 
-0.0671804

>  <r_i_glide_ligand_efficiency_sa>  (128) 
-0.196437

>  <r_i_glide_ligand_efficiency_ln>  (128) 
-0.398094

>  <r_i_glide_gscore>  (128) 
-1.67951

>  <r_i_glide_lipo>  (128) 
-0.554418

>  <r_i_glide_hbond>  (128) 
0

>  <r_i_glide_metal>  (128) 
-0

>  <r_i_glide_rewards>  (128) 
-1.0606

>  <r_i_glide_evdw>  (128) 
-12.6444

>  <r_i_glide_ecoul>  (128) 
3.86591

>  <r_i_glide_erotb>  (128) 
0

>  <r_i_glide_esite>  (128) 
-0.0121535

>  <r_i_glide_emodel>  (128) 
-9.60207

>  <r_i_glide_energy>  (128) 
-8.7785

>  <r_i_glide_einternal>  (128) 
0.0458142

>  <r_i_glide_intrahb_reward>  (128) 
-0

>  <i_i_glide_confnum>  (128) 
1

>  <i_i_glide_posenum>  (128) 
40

>  <r_i_glide_eff_state_penalty>  (128) 
0

>  <ligand_id>  (128) 
42

>  <original_smiles>  (128) 
C=C1C(=O)OCC2CC3CCC4(O)C5CC1OC5C1CC2(C)C3C14C

>  <smiles>  (128) 
[H]OC12C([H])([H])C([H])([H])C3([H])C([H])([H])C4([H])C([H])([H])OC(=O)C(=C([H])[H])C5([H])OC([H])(C1([H])C5([H])[H])C1([H])C([H])([H])C4(C([H])([H])[H])C3([H])C12C([H])([H])[H]

$$$$
44:0:0
     RDKit          3D

 36 39  0  0  1  0  0  0  0  0999 V2000
    8.3230   -4.0055    0.7576 C   0  0  0  0  0  0  0  0  0  0  0  0
    7.0049   -4.1712    0.1622 N   0  0  0  0  0  0  0  0  0  0  0  0
    6.4626   -3.2795   -0.6987 C   0  0  0  0  0  0  0  0  0  0  0  0
    7.0530   -2.3190   -1.2085 O   0  0  0  0  0  0  0  0  0  0  0  0
    5.1731   -3.5855   -0.9223 N   0  0  0  0  0  0  0  0  0  0  0  0
    4.3031   -2.9448   -1.8988 C   0  0  0  0  0  0  0  0  0  0  0  0
    4.9061   -4.8989   -0.3727 C   0  0  2  0  0  0  0  0  0  0  0  0
    3.6141   -5.3441    0.2235 C   0  0  0  0  0  0  0  0  0  0  0  0
    2.2343   -5.0329    0.0925 C   0  0  0  0  0  0  0  0  0  0  0  0
    1.4672   -5.8666    0.7954 N   0  0  0  0  0  0  0  0  0  0  0  0
    2.3121   -6.7358    1.4212 N   0  0  0  0  0  0  0  0  0  0  0  0
    1.7912   -7.7326    2.2988 C   0  0  0  0  0  0  0  0  0  0  0  0
    2.4918   -8.9443    2.5046 C   0  0  0  0  0  0  0  0  0  0  0  0
    1.9673   -9.9017    3.3890 C   0  0  0  0  0  0  0  0  0  0  0  0
    0.7530   -9.6251    4.0410 C   0  0  0  0  0  0  0  0  0  0  0  0
    0.1128   -8.4014    3.7730 C   0  0  0  0  0  0  0  0  0  0  0  0
    0.6167   -7.4776    2.9271 N   0  0  0  0  0  0  0  0  0  0  0  0
    3.6085   -6.4127    1.0621 C   0  0  0  0  0  0  0  0  0  0  0  0
    4.7775   -7.0256    1.4231 N   0  0  0  0  0  0  0  0  0  0  0  0
    6.0121   -6.4491    1.2644 C   0  0  0  0  0  0  0  0  0  0  0  0
    7.4016   -7.2591    1.6927 S   0  0  0  0  0  0  0  0  0  0  0  0
    5.9356   -4.9905    0.7490 C   0  0  1  0  0  0  0  0  0  0  0  0
    8.9849   -3.4170    0.1272 H   0  0  0  0  0  0  0  0  0  0  0  0
    8.8282   -4.9395    0.9733 H   0  0  0  0  0  0  0  0  0  0  0  0
    8.1750   -3.4635    1.6772 H   0  0  0  0  0  0  0  0  0  0  0  0
    4.5970   -1.9067   -2.0607 H   0  0  0  0  0  0  0  0  0  0  0  0
    3.2598   -2.9421   -1.5875 H   0  0  0  0  0  0  0  0  0  0  0  0
    4.3955   -3.4792   -2.8425 H   0  0  0  0  0  0  0  0  0  0  0  0
    5.1704   -5.5862   -1.1750 H   0  0  0  0  0  0  0  0  0  0  0  0
    1.7714   -4.2706   -0.5129 H   0  0  0  0  0  0  0  0  0  0  0  0
    3.4064   -9.1669    1.9790 H   0  0  0  0  0  0  0  0  0  0  0  0
    2.4879  -10.8381    3.5594 H   0  0  0  0  0  0  0  0  0  0  0  0
    0.3096  -10.3350    4.7269 H   0  0  0  0  0  0  0  0  0  0  0  0
   -0.8189   -8.1484    4.2564 H   0  0  0  0  0  0  0  0  0  0  0  0
    4.6995   -7.9379    1.8236 H   0  0  0  0  0  0  0  0  0  0  0  0
    5.5915   -4.4067    1.6090 H   0  0  0  0  0  0  0  0  0  0  0  0
  1  2  1  0
  1 23  1  0
  1 24  1  0
  1 25  1  0
  2 22  1  0
  2  3  1  0
  3  4  2  0
  3  5  1  0
  5  6  1  0
  5  7  1  0
  6 26  1  0
  6 27  1  0
  6 28  1  0
  7 22  1  0
  7  8  1  0
  7 29  1  6
  8 18  2  0
  8  9  1  0
  9 10  2  0
  9 30  1  0
 10 11  1  0
 11 12  1  0
 11 18  1  0
 12 17  1  0
 12 13  2  0
 13 14  1  0
 13 31  1  0
 14 15  2  0
 14 32  1  0
 15 16  1  0
 15 33  1  0
 16 17  2  0
 16 34  1  0
 18 19  1  0
 19 20  1  0
 19 35  1  0
 20 21  2  0
 20 22  1  0
 22 36  1  1
M  END
>  <i_m_ct_stereo_status>  (129) 
1

>  <s_m_source_file>  (129) 
/var/tmp/pbs.5076255.sched01/tmpy176o0g7/39stoh4b52.sdf

>  <i_m_source_file_index>  (129) 
19

>  <i_lp_mmshare_version>  (129) 
48012

>  <i_f3d_flags>  (129) 
0

>  <s_epik_input>  (129) 
W0NIM11OMUMoPU8pTihbQ0gzXSlbQ0BASF0yQyg9UylbTkhdYyhjM1tDQEBIXTEyKW4obltjSF0zKS1jNFtjSF1bY0hdW2NIXVtjSF1uNA==

>  <s_epik_cmdline>  (129) 
J2VwaWtfcHl0aG9uJywgJy1waHQnLCAnMi4wJywgJy1waCcsICc3LjAnLCAnLXRuJywgJzgnLCAnLW1hJywgJzIwMCcsICctaW1hZScsICc8aW5maWxlLm1hZT4nLCAnLW9tYWUnLCAnPG91dGZpbGUubWFlPic=

>  <r_epik_Ionization_Penalty>  (129) 
0.000575063

>  <r_epik_Ionization_Penalty_Charging>  (129) 
0

>  <r_epik_Ionization_Penalty_Neutral>  (129) 
0.000575063

>  <r_epik_State_Penalty>  (129) 
0.00030243

>  <r_epik_Charging_Adjusted_Penalty>  (129) 
0.00030243

>  <i_epik_Tot_Q>  (129) 
0

>  <i_epik_Tot_abs_Q>  (129) 
0

>  <s_lp_Force_Field>  (129) 
OPLS3e

>  <r_lp_Energy>  (129) 
40.3722

>  <b_lp_Chiralities_Consistent>  (129) 
1

>  <s_lp_Variant>  (129) 
44:0-1

>  <s_i_glide_gridfile>  (129) 
pfpi4k_grid

>  <i_i_glide_lignum>  (129) 
19

>  <i_i_glide_rotatable_bonds>  (129) 
1

>  <r_i_docking_score>  (129) 
-4.51878

>  <r_i_glide_ligand_efficiency>  (129) 
-0.205399

>  <r_i_glide_ligand_efficiency_sa>  (129) 
-0.575536

>  <r_i_glide_ligand_efficiency_ln>  (129) 
-1.10455

>  <r_i_glide_gscore>  (129) 
-4.51878

>  <r_i_glide_lipo>  (129) 
-0.285403

>  <r_i_glide_hbond>  (129) 
-0.313519

>  <r_i_glide_metal>  (129) 
-0

>  <r_i_glide_rewards>  (129) 
-1.76296

>  <r_i_glide_evdw>  (129) 
-26.9345

>  <r_i_glide_ecoul>  (129) 
-6.40422

>  <r_i_glide_erotb>  (129) 
0.188081

>  <r_i_glide_esite>  (129) 
-0.0376175

>  <r_i_glide_emodel>  (129) 
-44.1071

>  <r_i_glide_energy>  (129) 
-33.3387

>  <r_i_glide_einternal>  (129) 
0.589603

>  <r_i_glide_intrahb_reward>  (129) 
-0

>  <i_i_glide_confnum>  (129) 
3

>  <i_i_glide_posenum>  (129) 
36

>  <r_i_glide_eff_state_penalty>  (129) 
0

>  <ligand_id>  (129) 
44

>  <original_smiles>  (129) 
CN1C(=O)N(C)C2c3cnn(-c4ccccn4)c3NC(=S)C21

>  <smiles>  (129) 
[H]c1nc(-n2nc([H])c3c2N([H])C(=S)C2([H])N(C([H])([H])[H])C(=O)N(C([H])([H])[H])C32[H])c([H])c([H])c1[H]

$$$$
44:0:1
     RDKit          3D

 36 39  0  0  1  0  0  0  0  0999 V2000
    8.6669   -6.3056    2.5085 C   0  0  0  0  0  0  0  0  0  0  0  0
    7.5768   -5.8865    1.6363 N   0  0  0  0  0  0  0  0  0  0  0  0
    7.6010   -4.7553    0.9013 C   0  0  0  0  0  0  0  0  0  0  0  0
    8.5985   -4.0560    0.7187 O   0  0  0  0  0  0  0  0  0  0  0  0
    6.3798   -4.4886    0.4075 N   0  0  0  0  0  0  0  0  0  0  0  0
    6.0484   -3.4275   -0.5298 C   0  0  0  0  0  0  0  0  0  0  0  0
    5.5684   -5.6703    0.5699 C   0  0  2  0  0  0  0  0  0  0  0  0
    4.0934   -5.6938    0.7799 C   0  0  0  0  0  0  0  0  0  0  0  0
    2.9758   -4.8744    0.4822 C   0  0  0  0  0  0  0  0  0  0  0  0
    1.8376   -5.4613    0.8296 N   0  0  0  0  0  0  0  0  0  0  0  0
    2.1480   -6.6752    1.3792 N   0  0  0  0  0  0  0  0  0  0  0  0
    1.1153   -7.5180    1.8930 C   0  0  0  0  0  0  0  0  0  0  0  0
    1.4130   -8.8318    2.3414 C   0  0  0  0  0  0  0  0  0  0  0  0
    0.3937   -9.6480    2.8519 C   0  0  0  0  0  0  0  0  0  0  0  0
   -0.9135   -9.1393    2.8976 C   0  0  0  0  0  0  0  0  0  0  0  0
   -1.1311   -7.8253    2.4478 C   0  0  0  0  0  0  0  0  0  0  0  0
   -0.1532   -7.0308    1.9593 N   0  0  0  0  0  0  0  0  0  0  0  0
    3.5266   -6.8009    1.3270 C   0  0  0  0  0  0  0  0  0  0  0  0
    4.3092   -7.8494    1.7212 N   0  0  0  0  0  0  0  0  0  0  0  0
    5.6539   -7.7676    1.9314 C   0  0  0  0  0  0  0  0  0  0  0  0
    6.5378   -9.1017    2.3938 S   0  0  0  0  0  0  0  0  0  0  0  0
    6.1885   -6.3213    1.8006 C   0  0  1  0  0  0  0  0  0  0  0  0
    9.6197   -5.9270    2.1486 H   0  0  0  0  0  0  0  0  0  0  0  0
    8.7746   -7.3838    2.5595 H   0  0  0  0  0  0  0  0  0  0  0  0
    8.4871   -5.9097    3.5039 H   0  0  0  0  0  0  0  0  0  0  0  0
    6.7023   -2.5690   -0.3843 H   0  0  0  0  0  0  0  0  0  0  0  0
    5.0211   -3.0870   -0.4219 H   0  0  0  0  0  0  0  0  0  0  0  0
    6.1943   -3.8027   -1.5390 H   0  0  0  0  0  0  0  0  0  0  0  0
    5.7974   -6.2621   -0.3094 H   0  0  0  0  0  0  0  0  0  0  0  0
    2.9327   -3.8993    0.0085 H   0  0  0  0  0  0  0  0  0  0  0  0
    2.3909   -9.2698    2.2902 H   0  0  0  0  0  0  0  0  0  0  0  0
    0.6139  -10.6598    3.1829 H   0  0  0  0  0  0  0  0  0  0  0  0
   -1.7251   -9.7466    3.2758 H   0  0  0  0  0  0  0  0  0  0  0  0
   -2.1207   -7.3975    2.4796 H   0  0  0  0  0  0  0  0  0  0  0  0
    3.8530   -8.7228    1.8833 H   0  0  0  0  0  0  0  0  0  0  0  0
    5.8456   -5.8013    2.7006 H   0  0  0  0  0  0  0  0  0  0  0  0
  1  2  1  0
  1 23  1  0
  1 24  1  0
  1 25  1  0
  2 22  1  0
  2  3  1  0
  3  4  2  0
  3  5  1  0
  5  6  1  0
  5  7  1  0
  6 26  1  0
  6 27  1  0
  6 28  1  0
  7 22  1  0
  7  8  1  0
  7 29  1  6
  8 18  2  0
  8  9  1  0
  9 10  2  0
  9 30  1  0
 10 11  1  0
 11 12  1  0
 11 18  1  0
 12 17  1  0
 12 13  2  0
 13 14  1  0
 13 31  1  0
 14 15  2  0
 14 32  1  0
 15 16  1  0
 15 33  1  0
 16 17  2  0
 16 34  1  0
 18 19  1  0
 19 20  1  0
 19 35  1  0
 20 21  2  0
 20 22  1  0
 22 36  1  1
M  END
>  <i_m_ct_stereo_status>  (130) 
1

>  <s_m_source_file>  (130) 
/var/tmp/pbs.5076255.sched01/tmpy176o0g7/39stoh4b52.sdf

>  <i_m_source_file_index>  (130) 
19

>  <i_lp_mmshare_version>  (130) 
48012

>  <i_f3d_flags>  (130) 
0

>  <s_epik_input>  (130) 
W0NIM11OMUMoPU8pTihbQ0gzXSlbQ0BASF0yQyg9UylbTkhdYyhjM1tDQEBIXTEyKW4obltjSF0zKS1jNFtjSF1bY0hdW2NIXVtjSF1uNA==

>  <s_epik_cmdline>  (130) 
J2VwaWtfcHl0aG9uJywgJy1waHQnLCAnMi4wJywgJy1waCcsICc3LjAnLCAnLXRuJywgJzgnLCAnLW1hJywgJzIwMCcsICctaW1hZScsICc8aW5maWxlLm1hZT4nLCAnLW9tYWUnLCAnPG91dGZpbGUubWFlPic=

>  <r_epik_Ionization_Penalty>  (130) 
0.000575063

>  <r_epik_Ionization_Penalty_Charging>  (130) 
0

>  <r_epik_Ionization_Penalty_Neutral>  (130) 
0.000575063

>  <r_epik_State_Penalty>  (130) 
0.00030243

>  <r_epik_Charging_Adjusted_Penalty>  (130) 
0.00030243

>  <i_epik_Tot_Q>  (130) 
0

>  <i_epik_Tot_abs_Q>  (130) 
0

>  <s_lp_Force_Field>  (130) 
OPLS3e

>  <r_lp_Energy>  (130) 
40.3722

>  <b_lp_Chiralities_Consistent>  (130) 
1

>  <s_lp_Variant>  (130) 
44:0-1

>  <s_i_glide_gridfile>  (130) 
pfpi4k_grid

>  <i_i_glide_lignum>  (130) 
19

>  <i_i_glide_rotatable_bonds>  (130) 
1

>  <r_i_docking_score>  (130) 
-4.40245

>  <r_i_glide_ligand_efficiency>  (130) 
-0.200111

>  <r_i_glide_ligand_efficiency_sa>  (130) 
-0.56072

>  <r_i_glide_ligand_efficiency_ln>  (130) 
-1.07612

>  <r_i_glide_gscore>  (130) 
-4.40245

>  <r_i_glide_lipo>  (130) 
-0.377361

>  <r_i_glide_hbond>  (130) 
-0.146933

>  <r_i_glide_metal>  (130) 
-0

>  <r_i_glide_rewards>  (130) 
-1.77011

>  <r_i_glide_evdw>  (130) 
-30.4944

>  <r_i_glide_ecoul>  (130) 
-4.7224

>  <r_i_glide_erotb>  (130) 
0.188081

>  <r_i_glide_esite>  (130) 
-0.0630442

>  <r_i_glide_emodel>  (130) 
-45.5773

>  <r_i_glide_energy>  (130) 
-35.2168

>  <r_i_glide_einternal>  (130) 
0.902545

>  <r_i_glide_intrahb_reward>  (130) 
-0

>  <i_i_glide_confnum>  (130) 
5

>  <i_i_glide_posenum>  (130) 
6

>  <r_i_glide_eff_state_penalty>  (130) 
0

>  <ligand_id>  (130) 
44

>  <original_smiles>  (130) 
CN1C(=O)N(C)C2c3cnn(-c4ccccn4)c3NC(=S)C21

>  <smiles>  (130) 
[H]c1nc(-n2nc([H])c3c2N([H])C(=S)C2([H])N(C([H])([H])[H])C(=O)N(C([H])([H])[H])C32[H])c([H])c([H])c1[H]

$$$$
44:0:2
     RDKit          3D

 36 39  0  0  1  0  0  0  0  0999 V2000
    2.2999    0.4047    2.3158 C   0  0  0  0  0  0  0  0  0  0  0  0
    3.0431   -0.8231    2.0516 N   0  0  0  0  0  0  0  0  0  0  0  0
    4.1477   -0.8752    1.2821 C   0  0  0  0  0  0  0  0  0  0  0  0
    4.7735    0.1041    0.8783 O   0  0  0  0  0  0  0  0  0  0  0  0
    4.4941   -2.1426    1.0194 N   0  0  0  0  0  0  0  0  0  0  0  0
    5.7005   -2.5766    0.3313 C   0  0  0  0  0  0  0  0  0  0  0  0
    3.7344   -3.0018    1.8941 C   0  0  2  0  0  0  0  0  0  0  0  0
    3.2584   -4.3787    1.5652 C   0  0  0  0  0  0  0  0  0  0  0  0
    3.6394   -5.4556    0.7151 C   0  0  0  0  0  0  0  0  0  0  0  0
    2.8906   -6.5420    0.9302 N   0  0  0  0  0  0  0  0  0  0  0  0
    1.9871   -6.2057    1.8920 N   0  0  0  0  0  0  0  0  0  0  0  0
    0.9913   -7.1191    2.3150 C   0  0  0  0  0  0  0  0  0  0  0  0
    1.3172   -8.4921    2.4667 C   0  0  0  0  0  0  0  0  0  0  0  0
    0.3160   -9.3951    2.8790 C   0  0  0  0  0  0  0  0  0  0  0  0
   -0.9777   -8.8950    3.1134 C   0  0  0  0  0  0  0  0  0  0  0  0
   -1.2095   -7.5207    2.9225 C   0  0  0  0  0  0  0  0  0  0  0  0
   -0.2600   -6.6497    2.5285 N   0  0  0  0  0  0  0  0  0  0  0  0
    2.2280   -4.8996    2.2693 C   0  0  0  0  0  0  0  0  0  0  0  0
    1.5889   -4.1666    3.2302 N   0  0  0  0  0  0  0  0  0  0  0  0
    1.6772   -2.8043    3.3230 C   0  0  0  0  0  0  0  0  0  0  0  0
    0.8795   -1.9594    4.5156 S   0  0  0  0  0  0  0  0  0  0  0  0
    2.4762   -2.1742    2.1479 C   0  0  1  0  0  0  0  0  0  0  0  0
    2.9514    1.2752    2.2780 H   0  0  0  0  0  0  0  0  0  0  0  0
    1.8365    0.4162    3.2965 H   0  0  0  0  0  0  0  0  0  0  0  0
    1.5336    0.5087    1.5513 H   0  0  0  0  0  0  0  0  0  0  0  0
    6.0286   -1.8280   -0.3870 H   0  0  0  0  0  0  0  0  0  0  0  0
    5.5541   -3.5110   -0.2067 H   0  0  0  0  0  0  0  0  0  0  0  0
    6.4822   -2.7037    1.0756 H   0  0  0  0  0  0  0  0  0  0  0  0
    4.3223   -3.0361    2.8097 H   0  0  0  0  0  0  0  0  0  0  0  0
    4.4429   -5.5202   -0.0153 H   0  0  0  0  0  0  0  0  0  0  0  0
    2.3200   -8.8466    2.2631 H   0  0  0  0  0  0  0  0  0  0  0  0
    0.5285  -10.4504    3.0141 H   0  0  0  0  0  0  0  0  0  0  0  0
   -1.7799   -9.5397    3.4437 H   0  0  0  0  0  0  0  0  0  0  0  0
   -2.1856   -7.0997    3.1032 H   0  0  0  0  0  0  0  0  0  0  0  0
    1.0026   -4.6767    3.8553 H   0  0  0  0  0  0  0  0  0  0  0  0
    1.8121   -2.2321    1.2770 H   0  0  0  0  0  0  0  0  0  0  0  0
  1  2  1  0
  1 23  1  0
  1 24  1  0
  1 25  1  0
  2 22  1  0
  2  3  1  0
  3  4  2  0
  3  5  1  0
  5  6  1  0
  5  7  1  0
  6 26  1  0
  6 27  1  0
  6 28  1  0
  7 22  1  0
  7  8  1  0
  7 29  1  1
  8 18  2  0
  8  9  1  0
  9 10  2  0
  9 30  1  0
 10 11  1  0
 11 12  1  0
 11 18  1  0
 12 17  1  0
 12 13  2  0
 13 14  1  0
 13 31  1  0
 14 15  2  0
 14 32  1  0
 15 16  1  0
 15 33  1  0
 16 17  2  0
 16 34  1  0
 18 19  1  0
 19 20  1  0
 19 35  1  0
 20 21  2  0
 20 22  1  0
 22 36  1  6
M  END
>  <i_m_ct_stereo_status>  (131) 
1

>  <s_m_source_file>  (131) 
/var/tmp/pbs.5076255.sched01/tmpy176o0g7/39stoh4b52.sdf

>  <i_m_source_file_index>  (131) 
19

>  <i_lp_mmshare_version>  (131) 
48012

>  <i_f3d_flags>  (131) 
0

>  <s_epik_input>  (131) 
W0NIM11OMUMoPU8pTihbQ0gzXSlbQ0BASF0yQyg9UylbTkhdYyhjM1tDQEBIXTEyKW4obltjSF0zKS1jNFtjSF1bY0hdW2NIXVtjSF1uNA==

>  <s_epik_cmdline>  (131) 
J2VwaWtfcHl0aG9uJywgJy1waHQnLCAnMi4wJywgJy1waCcsICc3LjAnLCAnLXRuJywgJzgnLCAnLW1hJywgJzIwMCcsICctaW1hZScsICc8aW5maWxlLm1hZT4nLCAnLW9tYWUnLCAnPG91dGZpbGUubWFlPic=

>  <r_epik_Ionization_Penalty>  (131) 
0.000575063

>  <r_epik_Ionization_Penalty_Charging>  (131) 
0

>  <r_epik_Ionization_Penalty_Neutral>  (131) 
0.000575063

>  <r_epik_State_Penalty>  (131) 
0.00030243

>  <r_epik_Charging_Adjusted_Penalty>  (131) 
0.00030243

>  <i_epik_Tot_Q>  (131) 
0

>  <i_epik_Tot_abs_Q>  (131) 
0

>  <s_lp_Force_Field>  (131) 
OPLS3e

>  <r_lp_Energy>  (131) 
40.3722

>  <b_lp_Chiralities_Consistent>  (131) 
1

>  <s_lp_Variant>  (131) 
44:0-1

>  <s_i_glide_gridfile>  (131) 
pfpi4k_grid

>  <i_i_glide_lignum>  (131) 
19

>  <i_i_glide_rotatable_bonds>  (131) 
1

>  <r_i_docking_score>  (131) 
-3.40991

>  <r_i_glide_ligand_efficiency>  (131) 
-0.154996

>  <r_i_glide_ligand_efficiency_sa>  (131) 
-0.434304

>  <r_i_glide_ligand_efficiency_ln>  (131) 
-0.833505

>  <r_i_glide_gscore>  (131) 
-3.40991

>  <r_i_glide_lipo>  (131) 
-0.0458394

>  <r_i_glide_hbond>  (131) 
-0.217515

>  <r_i_glide_metal>  (131) 
-0

>  <r_i_glide_rewards>  (131) 
-1.37721

>  <r_i_glide_evdw>  (131) 
-25.8929

>  <r_i_glide_ecoul>  (131) 
-3.81387

>  <r_i_glide_erotb>  (131) 
0.188081

>  <r_i_glide_esite>  (131) 
-0.0906921

>  <r_i_glide_emodel>  (131) 
-37.5836

>  <r_i_glide_energy>  (131) 
-29.7068

>  <r_i_glide_einternal>  (131) 
0.833831

>  <r_i_glide_intrahb_reward>  (131) 
-0

>  <i_i_glide_confnum>  (131) 
1

>  <i_i_glide_posenum>  (131) 
2

>  <r_i_glide_eff_state_penalty>  (131) 
0

>  <ligand_id>  (131) 
44

>  <original_smiles>  (131) 
CN1C(=O)N(C)C2c3cnn(-c4ccccn4)c3NC(=S)C21

>  <smiles>  (131) 
[H]c1nc(-n2nc([H])c3c2N([H])C(=S)C2([H])N(C([H])([H])[H])C(=O)N(C([H])([H])[H])C32[H])c([H])c([H])c1[H]

$$$$
45:0:0
     RDKit          3D

 87 92  0  0  1  0  0  0  0  0999 V2000
   -5.8175    6.2040    1.5206 C   0  0  0  0  0  0  0  0  0  0  0  0
   -4.3583    5.9233    1.9018 C   0  0  0  0  0  0  0  0  0  0  0  0
   -3.3977    6.6025    0.9073 C   0  0  0  0  0  0  0  0  0  0  0  0
   -4.1030    4.4080    2.0744 C   0  0  0  0  0  0  0  0  0  0  0  0
   -2.7311    4.0458    2.6978 C   0  0  0  0  0  0  0  0  0  0  0  0
   -2.5292    2.5300    2.8158 C   0  0  0  0  0  0  0  0  0  0  0  0
   -1.0909    2.0703    3.2014 C   0  0  2  0  0  0  0  0  0  0  0  0
   -0.4150    1.3644    2.0015 C   0  0  0  0  0  0  0  0  0  0  0  0
   -1.0849    1.1881    4.4907 C   0  0  2  0  0  0  0  0  0  0  0  0
   -1.4291    1.9955    5.7552 C   0  0  0  0  0  0  0  0  0  0  0  0
   -0.7370    1.2627    6.9049 C   0  0  0  0  0  0  0  0  0  0  0  0
    0.5636    0.7366    6.3097 C   0  0  2  0  0  0  0  0  0  0  0  0
    0.2521    0.4572    4.8258 C   0  0  1  0  0  0  0  0  0  0  0  0
    0.2673   -1.0162    4.3563 C   0  0  0  0  0  0  0  0  0  0  0  0
   -0.5135   -2.0272    5.2134 C   0  0  0  0  0  0  0  0  0  0  0  0
    0.1810   -2.6263    6.4606 C   0  0  2  0  0  0  0  0  0  0  0  0
   -0.8751   -3.5777    7.0983 C   0  0  0  0  0  0  0  0  0  0  0  0
    0.5686   -1.5976    7.5369 C   0  0  1  0  0  0  0  0  0  0  0  0
    1.4490   -2.3790    8.3323 O   0  0  0  0  0  0  0  0  0  0  0  0
    2.3848   -2.9643    7.4416 C   0  0  2  0  0  0  0  0  0  0  0  0
    3.4172   -1.8360    7.2122 C   0  0  0  0  0  0  0  0  0  0  0  0
    2.7645   -0.5764    6.6094 C   0  0  0  0  0  0  0  0  0  0  0  0
    1.3491   -0.2986    7.1668 C   0  0  1  0  0  0  0  0  0  0  0  0
    1.5435   -3.3348    6.1905 C   0  0  1  0  0  0  0  0  0  0  0  0
    1.4661   -4.7664    5.8922 N   0  0  0  0  0  0  0  0  0  0  0  0
    1.1548   -5.8070    6.7849 C   0  0  0  0  0  0  0  0  0  0  0  0
    1.1203   -6.9905    6.1146 C   0  0  0  0  0  0  0  0  0  0  0  0
    0.7531   -8.5391    6.7041 Cl  0  0  0  0  0  0  0  0  0  0  0  0
    1.4794   -6.7296    4.7546 C   0  0  0  0  0  0  0  0  0  0  0  0
    1.6736   -7.4917    3.5686 C   0  0  0  0  0  0  0  0  0  0  0  0
    1.4745   -8.8692    3.5361 N   0  0  0  0  0  0  0  0  0  0  0  0
    2.2617   -9.7598    2.6915 C   0  0  0  0  0  0  0  0  0  0  0  0
    3.2589  -10.6382    3.4888 C   0  0  0  0  0  0  0  0  0  0  0  0
    3.4748  -11.9350    2.8860 N   0  0  0  0  0  0  0  0  0  0  0  0
    2.0342   -6.8298    2.4476 N   0  0  0  0  0  0  0  0  0  0  0  0
    2.1965   -5.5115    2.4772 C   0  0  0  0  0  0  0  0  0  0  0  0
    2.0294   -4.6662    3.4824 N   0  0  0  0  0  0  0  0  0  0  0  0
    1.6810   -5.3362    4.6368 C   0  0  0  0  0  0  0  0  0  0  0  0
   -6.0648    5.7684    0.5534 H   0  0  0  0  0  0  0  0  0  0  0  0
   -6.0108    7.2760    1.4644 H   0  0  0  0  0  0  0  0  0  0  0  0
   -6.5038    5.7872    2.2584 H   0  0  0  0  0  0  0  0  0  0  0  0
   -4.2217    6.3896    2.8670 H   0  0  0  0  0  0  0  0  0  0  0  0
   -3.4823    6.1628   -0.0873 H   0  0  0  0  0  0  0  0  0  0  0  0
   -2.3548    6.5361    1.2226 H   0  0  0  0  0  0  0  0  0  0  0  0
   -3.6194    7.6638    0.7984 H   0  0  0  0  0  0  0  0  0  0  0  0
   -4.8979    3.9720    2.6799 H   0  0  0  0  0  0  0  0  0  0  0  0
   -4.2041    3.9220    1.1033 H   0  0  0  0  0  0  0  0  0  0  0  0
   -1.9095    4.4621    2.1242 H   0  0  0  0  0  0  0  0  0  0  0  0
   -2.6317    4.4890    3.6840 H   0  0  0  0  0  0  0  0  0  0  0  0
   -3.2530    2.1490    3.5363 H   0  0  0  0  0  0  0  0  0  0  0  0
   -2.8155    2.0736    1.8666 H   0  0  0  0  0  0  0  0  0  0  0  0
   -0.4895    2.9594    3.3961 H   0  0  0  0  0  0  0  0  0  0  0  0
   -0.9373    0.4578    1.7132 H   0  0  0  0  0  0  0  0  0  0  0  0
    0.6225    1.0963    2.1813 H   0  0  0  0  0  0  0  0  0  0  0  0
   -0.3706    2.0035    1.1263 H   0  0  0  0  0  0  0  0  0  0  0  0
   -1.8571    0.4258    4.3782 H   0  0  0  0  0  0  0  0  0  0  0  0
   -1.0262    3.0066    5.6800 H   0  0  0  0  0  0  0  0  0  0  0  0
   -2.5035    2.0893    5.9167 H   0  0  0  0  0  0  0  0  0  0  0  0
   -0.5706    1.9113    7.7653 H   0  0  0  0  0  0  0  0  0  0  0  0
   -1.3623    0.4347    7.2163 H   0  0  0  0  0  0  0  0  0  0  0  0
    1.2141    1.6125    6.2799 H   0  0  0  0  0  0  0  0  0  0  0  0
    1.0526    0.9562    4.2844 H   0  0  0  0  0  0  0  0  0  0  0  0
   -0.1722   -1.0472    3.3616 H   0  0  0  0  0  0  0  0  0  0  0  0
    1.2823   -1.3449    4.1692 H   0  0  0  0  0  0  0  0  0  0  0  0
   -1.4736   -1.5953    5.4948 H   0  0  0  0  0  0  0  0  0  0  0  0
   -0.7485   -2.8654    4.5596 H   0  0  0  0  0  0  0  0  0  0  0  0
   -0.5310   -4.0267    8.0284 H   0  0  0  0  0  0  0  0  0  0  0  0
   -1.1843   -4.3793    6.4278 H   0  0  0  0  0  0  0  0  0  0  0  0
   -1.7823   -3.0608    7.3669 H   0  0  0  0  0  0  0  0  0  0  0  0
   -0.2798   -1.3309    8.1569 H   0  0  0  0  0  0  0  0  0  0  0  0
    2.8792   -3.8216    7.9001 H   0  0  0  0  0  0  0  0  0  0  0  0
    3.9113   -1.5867    8.1536 H   0  0  0  0  0  0  0  0  0  0  0  0
    4.2089   -2.1700    6.5421 H   0  0  0  0  0  0  0  0  0  0  0  0
    3.3924    0.2918    6.8300 H   0  0  0  0  0  0  0  0  0  0  0  0
    2.7723   -0.6440    5.5256 H   0  0  0  0  0  0  0  0  0  0  0  0
    1.4973    0.1974    8.1276 H   0  0  0  0  0  0  0  0  0  0  0  0
    2.0461   -2.8584    5.3597 H   0  0  0  0  0  0  0  0  0  0  0  0
    0.9421   -5.6343    7.8312 H   0  0  0  0  0  0  0  0  0  0  0  0
    1.5500  -10.4083    2.1848 H   0  0  0  0  0  0  0  0  0  0  0  0
    2.8047   -9.2134    1.9211 H   0  0  0  0  0  0  0  0  0  0  0  0
    4.2147  -10.1181    3.5837 H   0  0  0  0  0  0  0  0  0  0  0  0
    2.9301  -10.7822    4.5221 H   0  0  0  0  0  0  0  0  0  0  0  0
    4.1324  -12.4882    3.4168 H   0  0  0  0  0  0  0  0  0  0  0  0
    3.8093  -11.8620    1.8868 H   0  0  0  0  0  0  0  0  0  0  0  0
    2.4600   -5.0390    1.5314 H   0  0  0  0  0  0  0  0  0  0  0  0
    0.9854   -9.2775    4.3237 H   0  0  0  0  0  0  0  0  0  0  0  0
    2.5922  -12.4425    2.8543 H   0  0  0  0  0  0  0  0  0  0  0  0
  1  2  1  0
  1 39  1  0
  1 40  1  0
  1 41  1  0
  2  3  1  0
  2  4  1  0
  2 42  1  0
  3 43  1  0
  3 44  1  0
  3 45  1  0
  4  5  1  0
  4 46  1  0
  4 47  1  0
  5  6  1  0
  5 48  1  0
  5 49  1  0
  6  7  1  0
  6 50  1  0
  6 51  1  0
  7  8  1  0
  7  9  1  0
  7 52  1  1
  8 53  1  0
  8 54  1  0
  8 55  1  0
  9 13  1  0
  9 10  1  0
  9 56  1  6
 10 11  1  0
 10 57  1  0
 10 58  1  0
 11 12  1  0
 11 59  1  0
 11 60  1  0
 12 23  1  0
 12 13  1  0
 12 61  1  6
 13 14  1  0
 13 62  1  6
 14 15  1  0
 14 63  1  0
 14 64  1  0
 15 16  1  0
 15 65  1  0
 15 66  1  0
 16 24  1  0
 16 17  1  1
 16 18  1  0
 17 67  1  0
 17 68  1  0
 17 69  1  0
 18 23  1  0
 18 19  1  0
 18 70  1  1
 19 20  1  0
 20 21  1  0
 20 24  1  0
 20 71  1  1
 21 22  1  0
 21 72  1  0
 21 73  1  0
 22 23  1  0
 22 74  1  0
 22 75  1  0
 23 76  1  1
 24 25  1  0
 24 77  1  6
 25 38  1  0
 25 26  1  0
 26 27  2  0
 26 78  1  0
 27 28  1  0
 27 29  1  0
 29 38  2  0
 29 30  1  0
 30 31  1  0
 30 35  2  0
 31 32  1  0
 31 86  1  0
 32 33  1  0
 32 79  1  0
 32 80  1  0
 33 34  1  0
 33 81  1  0
 33 82  1  0
 34 83  1  0
 34 84  1  0
 34 87  1  0
 35 36  1  0
 36 37  2  0
 36 85  1  0
 37 38  1  0
M  CHG  1  34   1
M  END
>  <i_m_ct_stereo_status>  (132) 
1

>  <s_m_source_file>  (132) 
/var/tmp/pbs.5076255.sched01/tmpy176o0g7/39stoh4b52.sdf

>  <i_m_source_file_index>  (132) 
20

>  <i_lp_mmshare_version>  (132) 
48012

>  <i_f3d_flags>  (132) 
0

>  <s_epik_input>  (132) 
W0NIM11bQ0hdKFtDSDNdKVtDSDJdW0NIMl1bQ0gyXVtDQEhdKFtDSDNdKVtDQEhdKFtDSDJdW0NIMl0xKVtDQEhdKFtDSDJdW0NIMl0yKVtDQEBIXTFbQ0BASF0oW0NASF0zW0NAQF0yNFtDSDNdKVtDSDJdW0NIMl1bQ0BASF0oTzMpW0NASF00bihbY0hdYzVDbCljKGM1NilbbkhdW2NIXW5jXDY9Ti9bQ0gyXVtDSDJdW05IMl0=

>  <s_epik_cmdline>  (132) 
J2VwaWtfcHl0aG9uJywgJy1waHQnLCAnMi4wJywgJy1waCcsICc3LjAnLCAnLXRuJywgJzgnLCAnLW1hJywgJzIwMCcsICctaW1hZScsICc8aW5maWxlLm1hZT4nLCAnLW9tYWUnLCAnPG91dGZpbGUubWFlPic=

>  <r_epik_Ionization_Penalty>  (132) 
0.00167947

>  <r_epik_Ionization_Penalty_Charging>  (132) 
0.000473421

>  <r_epik_Ionization_Penalty_Neutral>  (132) 
0.00120605

>  <r_epik_State_Penalty>  (132) 
0.00227111

>  <r_epik_Charging_Adjusted_Penalty>  (132) 
0.00274453

>  <i_epik_Tot_Q>  (132) 
1

>  <i_epik_Tot_abs_Q>  (132) 
1

>  <s_lp_Force_Field>  (132) 
OPLS3e

>  <r_lp_Energy>  (132) 
62.4583

>  <b_lp_Chiralities_Consistent>  (132) 
1

>  <s_lp_Variant>  (132) 
45:0-1

>  <s_i_glide_gridfile>  (132) 
pfpi4k_grid

>  <i_i_glide_lignum>  (132) 
20

>  <i_i_glide_rotatable_bonds>  (132) 
9

>  <r_i_docking_score>  (132) 
-2.4721

>  <r_i_glide_ligand_efficiency>  (132) 
-0.0650552

>  <r_i_glide_ligand_efficiency_sa>  (132) 
-0.218714

>  <r_i_glide_ligand_efficiency_ln>  (132) 
-0.533057

>  <r_i_glide_gscore>  (132) 
-2.4721

>  <r_i_glide_lipo>  (132) 
-0.221037

>  <r_i_glide_hbond>  (132) 
-0.2

>  <r_i_glide_metal>  (132) 
-0

>  <r_i_glide_rewards>  (132) 
0

>  <r_i_glide_evdw>  (132) 
-27.6825

>  <r_i_glide_ecoul>  (132) 
-6.94401

>  <r_i_glide_erotb>  (132) 
0.49085

>  <r_i_glide_esite>  (132) 
-0.116184

>  <r_i_glide_emodel>  (132) 
-35.9784

>  <r_i_glide_energy>  (132) 
-34.6265

>  <r_i_glide_einternal>  (132) 
9.62005

>  <r_i_glide_intrahb_reward>  (132) 
-0

>  <i_i_glide_confnum>  (132) 
7

>  <i_i_glide_posenum>  (132) 
19

>  <r_i_glide_eff_state_penalty>  (132) 
0

>  <ligand_id>  (132) 
45

>  <original_smiles>  (132) 
CC(C)CCCC(C)C1CCC2C1CCC1(C)C3OC(CCC23)C1n1cc(Cl)c2c(=NCCN)nc[nH]c21

>  <smiles>  (132) 
[H]c1nc(N([H])C([H])([H])C([H])([H])[N+]([H])([H])[H])c2c(Cl)c([H])n(C3([H])C4([H])OC5([H])C([H])(C([H])([H])C4([H])[H])C4([H])C([H])([H])C([H])([H])C([H])(C([H])(C([H])([H])[H])C([H])([H])C([H])([H])C([H])([H])C([H])(C([H])([H])[H])C([H])([H])[H])C4([H])C([H])([H])C([H])([H])C53C([H])([H])[H])c2n1

$$$$
45:0:1
     RDKit          3D

 87 92  0  0  1  0  0  0  0  0999 V2000
   -5.7105    6.5567    1.5546 C   0  0  0  0  0  0  0  0  0  0  0  0
   -4.2449    6.1258    1.6623 C   0  0  0  0  0  0  0  0  0  0  0  0
   -3.4599    6.5695    0.4179 C   0  0  0  0  0  0  0  0  0  0  0  0
   -4.1233    4.6183    2.0088 C   0  0  0  0  0  0  0  0  0  0  0  0
   -2.7981    4.2103    2.7174 C   0  0  0  0  0  0  0  0  0  0  0  0
   -2.8342    2.7467    3.1954 C   0  0  0  0  0  0  0  0  0  0  0  0
   -1.4415    2.1001    3.4551 C   0  0  2  0  0  0  0  0  0  0  0  0
   -1.0063    1.2934    2.2104 C   0  0  0  0  0  0  0  0  0  0  0  0
   -1.4293    1.2159    4.7393 C   0  0  2  0  0  0  0  0  0  0  0  0
   -1.7657    2.0251    6.0057 C   0  0  0  0  0  0  0  0  0  0  0  0
   -1.0611    1.3164    7.1533 C   0  0  0  0  0  0  0  0  0  0  0  0
    0.2501    0.8214    6.5450 C   0  0  2  0  0  0  0  0  0  0  0  0
   -0.0694    0.5222    5.0587 C   0  0  1  0  0  0  0  0  0  0  0  0
   -0.0138   -0.9556    4.6032 C   0  0  0  0  0  0  0  0  0  0  0  0
   -0.7578   -1.9865    5.4677 C   0  0  0  0  0  0  0  0  0  0  0  0
   -0.0494   -2.5634    6.7156 C   0  0  2  0  0  0  0  0  0  0  0  0
   -1.0495   -3.5882    7.3300 C   0  0  0  0  0  0  0  0  0  0  0  0
    0.3129   -1.5187    7.7893 C   0  0  1  0  0  0  0  0  0  0  0  0
    1.2088   -2.2805    8.5824 O   0  0  0  0  0  0  0  0  0  0  0  0
    2.1674   -2.8248    7.6894 C   0  0  2  0  0  0  0  0  0  0  0  0
    3.1667   -1.6788    7.4417 C   0  0  0  0  0  0  0  0  0  0  0  0
    2.4791   -0.4403    6.8421 C   0  0  0  0  0  0  0  0  0  0  0  0
    1.0534   -0.2023    7.3975 C   0  0  1  0  0  0  0  0  0  0  0  0
    1.3362   -3.2148    6.4439 C   0  0  1  0  0  0  0  0  0  0  0  0
    1.3065   -4.6606    6.1529 N   0  0  0  0  0  0  0  0  0  0  0  0
    1.0955   -5.7080    7.0644 C   0  0  0  0  0  0  0  0  0  0  0  0
    1.0622   -6.9011    6.4027 C   0  0  0  0  0  0  0  0  0  0  0  0
    0.7713   -8.4564    7.0114 Cl  0  0  0  0  0  0  0  0  0  0  0  0
    1.3160   -6.6298    5.0222 C   0  0  0  0  0  0  0  0  0  0  0  0
    1.4572   -7.3763    3.8246 C   0  0  0  0  0  0  0  0  0  0  0  0
    1.3860   -8.7739    3.8297 N   0  0  0  0  0  0  0  0  0  0  0  0
    1.5215   -9.5729    2.6138 C   0  0  0  0  0  0  0  0  0  0  0  0
    1.2779  -11.0638    2.9086 C   0  0  0  0  0  0  0  0  0  0  0  0
    2.5385  -11.8363    2.8987 N   0  0  0  0  0  0  0  0  0  0  0  0
    1.6924   -6.7226    2.6625 N   0  0  0  0  0  0  0  0  0  0  0  0
    1.8186   -5.3933    2.6867 C   0  0  0  0  0  0  0  0  0  0  0  0
    1.7021   -4.5618    3.7214 N   0  0  0  0  0  0  0  0  0  0  0  0
    1.4591   -5.2256    4.8887 C   0  0  0  0  0  0  0  0  0  0  0  0
   -6.2134    6.0512    0.7310 H   0  0  0  0  0  0  0  0  0  0  0  0
   -5.7900    7.6330    1.3932 H   0  0  0  0  0  0  0  0  0  0  0  0
   -6.2546    6.3261    2.4710 H   0  0  0  0  0  0  0  0  0  0  0  0
   -3.8177    6.7083    2.4726 H   0  0  0  0  0  0  0  0  0  0  0  0
   -3.7784    6.0386   -0.4809 H   0  0  0  0  0  0  0  0  0  0  0  0
   -2.3819    6.4546    0.5563 H   0  0  0  0  0  0  0  0  0  0  0  0
   -3.6003    7.6333    0.2207 H   0  0  0  0  0  0  0  0  0  0  0  0
   -4.9710    4.3087    2.6184 H   0  0  0  0  0  0  0  0  0  0  0  0
   -4.2441    4.0231    1.1036 H   0  0  0  0  0  0  0  0  0  0  0  0
   -1.9398    4.3731    2.0804 H   0  0  0  0  0  0  0  0  0  0  0  0
   -2.6028    4.8340    3.5894 H   0  0  0  0  0  0  0  0  0  0  0  0
   -3.4792    2.7156    4.0718 H   0  0  0  0  0  0  0  0  0  0  0  0
   -3.3543    2.1607    2.4424 H   0  0  0  0  0  0  0  0  0  0  0  0
   -0.7084    2.8980    3.5957 H   0  0  0  0  0  0  0  0  0  0  0  0
   -1.7165    0.4979    1.9956 H   0  0  0  0  0  0  0  0  0  0  0  0
   -0.0114    0.8629    2.3108 H   0  0  0  0  0  0  0  0  0  0  0  0
   -0.9563    1.8952    1.3114 H   0  0  0  0  0  0  0  0  0  0  0  0
   -2.1814    0.4343    4.6230 H   0  0  0  0  0  0  0  0  0  0  0  0
   -1.3819    3.0401    5.9130 H   0  0  0  0  0  0  0  0  0  0  0  0
   -2.8356    2.1008    6.1924 H   0  0  0  0  0  0  0  0  0  0  0  0
   -0.9022    1.9679    8.0135 H   0  0  0  0  0  0  0  0  0  0  0  0
   -1.6829    0.4869    7.4652 H   0  0  0  0  0  0  0  0  0  0  0  0
    0.8820    1.7082    6.5057 H   0  0  0  0  0  0  0  0  0  0  0  0
    0.7014    1.0358    4.4785 H   0  0  0  0  0  0  0  0  0  0  0  0
   -0.4599   -1.0018    3.6148 H   0  0  0  0  0  0  0  0  0  0  0  0
    1.0109   -1.2547    4.4081 H   0  0  0  0  0  0  0  0  0  0  0  0
   -1.7344   -1.5843    5.7462 H   0  0  0  0  0  0  0  0  0  0  0  0
   -0.9615   -2.8299    4.8144 H   0  0  0  0  0  0  0  0  0  0  0  0
   -0.6741   -4.0054    8.2668 H   0  0  0  0  0  0  0  0  0  0  0  0
   -1.2726   -4.4154    6.6492 H   0  0  0  0  0  0  0  0  0  0  0  0
   -2.0067   -3.1450    7.5558 H   0  0  0  0  0  0  0  0  0  0  0  0
   -0.5504   -1.2639    8.3948 H   0  0  0  0  0  0  0  0  0  0  0  0
    2.6624   -3.6851    8.1461 H   0  0  0  0  0  0  0  0  0  0  0  0
    3.6330   -1.4136    8.3905 H   0  0  0  0  0  0  0  0  0  0  0  0
    3.9710   -2.0070    6.7877 H   0  0  0  0  0  0  0  0  0  0  0  0
    3.0935    0.4273    7.0597 H   0  0  0  0  0  0  0  0  0  0  0  0
    2.4788   -0.5113    5.7564 H   0  0  0  0  0  0  0  0  0  0  0  0
    1.2192    0.3043    8.3554 H   0  0  0  0  0  0  0  0  0  0  0  0
    1.8305   -2.7395    5.5953 H   0  0  0  0  0  0  0  0  0  0  0  0
    0.9378   -5.5369    8.1188 H   0  0  0  0  0  0  0  0  0  0  0  0
    0.7732   -9.2469    1.8862 H   0  0  0  0  0  0  0  0  0  0  0  0
    2.5001   -9.3861    2.1584 H   0  0  0  0  0  0  0  0  0  0  0  0
    0.7408  -11.2138    3.8475 H   0  0  0  0  0  0  0  0  0  0  0  0
    0.5833  -11.4474    2.1709 H   0  0  0  0  0  0  0  0  0  0  0  0
    2.3350  -12.8138    3.0706 H   0  0  0  0  0  0  0  0  0  0  0  0
    3.1451  -11.4905    3.6190 H   0  0  0  0  0  0  0  0  0  0  0  0
    2.0383   -4.9323    1.7428 H   0  0  0  0  0  0  0  0  0  0  0  0
    1.2607   -9.2540    4.7161 H   0  0  0  0  0  0  0  0  0  0  0  0
    3.0076  -11.7624    1.9992 H   0  0  0  0  0  0  0  0  0  0  0  0
  1  2  1  0
  1 39  1  0
  1 40  1  0
  1 41  1  0
  2  3  1  0
  2  4  1  0
  2 42  1  0
  3 43  1  0
  3 44  1  0
  3 45  1  0
  4  5  1  0
  4 46  1  0
  4 47  1  0
  5  6  1  0
  5 48  1  0
  5 49  1  0
  6  7  1  0
  6 50  1  0
  6 51  1  0
  7  8  1  0
  7  9  1  0
  7 52  1  1
  8 53  1  0
  8 54  1  0
  8 55  1  0
  9 13  1  0
  9 10  1  0
  9 56  1  6
 10 11  1  0
 10 57  1  0
 10 58  1  0
 11 12  1  0
 11 59  1  0
 11 60  1  0
 12 23  1  0
 12 13  1  0
 12 61  1  6
 13 14  1  0
 13 62  1  6
 14 15  1  0
 14 63  1  0
 14 64  1  0
 15 16  1  0
 15 65  1  0
 15 66  1  0
 16 24  1  0
 16 17  1  1
 16 18  1  0
 17 67  1  0
 17 68  1  0
 17 69  1  0
 18 23  1  0
 18 19  1  0
 18 70  1  1
 19 20  1  0
 20 21  1  0
 20 24  1  0
 20 71  1  1
 21 22  1  0
 21 72  1  0
 21 73  1  0
 22 23  1  0
 22 74  1  0
 22 75  1  0
 23 76  1  1
 24 25  1  0
 24 77  1  6
 25 38  1  0
 25 26  1  0
 26 27  2  0
 26 78  1  0
 27 28  1  0
 27 29  1  0
 29 38  2  0
 29 30  1  0
 30 31  1  0
 30 35  2  0
 31 32  1  0
 31 86  1  0
 32 33  1  0
 32 79  1  0
 32 80  1  0
 33 34  1  0
 33 81  1  0
 33 82  1  0
 34 83  1  0
 34 84  1  0
 34 87  1  0
 35 36  1  0
 36 37  2  0
 36 85  1  0
 37 38  1  0
M  CHG  1  34   1
M  END
>  <i_m_ct_stereo_status>  (133) 
1

>  <s_m_source_file>  (133) 
/var/tmp/pbs.5076255.sched01/tmpy176o0g7/39stoh4b52.sdf

>  <i_m_source_file_index>  (133) 
20

>  <i_lp_mmshare_version>  (133) 
48012

>  <i_f3d_flags>  (133) 
0

>  <s_epik_input>  (133) 
W0NIM11bQ0hdKFtDSDNdKVtDSDJdW0NIMl1bQ0gyXVtDQEhdKFtDSDNdKVtDQEhdKFtDSDJdW0NIMl0xKVtDQEhdKFtDSDJdW0NIMl0yKVtDQEBIXTFbQ0BASF0oW0NASF0zW0NAQF0yNFtDSDNdKVtDSDJdW0NIMl1bQ0BASF0oTzMpW0NASF00bihbY0hdYzVDbCljKGM1NilbbkhdW2NIXW5jXDY9Ti9bQ0gyXVtDSDJdW05IMl0=

>  <s_epik_cmdline>  (133) 
J2VwaWtfcHl0aG9uJywgJy1waHQnLCAnMi4wJywgJy1waCcsICc3LjAnLCAnLXRuJywgJzgnLCAnLW1hJywgJzIwMCcsICctaW1hZScsICc8aW5maWxlLm1hZT4nLCAnLW9tYWUnLCAnPG91dGZpbGUubWFlPic=

>  <r_epik_Ionization_Penalty>  (133) 
0.00167947

>  <r_epik_Ionization_Penalty_Charging>  (133) 
0.000473421

>  <r_epik_Ionization_Penalty_Neutral>  (133) 
0.00120605

>  <r_epik_State_Penalty>  (133) 
0.00227111

>  <r_epik_Charging_Adjusted_Penalty>  (133) 
0.00274453

>  <i_epik_Tot_Q>  (133) 
1

>  <i_epik_Tot_abs_Q>  (133) 
1

>  <s_lp_Force_Field>  (133) 
OPLS3e

>  <r_lp_Energy>  (133) 
62.4583

>  <b_lp_Chiralities_Consistent>  (133) 
1

>  <s_lp_Variant>  (133) 
45:0-1

>  <s_i_glide_gridfile>  (133) 
pfpi4k_grid

>  <i_i_glide_lignum>  (133) 
20

>  <i_i_glide_rotatable_bonds>  (133) 
9

>  <r_i_docking_score>  (133) 
-2.31181

>  <r_i_glide_ligand_efficiency>  (133) 
-0.0608372

>  <r_i_glide_ligand_efficiency_sa>  (133) 
-0.204533

>  <r_i_glide_ligand_efficiency_ln>  (133) 
-0.498495

>  <r_i_glide_gscore>  (133) 
-2.31181

>  <r_i_glide_lipo>  (133) 
-0.484262

>  <r_i_glide_hbond>  (133) 
-0.2

>  <r_i_glide_metal>  (133) 
-0

>  <r_i_glide_rewards>  (133) 
0

>  <r_i_glide_evdw>  (133) 
-24.4682

>  <r_i_glide_ecoul>  (133) 
-5.47216

>  <r_i_glide_erotb>  (133) 
0.49085

>  <r_i_glide_esite>  (133) 
-0.0741689

>  <r_i_glide_emodel>  (133) 
-29.8757

>  <r_i_glide_energy>  (133) 
-29.9403

>  <r_i_glide_einternal>  (133) 
11.8207

>  <r_i_glide_intrahb_reward>  (133) 
-0

>  <i_i_glide_confnum>  (133) 
7

>  <i_i_glide_posenum>  (133) 
33

>  <r_i_glide_eff_state_penalty>  (133) 
0

>  <ligand_id>  (133) 
45

>  <original_smiles>  (133) 
CC(C)CCCC(C)C1CCC2C1CCC1(C)C3OC(CCC23)C1n1cc(Cl)c2c(=NCCN)nc[nH]c21

>  <smiles>  (133) 
[H]c1nc(N([H])C([H])([H])C([H])([H])[N+]([H])([H])[H])c2c(Cl)c([H])n(C3([H])C4([H])OC5([H])C([H])(C([H])([H])C4([H])[H])C4([H])C([H])([H])C([H])([H])C([H])(C([H])(C([H])([H])[H])C([H])([H])C([H])([H])C([H])([H])C([H])(C([H])([H])[H])C([H])([H])[H])C4([H])C([H])([H])C([H])([H])C53C([H])([H])[H])c2n1

$$$$
45:0:2
     RDKit          3D

 87 92  0  0  1  0  0  0  0  0999 V2000
   -4.1311    6.6396    1.7661 C   0  0  0  0  0  0  0  0  0  0  0  0
   -5.1213    5.5166    1.3962 C   0  0  0  0  0  0  0  0  0  0  0  0
   -6.5594    6.0472    1.5867 C   0  0  0  0  0  0  0  0  0  0  0  0
   -4.8952    4.1878    2.1850 C   0  0  0  0  0  0  0  0  0  0  0  0
   -3.4108    3.7736    2.4050 C   0  0  0  0  0  0  0  0  0  0  0  0
   -3.1235    2.9583    3.6691 C   0  0  0  0  0  0  0  0  0  0  0  0
   -1.6647    2.4529    3.8117 C   0  0  2  0  0  0  0  0  0  0  0  0
   -1.0948    1.8892    2.4876 C   0  0  0  0  0  0  0  0  0  0  0  0
   -1.5659    1.4277    4.9754 C   0  0  2  0  0  0  0  0  0  0  0  0
   -1.9091    2.0391    6.3457 C   0  0  0  0  0  0  0  0  0  0  0  0
   -1.1428    1.2001    7.3587 C   0  0  0  0  0  0  0  0  0  0  0  0
    0.1692    0.8508    6.6632 C   0  0  2  0  0  0  0  0  0  0  0  0
   -0.1794    0.7508    5.1601 C   0  0  1  0  0  0  0  0  0  0  0  0
   -0.0994   -0.6398    4.4862 C   0  0  0  0  0  0  0  0  0  0  0  0
   -0.7870   -1.8102    5.2092 C   0  0  0  0  0  0  0  0  0  0  0  0
   -0.0371   -2.5290    6.3562 C   0  0  2  0  0  0  0  0  0  0  0  0
   -1.0365   -3.5985    6.8915 C   0  0  0  0  0  0  0  0  0  0  0  0
    0.3394   -1.6456    7.5559 C   0  0  1  0  0  0  0  0  0  0  0  0
    1.2794   -2.4967    8.2015 O   0  0  0  0  0  0  0  0  0  0  0  0
    2.2274   -2.8723    7.2152 C   0  0  2  0  0  0  0  0  0  0  0  0
    3.1814   -1.6611    7.1128 C   0  0  0  0  0  0  0  0  0  0  0  0
    2.4400   -0.3668    6.7280 C   0  0  0  0  0  0  0  0  0  0  0  0
    1.0219   -0.2625    7.3364 C   0  0  1  0  0  0  0  0  0  0  0  0
    1.3568   -3.1117    5.9591 C   0  0  1  0  0  0  0  0  0  0  0  0
    1.3679   -4.5050    5.4515 N   0  0  0  0  0  0  0  0  0  0  0  0
    1.0008   -5.6660    6.1387 C   0  0  0  0  0  0  0  0  0  0  0  0
    1.0564   -6.7436    5.2929 C   0  0  0  0  0  0  0  0  0  0  0  0
    0.6186   -8.3595    5.5931 Cl  0  0  0  0  0  0  0  0  0  0  0  0
    1.5871   -6.2911    4.0460 C   0  0  0  0  0  0  0  0  0  0  0  0
    1.9613   -6.8562    2.8029 C   0  0  0  0  0  0  0  0  0  0  0  0
    1.7933   -8.2398    2.5836 N   0  0  0  0  0  0  0  0  0  0  0  0
    2.6817   -8.9788    1.6904 C   0  0  0  0  0  0  0  0  0  0  0  0
    4.0700   -9.2384    2.2996 C   0  0  0  0  0  0  0  0  0  0  0  0
    4.9657   -9.8553    1.2893 N   0  0  0  0  0  0  0  0  0  0  0  0
    2.4846   -6.0702    1.8385 N   0  0  0  0  0  0  0  0  0  0  0  0
    2.6146   -4.7565    2.0818 C   0  0  0  0  0  0  0  0  0  0  0  0
    2.2800   -4.0814    3.1864 N   0  0  0  0  0  0  0  0  0  0  0  0
    1.7841   -4.8769    4.1653 C   0  0  0  0  0  0  0  0  0  0  0  0
   -4.2146    6.8246    2.8249 H   0  0  0  0  0  0  0  0  0  0  0  0
   -4.3792    7.5774    1.2509 H   0  0  0  0  0  0  0  0  0  0  0  0
   -3.0932    6.3951    1.5262 H   0  0  0  0  0  0  0  0  0  0  0  0
   -4.9752    5.3173    0.3331 H   0  0  0  0  0  0  0  0  0  0  0  0
   -6.7876    6.1871    2.6465 H   0  0  0  0  0  0  0  0  0  0  0  0
   -7.3098    5.3709    1.1801 H   0  0  0  0  0  0  0  0  0  0  0  0
   -6.6857    7.0158    1.0961 H   0  0  0  0  0  0  0  0  0  0  0  0
   -5.4490    4.1796    3.1225 H   0  0  0  0  0  0  0  0  0  0  0  0
   -5.3859    3.3803    1.6331 H   0  0  0  0  0  0  0  0  0  0  0  0
   -3.2199    3.1213    1.5530 H   0  0  0  0  0  0  0  0  0  0  0  0
   -2.7095    4.5973    2.4177 H   0  0  0  0  0  0  0  0  0  0  0  0
   -3.3617    3.5578    4.5377 H   0  0  0  0  0  0  0  0  0  0  0  0
   -3.8302    2.1502    3.6775 H   0  0  0  0  0  0  0  0  0  0  0  0
   -1.0498    3.3228    4.0590 H   0  0  0  0  0  0  0  0  0  0  0  0
   -1.6994    1.0606    2.1160 H   0  0  0  0  0  0  0  0  0  0  0  0
   -0.0598    1.5616    2.5806 H   0  0  0  0  0  0  0  0  0  0  0  0
   -1.0412    2.6501    1.7171 H   0  0  0  0  0  0  0  0  0  0  0  0
   -2.2938    0.6415    4.7727 H   0  0  0  0  0  0  0  0  0  0  0  0
   -1.5759    3.0759    6.4018 H   0  0  0  0  0  0  0  0  0  0  0  0
   -2.9812    2.0341    6.5457 H   0  0  0  0  0  0  0  0  0  0  0  0
   -0.9921    1.7175    8.3072 H   0  0  0  0  0  0  0  0  0  0  0  0
   -1.7025    0.2957    7.5357 H   0  0  0  0  0  0  0  0  0  0  0  0
    0.7734    1.7559    6.7472 H   0  0  0  0  0  0  0  0  0  0  0  0
    0.5618    1.3711    4.6570 H   0  0  0  0  0  0  0  0  0  0  0  0
   -0.5733   -0.5602    3.5090 H   0  0  0  0  0  0  0  0  0  0  0  0
    0.9270   -0.8748    4.2292 H   0  0  0  0  0  0  0  0  0  0  0  0
   -1.7667   -1.4860    5.5622 H   0  0  0  0  0  0  0  0  0  0  0  0
   -0.9763   -2.5672    4.4491 H   0  0  0  0  0  0  0  0  0  0  0  0
   -0.6334   -4.1308    7.7539 H   0  0  0  0  0  0  0  0  0  0  0  0
   -1.2933   -4.3334    6.1273 H   0  0  0  0  0  0  0  0  0  0  0  0
   -1.9837   -3.1590    7.2071 H   0  0  0  0  0  0  0  0  0  0  0  0
   -0.5095   -1.5217    8.2199 H   0  0  0  0  0  0  0  0  0  0  0  0
    2.7701   -3.7656    7.5280 H   0  0  0  0  0  0  0  0  0  0  0  0
    3.6763   -1.5228    8.0744 H   0  0  0  0  0  0  0  0  0  0  0  0
    3.9760   -1.8577    6.3927 H   0  0  0  0  0  0  0  0  0  0  0  0
    3.0307    0.4902    7.0481 H   0  0  0  0  0  0  0  0  0  0  0  0
    2.4119   -0.2895    5.6460 H   0  0  0  0  0  0  0  0  0  0  0  0
    1.1888    0.0941    8.3545 H   0  0  0  0  0  0  0  0  0  0  0  0
    1.8044   -2.5075    5.1756 H   0  0  0  0  0  0  0  0  0  0  0  0
    0.6797   -5.6709    7.1663 H   0  0  0  0  0  0  0  0  0  0  0  0
    2.1986   -9.9294    1.4586 H   0  0  0  0  0  0  0  0  0  0  0  0
    2.7921   -8.4266    0.7665 H   0  0  0  0  0  0  0  0  0  0  0  0
    4.5255   -8.3128    2.6431 H   0  0  0  0  0  0  0  0  0  0  0  0
    3.9997   -9.9116    3.1553 H   0  0  0  0  0  0  0  0  0  0  0  0
    5.8749  -10.0066    1.6995 H   0  0  0  0  0  0  0  0  0  0  0  0
    5.0581   -9.2294    0.5040 H   0  0  0  0  0  0  0  0  0  0  0  0
    3.0029   -4.1681    1.2716 H   0  0  0  0  0  0  0  0  0  0  0  0
    1.2544   -8.7717    3.2550 H   0  0  0  0  0  0  0  0  0  0  0  0
    4.6098  -10.7517    0.9592 H   0  0  0  0  0  0  0  0  0  0  0  0
  1  2  1  0
  1 39  1  0
  1 40  1  0
  1 41  1  0
  2  3  1  0
  2  4  1  0
  2 42  1  0
  3 43  1  0
  3 44  1  0
  3 45  1  0
  4  5  1  0
  4 46  1  0
  4 47  1  0
  5  6  1  0
  5 48  1  0
  5 49  1  0
  6  7  1  0
  6 50  1  0
  6 51  1  0
  7  8  1  0
  7  9  1  0
  7 52  1  1
  8 53  1  0
  8 54  1  0
  8 55  1  0
  9 13  1  0
  9 10  1  0
  9 56  1  6
 10 11  1  0
 10 57  1  0
 10 58  1  0
 11 12  1  0
 11 59  1  0
 11 60  1  0
 12 23  1  0
 12 13  1  0
 12 61  1  6
 13 14  1  0
 13 62  1  6
 14 15  1  0
 14 63  1  0
 14 64  1  0
 15 16  1  0
 15 65  1  0
 15 66  1  0
 16 24  1  0
 16 17  1  1
 16 18  1  0
 17 67  1  0
 17 68  1  0
 17 69  1  0
 18 23  1  0
 18 19  1  0
 18 70  1  1
 19 20  1  0
 20 21  1  0
 20 24  1  0
 20 71  1  1
 21 22  1  0
 21 72  1  0
 21 73  1  0
 22 23  1  0
 22 74  1  0
 22 75  1  0
 23 76  1  1
 24 25  1  0
 24 77  1  6
 25 38  1  0
 25 26  1  0
 26 27  2  0
 26 78  1  0
 27 28  1  0
 27 29  1  0
 29 38  2  0
 29 30  1  0
 30 31  1  0
 30 35  2  0
 31 32  1  0
 31 86  1  0
 32 33  1  0
 32 79  1  0
 32 80  1  0
 33 34  1  0
 33 81  1  0
 33 82  1  0
 34 83  1  0
 34 84  1  0
 34 87  1  0
 35 36  1  0
 36 37  2  0
 36 85  1  0
 37 38  1  0
M  CHG  1  34   1
M  END
>  <i_m_ct_stereo_status>  (134) 
1

>  <s_m_source_file>  (134) 
/var/tmp/pbs.5076255.sched01/tmpy176o0g7/39stoh4b52.sdf

>  <i_m_source_file_index>  (134) 
20

>  <i_lp_mmshare_version>  (134) 
48012

>  <i_f3d_flags>  (134) 
0

>  <s_epik_input>  (134) 
W0NIM11bQ0hdKFtDSDNdKVtDSDJdW0NIMl1bQ0gyXVtDQEhdKFtDSDNdKVtDQEhdKFtDSDJdW0NIMl0xKVtDQEhdKFtDSDJdW0NIMl0yKVtDQEBIXTFbQ0BASF0oW0NASF0zW0NAQF0yNFtDSDNdKVtDSDJdW0NIMl1bQ0BASF0oTzMpW0NASF00bihbY0hdYzVDbCljKGM1NilbbkhdW2NIXW5jXDY9Ti9bQ0gyXVtDSDJdW05IMl0=

>  <s_epik_cmdline>  (134) 
J2VwaWtfcHl0aG9uJywgJy1waHQnLCAnMi4wJywgJy1waCcsICc3LjAnLCAnLXRuJywgJzgnLCAnLW1hJywgJzIwMCcsICctaW1hZScsICc8aW5maWxlLm1hZT4nLCAnLW9tYWUnLCAnPG91dGZpbGUubWFlPic=

>  <r_epik_Ionization_Penalty>  (134) 
0.00167947

>  <r_epik_Ionization_Penalty_Charging>  (134) 
0.000473421

>  <r_epik_Ionization_Penalty_Neutral>  (134) 
0.00120605

>  <r_epik_State_Penalty>  (134) 
0.00227111

>  <r_epik_Charging_Adjusted_Penalty>  (134) 
0.00274453

>  <i_epik_Tot_Q>  (134) 
1

>  <i_epik_Tot_abs_Q>  (134) 
1

>  <s_lp_Force_Field>  (134) 
OPLS3e

>  <r_lp_Energy>  (134) 
62.4583

>  <b_lp_Chiralities_Consistent>  (134) 
1

>  <s_lp_Variant>  (134) 
45:0-1

>  <s_i_glide_gridfile>  (134) 
pfpi4k_grid

>  <i_i_glide_lignum>  (134) 
20

>  <i_i_glide_rotatable_bonds>  (134) 
9

>  <r_i_docking_score>  (134) 
-2.05488

>  <r_i_glide_ligand_efficiency>  (134) 
-0.0540757

>  <r_i_glide_ligand_efficiency_sa>  (134) 
-0.181801

>  <r_i_glide_ligand_efficiency_ln>  (134) 
-0.443092

>  <r_i_glide_gscore>  (134) 
-2.05488

>  <r_i_glide_lipo>  (134) 
-0.489229

>  <r_i_glide_hbond>  (134) 
-0.2

>  <r_i_glide_metal>  (134) 
-0

>  <r_i_glide_rewards>  (134) 
0

>  <r_i_glide_evdw>  (134) 
-24.6527

>  <r_i_glide_ecoul>  (134) 
-3.30753

>  <r_i_glide_erotb>  (134) 
0.49085

>  <r_i_glide_esite>  (134) 
-0.12773

>  <r_i_glide_emodel>  (134) 
-27.1852

>  <r_i_glide_energy>  (134) 
-27.9603

>  <r_i_glide_einternal>  (134) 
7.86701

>  <r_i_glide_intrahb_reward>  (134) 
-0

>  <i_i_glide_confnum>  (134) 
1

>  <i_i_glide_posenum>  (134) 
22

>  <r_i_glide_eff_state_penalty>  (134) 
0

>  <ligand_id>  (134) 
45

>  <original_smiles>  (134) 
CC(C)CCCC(C)C1CCC2C1CCC1(C)C3OC(CCC23)C1n1cc(Cl)c2c(=NCCN)nc[nH]c21

>  <smiles>  (134) 
[H]c1nc(N([H])C([H])([H])C([H])([H])[N+]([H])([H])[H])c2c(Cl)c([H])n(C3([H])C4([H])OC5([H])C([H])(C([H])([H])C4([H])[H])C4([H])C([H])([H])C([H])([H])C([H])(C([H])(C([H])([H])[H])C([H])([H])C([H])([H])C([H])([H])C([H])(C([H])([H])[H])C([H])([H])[H])C4([H])C([H])([H])C([H])([H])C53C([H])([H])[H])c2n1

$$$$
46:0:0
     RDKit          3D

 60 64  0  0  1  0  0  0  0  0999 V2000
    3.3946   -1.9924    6.6236 C   0  0  0  0  0  0  0  0  0  0  0  0
    2.5218   -1.9786    5.5966 C   0  0  0  0  0  0  0  0  0  0  0  0
    1.0329   -2.2746    5.7854 C   0  0  1  0  0  0  0  0  0  0  0  0
    0.5932   -2.5933    7.2286 C   0  0  0  0  0  0  0  0  0  0  0  0
    0.1985   -1.1345    5.1968 C   0  0  0  0  0  0  0  0  0  0  0  0
    0.5666   -0.8692    3.7284 C   0  0  1  0  0  0  0  0  0  0  0  0
   -0.2900    0.1623    3.2867 O   0  0  0  0  0  0  0  0  0  0  0  0
    2.0786   -0.5433    3.4824 C   0  0  2  0  0  0  0  0  0  0  0  0
    2.4341    0.8350    4.1108 C   0  0  0  0  0  0  0  0  0  0  0  0
    2.3528   -0.5586    1.9372 C   0  0  1  0  0  0  0  0  0  0  0  0
    1.6966    0.5221    1.2921 O   0  0  0  0  0  0  0  0  0  0  0  0
    3.8477   -0.5749    1.4804 C   0  0  2  0  0  0  0  0  0  0  0  0
    3.9200   -1.0448   -0.0158 C   0  0  0  0  0  0  0  0  0  0  0  0
    4.4717   -2.4810   -0.0088 C   0  0  1  0  0  0  0  0  0  0  0  0
    3.7404   -3.6966   -0.6196 C   0  0  0  0  0  0  0  0  0  0  0  0
    4.3255   -4.8742    0.2363 C   0  0  0  0  0  0  0  0  0  0  0  0
    5.2755   -4.1558    1.2507 C   0  0  1  0  0  0  0  0  0  0  0  0
    5.5770   -4.9630    2.5188 C   0  0  0  0  0  0  0  0  0  0  0  0
    6.4828   -3.6922    0.4447 C   0  0  0  0  0  0  0  0  0  0  0  0
    7.7728   -4.0622    0.5149 C   0  0  0  0  0  0  0  0  0  0  0  0
    5.9595   -2.6095   -0.3814 C   0  0  0  0  0  0  0  0  0  0  0  0
    6.5618   -1.8675   -1.1599 O   0  0  0  0  0  0  0  0  0  0  0  0
    4.4195   -2.8853    1.4543 C   0  0  1  0  0  0  0  0  0  0  0  0
    4.7291   -1.5911    2.2700 C   0  0  1  0  0  0  0  0  0  0  0  0
    6.0912   -1.1926    2.1634 O   0  0  0  0  0  0  0  0  0  0  0  0
    4.4191   -1.6624    3.7996 C   0  0  1  0  0  0  0  0  0  0  0  0
    5.0374   -0.5796    4.4812 O   0  0  0  0  0  0  0  0  0  0  0  0
    2.8986   -1.7108    4.1243 C   0  0  1  0  0  0  0  0  0  0  0  0
    4.4483   -1.8097    6.4889 H   0  0  0  0  0  0  0  0  0  0  0  0
    3.0805   -2.2026    7.6351 H   0  0  0  0  0  0  0  0  0  0  0  0
    0.8301   -3.1690    5.1946 H   0  0  0  0  0  0  0  0  0  0  0  0
    1.1222   -3.4635    7.6182 H   0  0  0  0  0  0  0  0  0  0  0  0
   -0.4702   -2.8274    7.2664 H   0  0  0  0  0  0  0  0  0  0  0  0
    0.7736   -1.7544    7.9033 H   0  0  0  0  0  0  0  0  0  0  0  0
   -0.8600   -1.3874    5.2575 H   0  0  0  0  0  0  0  0  0  0  0  0
    0.3312   -0.2260    5.7856 H   0  0  0  0  0  0  0  0  0  0  0  0
    0.3130   -1.7652    3.1609 H   0  0  0  0  0  0  0  0  0  0  0  0
    0.0070    0.4304    2.4230 H   0  0  0  0  0  0  0  0  0  0  0  0
    3.3953    1.2168    3.7726 H   0  0  0  0  0  0  0  0  0  0  0  0
    2.4606    0.7809    5.1994 H   0  0  0  0  0  0  0  0  0  0  0  0
    1.7112    1.6088    3.8522 H   0  0  0  0  0  0  0  0  0  0  0  0
    1.8855   -1.4628    1.5410 H   0  0  0  0  0  0  0  0  0  0  0  0
    1.4119    0.2145    0.4269 H   0  0  0  0  0  0  0  0  0  0  0  0
    4.2556    0.4332    1.5815 H   0  0  0  0  0  0  0  0  0  0  0  0
    2.9588   -1.0150   -0.5151 H   0  0  0  0  0  0  0  0  0  0  0  0
    4.5568   -0.3651   -0.5888 H   0  0  0  0  0  0  0  0  0  0  0  0
    2.6563   -3.6161   -0.5005 H   0  0  0  0  0  0  0  0  0  0  0  0
    3.9538   -3.8214   -1.6872 H   0  0  0  0  0  0  0  0  0  0  0  0
    3.5177   -5.4023    0.7476 H   0  0  0  0  0  0  0  0  0  0  0  0
    4.8628   -5.5947   -0.3860 H   0  0  0  0  0  0  0  0  0  0  0  0
    4.6573   -5.1977    3.0511 H   0  0  0  0  0  0  0  0  0  0  0  0
    6.2120   -4.3933    3.1982 H   0  0  0  0  0  0  0  0  0  0  0  0
    6.0831   -5.8996    2.2832 H   0  0  0  0  0  0  0  0  0  0  0  0
    8.1133   -4.8284    1.1930 H   0  0  0  0  0  0  0  0  0  0  0  0
    8.5189   -3.5837   -0.0974 H   0  0  0  0  0  0  0  0  0  0  0  0
    3.4093   -3.1953    1.7245 H   0  0  0  0  0  0  0  0  0  0  0  0
    6.3024   -1.0535    1.2538 H   0  0  0  0  0  0  0  0  0  0  0  0
    4.8851   -2.5664    4.1910 H   0  0  0  0  0  0  0  0  0  0  0  0
    4.6751    0.2256    4.1409 H   0  0  0  0  0  0  0  0  0  0  0  0
    2.5453   -2.6173    3.6374 H   0  0  0  0  0  0  0  0  0  0  0  0
  1  2  2  0
  1 29  1  0
  1 30  1  0
  2 28  1  0
  2  3  1  0
  3  4  1  0
  3  5  1  0
  3 31  1  6
  4 32  1  0
  4 33  1  0
  4 34  1  0
  5  6  1  0
  5 35  1  0
  5 36  1  0
  6  7  1  0
  6  8  1  0
  6 37  1  6
  7 38  1  0
  8 28  1  0
  8  9  1  1
  8 10  1  0
  9 39  1  0
  9 40  1  0
  9 41  1  0
 10 11  1  0
 10 12  1  0
 10 42  1  6
 11 43  1  0
 12 24  1  0
 12 13  1  0
 12 44  1  6
 14 13  1  1
 13 45  1  0
 13 46  1  0
 14 21  1  0
 14 23  1  0
 14 15  1  0
 15 16  1  0
 15 47  1  0
 15 48  1  0
 16 17  1  0
 16 49  1  0
 16 50  1  0
 17 18  1  1
 17 19  1  0
 17 23  1  0
 18 51  1  0
 18 52  1  0
 18 53  1  0
 19 20  2  0
 19 21  1  0
 20 54  1  0
 20 55  1  0
 21 22  2  0
 23 24  1  0
 23 56  1  1
 24 25  1  1
 24 26  1  0
 25 57  1  0
 26 27  1  0
 26 28  1  0
 26 58  1  1
 27 59  1  0
 28 60  1  6
M  END
>  <i_m_ct_stereo_status>  (135) 
1

>  <s_m_source_file>  (135) 
/var/tmp/pbs.5076255.sched01/tmpy176o0g7/39stoh4b52.sdf

>  <i_m_source_file_index>  (135) 
21

>  <i_lp_mmshare_version>  (135) 
48012

>  <i_f3d_flags>  (135) 
0

>  <s_epik_input>  (135) 
W09IXVtDQEBIXTFbQ0gyXVtDQEhdKFtDSDNdKUMoPVtDSDJdKVtDQEhdKFtDQEBIXTJbT0hdKVtDQEBdMShbQ0gzXSlbQ0BASF0oW09IXSlbQ0BIXShbQ0gyXTMpW0NAXTIoW09IXSlbQ0BASF0oW0NAXTM0NSlbQ0BAXShbQ0gzXSkoW0NIMl1bQ0gyXTQpQyg9W0NIMl0pQzU9Tw==

>  <s_epik_cmdline>  (135) 
J2VwaWtfcHl0aG9uJywgJy1waHQnLCAnMi4wJywgJy1waCcsICc3LjAnLCAnLXRuJywgJzgnLCAnLW1hJywgJzIwMCcsICctaW1hZScsICc8aW5maWxlLm1hZT4nLCAnLW9tYWUnLCAnPG91dGZpbGUubWFlPic=

>  <r_lp_tautomer_probability>  (135) 
1

>  <r_epik_Ionization_Penalty>  (135) 
5.82712e-07

>  <r_epik_Ionization_Penalty_Charging>  (135) 
0

>  <r_epik_Ionization_Penalty_Neutral>  (135) 
5.82712e-07

>  <r_epik_State_Penalty>  (135) 
-0

>  <r_epik_Charging_Adjusted_Penalty>  (135) 
0

>  <i_epik_Tot_Q>  (135) 
0

>  <i_epik_Tot_abs_Q>  (135) 
0

>  <s_lp_Force_Field>  (135) 
OPLS3e

>  <r_lp_Energy>  (135) 
66.3442

>  <b_lp_Chiralities_Consistent>  (135) 
1

>  <s_lp_Variant>  (135) 
46:0-1

>  <s_i_glide_gridfile>  (135) 
pfpi4k_grid

>  <i_i_glide_lignum>  (135) 
21

>  <i_i_glide_rotatable_bonds>  (135) 
4

>  <r_i_docking_score>  (135) 
-4.25226

>  <r_i_glide_ligand_efficiency>  (135) 
-0.151866

>  <r_i_glide_ligand_efficiency_sa>  (135) 
-0.461155

>  <r_i_glide_ligand_efficiency_ln>  (135) 
-0.981545

>  <r_i_glide_gscore>  (135) 
-4.25226

>  <r_i_glide_lipo>  (135) 
-0.47285

>  <r_i_glide_hbond>  (135) 
-0.16

>  <r_i_glide_metal>  (135) 
-0

>  <r_i_glide_rewards>  (135) 
-1.26025

>  <r_i_glide_evdw>  (135) 
-25.4441

>  <r_i_glide_ecoul>  (135) 
-7.22028

>  <r_i_glide_erotb>  (135) 
0

>  <r_i_glide_esite>  (135) 
-0.00391167

>  <r_i_glide_emodel>  (135) 
-46.3537

>  <r_i_glide_energy>  (135) 
-32.6644

>  <r_i_glide_einternal>  (135) 
1.50542

>  <r_i_glide_intrahb_reward>  (135) 
-0.5

>  <i_i_glide_confnum>  (135) 
1

>  <i_i_glide_posenum>  (135) 
2

>  <r_i_glide_eff_state_penalty>  (135) 
0

>  <ligand_id>  (135) 
46

>  <original_smiles>  (135) 
C=C1C(C)CC(O)C2(C)C(O)C3CC45CCC(C)(C(=C)C4=O)C5C3(O)C(O)C12

>  <smiles>  (135) 
[H]OC1([H])C2([H])C(=C([H])[H])C([H])(C([H])([H])[H])C([H])([H])C([H])(O[H])C2(C([H])([H])[H])C([H])(O[H])C2([H])C([H])([H])C34C(=O)C(=C([H])[H])C(C([H])([H])[H])(C([H])([H])C3([H])[H])C4([H])C12O[H]

$$$$
46:0:1
     RDKit          3D

 60 64  0  0  1  0  0  0  0  0999 V2000
    0.9094   -7.4584    1.7469 C   0  0  0  0  0  0  0  0  0  0  0  0
    1.3346   -6.4691    2.5601 C   0  0  0  0  0  0  0  0  0  0  0  0
    0.5325   -6.0166    3.7813 C   0  0  1  0  0  0  0  0  0  0  0  0
   -0.7934   -6.7669    4.0229 C   0  0  0  0  0  0  0  0  0  0  0  0
    1.4136   -6.0480    5.0335 C   0  0  0  0  0  0  0  0  0  0  0  0
    2.7022   -5.2295    4.8346 C   0  0  1  0  0  0  0  0  0  0  0  0
    3.4113   -5.2750    6.0595 O   0  0  0  0  0  0  0  0  0  0  0  0
    3.5736   -5.6844    3.6103 C   0  0  2  0  0  0  0  0  0  0  0  0
    4.1656   -7.0995    3.8685 C   0  0  0  0  0  0  0  0  0  0  0  0
    4.7110   -4.6355    3.3782 C   0  0  1  0  0  0  0  0  0  0  0  0
    5.6555   -4.7001    4.4338 O   0  0  0  0  0  0  0  0  0  0  0  0
    5.4812   -4.6979    2.0196 C   0  0  2  0  0  0  0  0  0  0  0  0
    6.2016   -3.3242    1.7922 C   0  0  0  0  0  0  0  0  0  0  0  0
    5.4516   -2.6002    0.6695 C   0  0  1  0  0  0  0  0  0  0  0  0
    4.8384   -1.1915    0.8168 C   0  0  0  0  0  0  0  0  0  0  0  0
    3.6810   -1.2656   -0.2330 C   0  0  0  0  0  0  0  0  0  0  0  0
    3.7589   -2.7201   -0.7949 C   0  0  1  0  0  0  0  0  0  0  0  0
    2.4722   -3.2298   -1.4405 C   0  0  0  0  0  0  0  0  0  0  0  0
    4.9948   -2.7656   -1.6743 C   0  0  0  0  0  0  0  0  0  0  0  0
    5.1117   -2.9571   -2.9944 C   0  0  0  0  0  0  0  0  0  0  0  0
    6.1002   -2.6635   -0.7271 C   0  0  0  0  0  0  0  0  0  0  0  0
    7.3066   -2.5679   -0.9484 O   0  0  0  0  0  0  0  0  0  0  0  0
    4.1639   -3.4016    0.5254 C   0  0  1  0  0  0  0  0  0  0  0  0
    4.5498   -4.8865    0.7836 C   0  0  1  0  0  0  0  0  0  0  0  0
    5.3143   -5.4163   -0.2878 O   0  0  0  0  0  0  0  0  0  0  0  0
    3.3724   -5.8790    1.0052 C   0  0  1  0  0  0  0  0  0  0  0  0
    3.8369   -7.2149    0.8819 O   0  0  0  0  0  0  0  0  0  0  0  0
    2.6330   -5.6647    2.3573 C   0  0  1  0  0  0  0  0  0  0  0  0
    1.4624   -7.7794    0.8812 H   0  0  0  0  0  0  0  0  0  0  0  0
   -0.0104   -7.9948    1.9291 H   0  0  0  0  0  0  0  0  0  0  0  0
    0.2803   -4.9712    3.6018 H   0  0  0  0  0  0  0  0  0  0  0  0
   -1.4687   -6.6770    3.1704 H   0  0  0  0  0  0  0  0  0  0  0  0
   -1.3228   -6.3509    4.8815 H   0  0  0  0  0  0  0  0  0  0  0  0
   -0.6380   -7.8268    4.2196 H   0  0  0  0  0  0  0  0  0  0  0  0
    0.8567   -5.6396    5.8769 H   0  0  0  0  0  0  0  0  0  0  0  0
    1.6536   -7.0788    5.2956 H   0  0  0  0  0  0  0  0  0  0  0  0
    2.4098   -4.1882    4.6895 H   0  0  0  0  0  0  0  0  0  0  0  0
    4.2033   -4.7674    5.9495 H   0  0  0  0  0  0  0  0  0  0  0  0
    4.9523   -7.3586    3.1633 H   0  0  0  0  0  0  0  0  0  0  0  0
    3.3980   -7.8707    3.8062 H   0  0  0  0  0  0  0  0  0  0  0  0
    4.6142   -7.1860    4.8585 H   0  0  0  0  0  0  0  0  0  0  0  0
    4.2519   -3.6486    3.4416 H   0  0  0  0  0  0  0  0  0  0  0  0
    6.1253   -5.5172    4.3652 H   0  0  0  0  0  0  0  0  0  0  0  0
    6.2124   -5.5056    2.0539 H   0  0  0  0  0  0  0  0  0  0  0  0
    6.2102   -2.7047    2.6872 H   0  0  0  0  0  0  0  0  0  0  0  0
    7.2461   -3.4842    1.5227 H   0  0  0  0  0  0  0  0  0  0  0  0
    4.4463   -1.0197    1.8239 H   0  0  0  0  0  0  0  0  0  0  0  0
    5.5465   -0.3897    0.5874 H   0  0  0  0  0  0  0  0  0  0  0  0
    2.7273   -1.0665    0.2625 H   0  0  0  0  0  0  0  0  0  0  0  0
    3.8279   -0.5330   -1.0230 H   0  0  0  0  0  0  0  0  0  0  0  0
    1.6591   -3.2150   -0.7204 H   0  0  0  0  0  0  0  0  0  0  0  0
    2.5740   -4.2466   -1.7862 H   0  0  0  0  0  0  0  0  0  0  0  0
    2.1701   -2.6072   -2.2842 H   0  0  0  0  0  0  0  0  0  0  0  0
    4.2534   -3.0572   -3.6351 H   0  0  0  0  0  0  0  0  0  0  0  0
    6.0867   -3.0204   -3.4551 H   0  0  0  0  0  0  0  0  0  0  0  0
    3.4449   -3.1210    1.2985 H   0  0  0  0  0  0  0  0  0  0  0  0
    4.7339   -5.5815   -1.0094 H   0  0  0  0  0  0  0  0  0  0  0  0
    2.6573   -5.7413    0.1931 H   0  0  0  0  0  0  0  0  0  0  0  0
    4.4617   -7.3850    1.5673 H   0  0  0  0  0  0  0  0  0  0  0  0
    2.2523   -4.6464    2.2949 H   0  0  0  0  0  0  0  0  0  0  0  0
  1  2  2  0
  1 29  1  0
  1 30  1  0
  2 28  1  0
  2  3  1  0
  3  4  1  0
  3  5  1  0
  3 31  1  6
  4 32  1  0
  4 33  1  0
  4 34  1  0
  5  6  1  0
  5 35  1  0
  5 36  1  0
  6  7  1  0
  6  8  1  0
  6 37  1  6
  7 38  1  0
  8 28  1  0
  8  9  1  1
  8 10  1  0
  9 39  1  0
  9 40  1  0
  9 41  1  0
 10 11  1  0
 10 12  1  0
 10 42  1  6
 11 43  1  0
 12 24  1  0
 12 13  1  0
 12 44  1  1
 14 13  1  1
 13 45  1  0
 13 46  1  0
 14 21  1  0
 14 23  1  0
 14 15  1  0
 15 16  1  0
 15 47  1  0
 15 48  1  0
 16 17  1  0
 16 49  1  0
 16 50  1  0
 17 18  1  6
 17 19  1  0
 17 23  1  0
 18 51  1  0
 18 52  1  0
 18 53  1  0
 19 20  2  0
 19 21  1  0
 20 54  1  0
 20 55  1  0
 21 22  2  0
 23 24  1  0
 23 56  1  1
 24 25  1  6
 24 26  1  0
 25 57  1  0
 26 27  1  0
 26 28  1  0
 26 58  1  6
 27 59  1  0
 28 60  1  6
M  END
>  <i_m_ct_stereo_status>  (136) 
1

>  <s_m_source_file>  (136) 
/var/tmp/pbs.5076255.sched01/tmpy176o0g7/39stoh4b52.sdf

>  <i_m_source_file_index>  (136) 
21

>  <i_lp_mmshare_version>  (136) 
48012

>  <i_f3d_flags>  (136) 
0

>  <s_epik_input>  (136) 
W09IXVtDQEBIXTFbQ0gyXVtDQEhdKFtDSDNdKUMoPVtDSDJdKVtDQEhdKFtDQEBIXTJbT0hdKVtDQEBdMShbQ0gzXSlbQ0BASF0oW09IXSlbQ0BIXShbQ0gyXTMpW0NAXTIoW09IXSlbQ0BASF0oW0NAXTM0NSlbQ0BAXShbQ0gzXSkoW0NIMl1bQ0gyXTQpQyg9W0NIMl0pQzU9Tw==

>  <s_epik_cmdline>  (136) 
J2VwaWtfcHl0aG9uJywgJy1waHQnLCAnMi4wJywgJy1waCcsICc3LjAnLCAnLXRuJywgJzgnLCAnLW1hJywgJzIwMCcsICctaW1hZScsICc8aW5maWxlLm1hZT4nLCAnLW9tYWUnLCAnPG91dGZpbGUubWFlPic=

>  <r_lp_tautomer_probability>  (136) 
1

>  <r_epik_Ionization_Penalty>  (136) 
5.82712e-07

>  <r_epik_Ionization_Penalty_Charging>  (136) 
0

>  <r_epik_Ionization_Penalty_Neutral>  (136) 
5.82712e-07

>  <r_epik_State_Penalty>  (136) 
-0

>  <r_epik_Charging_Adjusted_Penalty>  (136) 
0

>  <i_epik_Tot_Q>  (136) 
0

>  <i_epik_Tot_abs_Q>  (136) 
0

>  <s_lp_Force_Field>  (136) 
OPLS3e

>  <r_lp_Energy>  (136) 
66.3442

>  <b_lp_Chiralities_Consistent>  (136) 
1

>  <s_lp_Variant>  (136) 
46:0-1

>  <s_i_glide_gridfile>  (136) 
pfpi4k_grid

>  <i_i_glide_lignum>  (136) 
21

>  <i_i_glide_rotatable_bonds>  (136) 
4

>  <r_i_docking_score>  (136) 
-3.886

>  <r_i_glide_ligand_efficiency>  (136) 
-0.138786

>  <r_i_glide_ligand_efficiency_sa>  (136) 
-0.421435

>  <r_i_glide_ligand_efficiency_ln>  (136) 
-0.897002

>  <r_i_glide_gscore>  (136) 
-3.886

>  <r_i_glide_lipo>  (136) 
-0.507674

>  <r_i_glide_hbond>  (136) 
-0.118885

>  <r_i_glide_metal>  (136) 
-0

>  <r_i_glide_rewards>  (136) 
-1.26025

>  <r_i_glide_evdw>  (136) 
-26.3387

>  <r_i_glide_ecoul>  (136) 
-4.48605

>  <r_i_glide_erotb>  (136) 
0

>  <r_i_glide_esite>  (136) 
-0.00935133

>  <r_i_glide_emodel>  (136) 
-44.3803

>  <r_i_glide_energy>  (136) 
-30.8247

>  <r_i_glide_einternal>  (136) 
0.353831

>  <r_i_glide_intrahb_reward>  (136) 
-0.5

>  <i_i_glide_confnum>  (136) 
2

>  <i_i_glide_posenum>  (136) 
16

>  <r_i_glide_eff_state_penalty>  (136) 
0

>  <ligand_id>  (136) 
46

>  <original_smiles>  (136) 
C=C1C(C)CC(O)C2(C)C(O)C3CC45CCC(C)(C(=C)C4=O)C5C3(O)C(O)C12

>  <smiles>  (136) 
[H]OC1([H])C2([H])C(=C([H])[H])C([H])(C([H])([H])[H])C([H])([H])C([H])(O[H])C2(C([H])([H])[H])C([H])(O[H])C2([H])C([H])([H])C34C(=O)C(=C([H])[H])C(C([H])([H])[H])(C([H])([H])C3([H])[H])C4([H])C12O[H]

$$$$
46:0:2
     RDKit          3D

 60 64  0  0  1  0  0  0  0  0999 V2000
   -0.2430   -6.8033    4.4291 C   0  0  0  0  0  0  0  0  0  0  0  0
    1.0565   -7.1613    4.5063 C   0  0  0  0  0  0  0  0  0  0  0  0
    1.6250   -7.9116    5.7111 C   0  0  1  0  0  0  0  0  0  0  0  0
    0.6161   -8.2305    6.8332 C   0  0  0  0  0  0  0  0  0  0  0  0
    2.3420   -9.1819    5.2411 C   0  0  0  0  0  0  0  0  0  0  0  0
    3.4178   -8.8624    4.1860 C   0  0  1  0  0  0  0  0  0  0  0  0
    4.0496  -10.0795    3.8420 O   0  0  0  0  0  0  0  0  0  0  0  0
    2.8812   -8.1035    2.9205 C   0  0  2  0  0  0  0  0  0  0  0  0
    1.9465   -9.0374    2.0991 C   0  0  0  0  0  0  0  0  0  0  0  0
    4.1000   -7.6275    2.0599 C   0  0  1  0  0  0  0  0  0  0  0  0
    4.7014   -8.7307    1.4063 O   0  0  0  0  0  0  0  0  0  0  0  0
    3.8335   -6.5616    0.9532 C   0  0  2  0  0  0  0  0  0  0  0  0
    5.1894   -5.8902    0.5486 C   0  0  0  0  0  0  0  0  0  0  0  0
    5.1359   -4.4593    1.1038 C   0  0  1  0  0  0  0  0  0  0  0  0
    6.1932   -3.8838    2.0630 C   0  0  0  0  0  0  0  0  0  0  0  0
    5.3590   -2.7987    2.8338 C   0  0  0  0  0  0  0  0  0  0  0  0
    3.9230   -2.9408    2.2341 C   0  0  1  0  0  0  0  0  0  0  0  0
    2.7998   -2.3881    3.1230 C   0  0  0  0  0  0  0  0  0  0  0  0
    4.0007   -2.3764    0.8248 C   0  0  0  0  0  0  0  0  0  0  0  0
    3.4136   -1.2915    0.2918 C   0  0  0  0  0  0  0  0  0  0  0  0
    4.7960   -3.3521    0.0927 C   0  0  0  0  0  0  0  0  0  0  0  0
    5.1454   -3.3427   -1.0904 O   0  0  0  0  0  0  0  0  0  0  0  0
    3.9400   -4.4708    2.0461 C   0  0  1  0  0  0  0  0  0  0  0  0
    2.8828   -5.4073    1.3918 C   0  0  1  0  0  0  0  0  0  0  0  0
    2.2783   -4.8386    0.2304 O   0  0  0  0  0  0  0  0  0  0  0  0
    1.7003   -5.8497    2.3105 C   0  0  1  0  0  0  0  0  0  0  0  0
    0.6293   -6.3854    1.5367 O   0  0  0  0  0  0  0  0  0  0  0  0
    2.1223   -6.8355    3.4385 C   0  0  1  0  0  0  0  0  0  0  0  0
   -0.6407   -6.2557    3.5961 H   0  0  0  0  0  0  0  0  0  0  0  0
   -0.9477   -7.0492    5.2079 H   0  0  0  0  0  0  0  0  0  0  0  0
    2.3752   -7.2517    6.1493 H   0  0  0  0  0  0  0  0  0  0  0  0
    0.1708   -7.3212    7.2383 H   0  0  0  0  0  0  0  0  0  0  0  0
    1.1068   -8.7401    7.6635 H   0  0  0  0  0  0  0  0  0  0  0  0
   -0.1843   -8.8837    6.4844 H   0  0  0  0  0  0  0  0  0  0  0  0
    2.8046   -9.6664    6.1030 H   0  0  0  0  0  0  0  0  0  0  0  0
    1.6177   -9.8969    4.8477 H   0  0  0  0  0  0  0  0  0  0  0  0
    4.1725   -8.2465    4.6794 H   0  0  0  0  0  0  0  0  0  0  0  0
    4.1819  -10.5817    4.6336 H   0  0  0  0  0  0  0  0  0  0  0  0
    1.7417   -8.6454    1.1057 H   0  0  0  0  0  0  0  0  0  0  0  0
    0.9930   -9.1973    2.6016 H   0  0  0  0  0  0  0  0  0  0  0  0
    2.3825  -10.0240    1.9368 H   0  0  0  0  0  0  0  0  0  0  0  0
    4.8378   -7.2133    2.7485 H   0  0  0  0  0  0  0  0  0  0  0  0
    4.6119   -9.4929    1.9711 H   0  0  0  0  0  0  0  0  0  0  0  0
    3.4108   -7.0545    0.0896 H   0  0  0  0  0  0  0  0  0  0  0  0
    6.0576   -6.4315    0.9249 H   0  0  0  0  0  0  0  0  0  0  0  0
    5.2845   -5.8821   -0.5389 H   0  0  0  0  0  0  0  0  0  0  0  0
    6.5637   -4.6597    2.7372 H   0  0  0  0  0  0  0  0  0  0  0  0
    7.0441   -3.4497    1.5328 H   0  0  0  0  0  0  0  0  0  0  0  0
    5.3748   -3.0050    3.9066 H   0  0  0  0  0  0  0  0  0  0  0  0
    5.7663   -1.7955    2.6859 H   0  0  0  0  0  0  0  0  0  0  0  0
    2.7912   -2.8943    4.0887 H   0  0  0  0  0  0  0  0  0  0  0  0
    1.8260   -2.5357    2.6570 H   0  0  0  0  0  0  0  0  0  0  0  0
    2.9291   -1.3216    3.3054 H   0  0  0  0  0  0  0  0  0  0  0  0
    2.7857   -0.6355    0.8721 H   0  0  0  0  0  0  0  0  0  0  0  0
    3.5241   -1.0607   -0.7550 H   0  0  0  0  0  0  0  0  0  0  0  0
    4.2156   -4.9284    3.0002 H   0  0  0  0  0  0  0  0  0  0  0  0
    2.9113   -4.8040   -0.4711 H   0  0  0  0  0  0  0  0  0  0  0  0
    1.2964   -4.9496    2.7748 H   0  0  0  0  0  0  0  0  0  0  0  0
    0.8807   -7.2545    1.2563 H   0  0  0  0  0  0  0  0  0  0  0  0
    2.8521   -6.2772    4.0228 H   0  0  0  0  0  0  0  0  0  0  0  0
  1  2  2  0
  1 29  1  0
  1 30  1  0
  2 28  1  0
  2  3  1  0
  3  4  1  0
  3  5  1  0
  3 31  1  1
  4 32  1  0
  4 33  1  0
  4 34  1  0
  5  6  1  0
  5 35  1  0
  5 36  1  0
  6  7  1  0
  6  8  1  0
  6 37  1  1
  7 38  1  0
  8 28  1  0
  8  9  1  6
  8 10  1  0
  9 39  1  0
  9 40  1  0
  9 41  1  0
 10 11  1  0
 10 12  1  0
 10 42  1  1
 11 43  1  0
 12 24  1  0
 12 13  1  0
 12 44  1  6
 14 13  1  6
 13 45  1  0
 13 46  1  0
 14 21  1  0
 14 23  1  0
 14 15  1  0
 15 16  1  0
 15 47  1  0
 15 48  1  0
 16 17  1  0
 16 49  1  0
 16 50  1  0
 17 18  1  1
 17 19  1  0
 17 23  1  0
 18 51  1  0
 18 52  1  0
 18 53  1  0
 19 20  2  0
 19 21  1  0
 20 54  1  0
 20 55  1  0
 21 22  2  0
 23 24  1  0
 23 56  1  1
 24 25  1  6
 24 26  1  0
 25 57  1  0
 26 27  1  0
 26 28  1  0
 26 58  1  1
 27 59  1  0
 28 60  1  1
M  END
>  <i_m_ct_stereo_status>  (137) 
1

>  <s_m_source_file>  (137) 
/var/tmp/pbs.5076255.sched01/tmpy176o0g7/39stoh4b52.sdf

>  <i_m_source_file_index>  (137) 
21

>  <i_lp_mmshare_version>  (137) 
48012

>  <i_f3d_flags>  (137) 
0

>  <s_epik_input>  (137) 
W09IXVtDQEBIXTFbQ0gyXVtDQEhdKFtDSDNdKUMoPVtDSDJdKVtDQEhdKFtDQEBIXTJbT0hdKVtDQEBdMShbQ0gzXSlbQ0BASF0oW09IXSlbQ0BIXShbQ0gyXTMpW0NAXTIoW09IXSlbQ0BASF0oW0NAXTM0NSlbQ0BAXShbQ0gzXSkoW0NIMl1bQ0gyXTQpQyg9W0NIMl0pQzU9Tw==

>  <s_epik_cmdline>  (137) 
J2VwaWtfcHl0aG9uJywgJy1waHQnLCAnMi4wJywgJy1waCcsICc3LjAnLCAnLXRuJywgJzgnLCAnLW1hJywgJzIwMCcsICctaW1hZScsICc8aW5maWxlLm1hZT4nLCAnLW9tYWUnLCAnPG91dGZpbGUubWFlPic=

>  <r_lp_tautomer_probability>  (137) 
1

>  <r_epik_Ionization_Penalty>  (137) 
5.82712e-07

>  <r_epik_Ionization_Penalty_Charging>  (137) 
0

>  <r_epik_Ionization_Penalty_Neutral>  (137) 
5.82712e-07

>  <r_epik_State_Penalty>  (137) 
-0

>  <r_epik_Charging_Adjusted_Penalty>  (137) 
0

>  <i_epik_Tot_Q>  (137) 
0

>  <i_epik_Tot_abs_Q>  (137) 
0

>  <s_lp_Force_Field>  (137) 
OPLS3e

>  <r_lp_Energy>  (137) 
66.3442

>  <b_lp_Chiralities_Consistent>  (137) 
1

>  <s_lp_Variant>  (137) 
46:0-1

>  <s_i_glide_gridfile>  (137) 
pfpi4k_grid

>  <i_i_glide_lignum>  (137) 
21

>  <i_i_glide_rotatable_bonds>  (137) 
4

>  <r_i_docking_score>  (137) 
-3.75814

>  <r_i_glide_ligand_efficiency>  (137) 
-0.134219

>  <r_i_glide_ligand_efficiency_sa>  (137) 
-0.407569

>  <r_i_glide_ligand_efficiency_ln>  (137) 
-0.867489

>  <r_i_glide_gscore>  (137) 
-3.75814

>  <r_i_glide_lipo>  (137) 
-0.375179

>  <r_i_glide_hbond>  (137) 
0

>  <r_i_glide_metal>  (137) 
-0

>  <r_i_glide_rewards>  (137) 
-1.30889

>  <r_i_glide_evdw>  (137) 
-24.7734

>  <r_i_glide_ecoul>  (137) 
-5.56934

>  <r_i_glide_erotb>  (137) 
0

>  <r_i_glide_esite>  (137) 
0

>  <r_i_glide_emodel>  (137) 
-42.6226

>  <r_i_glide_energy>  (137) 
-30.3428

>  <r_i_glide_einternal>  (137) 
2.04148

>  <r_i_glide_intrahb_reward>  (137) 
-0.5

>  <i_i_glide_confnum>  (137) 
2

>  <i_i_glide_posenum>  (137) 
37

>  <r_i_glide_eff_state_penalty>  (137) 
0

>  <ligand_id>  (137) 
46

>  <original_smiles>  (137) 
C=C1C(C)CC(O)C2(C)C(O)C3CC45CCC(C)(C(=C)C4=O)C5C3(O)C(O)C12

>  <smiles>  (137) 
[H]OC1([H])C2([H])C(=C([H])[H])C([H])(C([H])([H])[H])C([H])([H])C([H])(O[H])C2(C([H])([H])[H])C([H])(O[H])C2([H])C([H])([H])C34C(=O)C(=C([H])[H])C(C([H])([H])[H])(C([H])([H])C3([H])[H])C4([H])C12O[H]

$$$$
47:0:0
     RDKit          3D

 29 34  0  0  1  0  0  0  0  0999 V2000
    3.9963   -1.4046    1.1232 C   0  0  0  0  0  0  0  0  0  0  0  0
    3.4882   -0.7295   -0.0882 N   0  0  0  0  0  0  0  0  0  0  0  0
    3.9815   -1.2904   -1.3502 C   0  0  1  0  0  0  0  0  0  0  0  0
    4.1683   -0.2571   -2.7830 C   0  0  0  0  0  0  0  0  0  0  0  0
    4.2231   -1.3328   -4.0591 C   0  0  1  0  0  0  0  0  0  0  0  0
    3.9872   -2.9849   -4.0393 C   0  0  2  0  0  0  0  0  0  0  0  0
    2.8112   -3.6586   -3.2900 C   0  0  2  0  0  0  0  0  0  0  0  0
    2.2535   -2.8464   -2.2055 C   0  0  1  0  0  0  0  0  0  0  0  0
    3.1935   -3.8089   -1.7646 C   0  0  2  0  0  0  0  0  0  0  0  0
    4.4099   -2.9564   -1.4300 C   0  0  1  0  0  0  0  0  0  0  0  0
    4.9393   -3.1120   -2.8729 C   0  0  2  0  0  0  0  0  0  0  0  0
    4.5357   -1.7694   -2.8479 C   0  0  2  0  0  0  0  0  0  0  0  0
    2.9972   -1.5710   -2.1953 C   0  0  2  0  0  0  0  0  0  0  0  0
    3.6458   -0.9085    2.0226 H   0  0  0  0  0  0  0  0  0  0  0  0
    5.0865   -1.3937    1.1267 H   0  0  0  0  0  0  0  0  0  0  0  0
    3.6562   -2.4367    1.1487 H   0  0  0  0  0  0  0  0  0  0  0  0
    2.4620   -0.7449   -0.1203 H   0  0  0  0  0  0  0  0  0  0  0  0
    3.4492    0.5446   -3.0212 H   0  0  0  0  0  0  0  0  0  0  0  0
    5.0468    0.4000   -2.7088 H   0  0  0  0  0  0  0  0  0  0  0  0
    5.0410   -1.0806   -4.7105 H   0  0  0  0  0  0  0  0  0  0  0  0
    4.3592   -3.5421   -4.8831 H   0  0  0  0  0  0  0  0  0  0  0  0
    2.1887   -4.3650   -3.8281 H   0  0  0  0  0  0  0  0  0  0  0  0
    1.2059   -2.9401   -1.9671 H   0  0  0  0  0  0  0  0  0  0  0  0
    2.8252   -4.5847   -1.1071 H   0  0  0  0  0  0  0  0  0  0  0  0
    5.0450   -3.3954   -0.6491 H   0  0  0  0  0  0  0  0  0  0  0  0
    5.9919   -3.3178   -3.0830 H   0  0  0  0  0  0  0  0  0  0  0  0
    5.6500   -1.5520   -2.5671 H   0  0  0  0  0  0  0  0  0  0  0  0
    2.2160   -0.8232   -2.4625 H   0  0  0  0  0  0  0  0  0  0  0  0
    3.8003    0.2353   -0.0480 H   0  0  0  0  0  0  0  0  0  0  0  0
  1  2  1  0
  1 14  1  0
  1 15  1  0
  1 16  1  0
  3  2  1  1
  2 17  1  0
  2 29  1  0
  3 10  1  0
  3 13  1  0
  3  4  1  0
  4  5  1  0
  4 18  1  0
  4 19  1  0
  5 12  1  0
  5  6  1  0
  5 20  1  6
  6 11  1  0
  6  7  1  0
  6 21  1  6
  7  9  1  0
  7  8  1  0
  7 22  1  6
  8 13  1  0
  8  9  1  0
  8 23  1  1
  9 10  1  0
  9 24  1  1
 10 11  1  0
 10 25  1  1
 11 12  1  0
 11 26  1  1
 12 13  1  0
 12 27  1  1
 13 28  1  6
M  CHG  1   2   1
M  END
>  <i_m_ct_stereo_status>  (138) 
1

>  <s_m_source_file>  (138) 
/var/tmp/pbs.5076255.sched01/tmpy176o0g7/39stoh4b52.sdf

>  <i_m_source_file_index>  (138) 
22

>  <i_lp_mmshare_version>  (138) 
48012

>  <i_f3d_flags>  (138) 
0

>  <s_epik_input>  (138) 
W0NIM11bTkhdW0NAXTEyW0NASF0zW0NAQEhdNFtDQEBIXTVbQ0BIXTZbQ0BASF0oW0NIMl0xKVtDQEhdKFtDQEBIXTM2KVtDQEhdMltDQEhdNDU=

>  <s_epik_cmdline>  (138) 
J2VwaWtfcHl0aG9uJywgJy1waHQnLCAnMi4wJywgJy1waCcsICc3LjAnLCAnLXRuJywgJzgnLCAnLW1hJywgJzIwMCcsICctaW1hZScsICc8aW5maWxlLm1hZT4nLCAnLW9tYWUnLCAnPG91dGZpbGUubWFlPic=

>  <r_lp_tautomer_probability>  (138) 
1

>  <r_epik_Ionization_Penalty>  (138) 
4.56477e-05

>  <r_epik_Ionization_Penalty_Charging>  (138) 
4.56477e-05

>  <r_epik_Ionization_Penalty_Neutral>  (138) 
0

>  <r_epik_State_Penalty>  (138) 
-0

>  <r_epik_Charging_Adjusted_Penalty>  (138) 
4.56477e-05

>  <i_epik_Tot_Q>  (138) 
1

>  <i_epik_Tot_abs_Q>  (138) 
1

>  <s_lp_Force_Field>  (138) 
OPLS3e

>  <r_lp_Energy>  (138) 
407.237

>  <b_lp_Chiralities_Consistent>  (138) 
1

>  <s_lp_Variant>  (138) 
47:0-1

>  <s_i_glide_gridfile>  (138) 
pfpi4k_grid

>  <i_i_glide_lignum>  (138) 
22

>  <i_i_glide_rotatable_bonds>  (138) 
1

>  <r_i_docking_score>  (138) 
-4.13432

>  <r_i_glide_ligand_efficiency>  (138) 
-0.318024

>  <r_i_glide_ligand_efficiency_sa>  (138) 
-0.747781

>  <r_i_glide_ligand_efficiency_ln>  (138) 
-1.15971

>  <r_i_glide_gscore>  (138) 
-4.13432

>  <r_i_glide_lipo>  (138) 
-0.483846

>  <r_i_glide_hbond>  (138) 
-0.2

>  <r_i_glide_metal>  (138) 
-0

>  <r_i_glide_rewards>  (138) 
-2.22094

>  <r_i_glide_evdw>  (138) 
-8.75908

>  <r_i_glide_ecoul>  (138) 
-4.93881

>  <r_i_glide_erotb>  (138) 
0

>  <r_i_glide_esite>  (138) 
-0.050754

>  <r_i_glide_emodel>  (138) 
-15.8692

>  <r_i_glide_energy>  (138) 
-13.6979

>  <r_i_glide_einternal>  (138) 
1.72321

>  <r_i_glide_intrahb_reward>  (138) 
-0

>  <i_i_glide_confnum>  (138) 
1

>  <i_i_glide_posenum>  (138) 
34

>  <r_i_glide_eff_state_penalty>  (138) 
0

>  <ligand_id>  (138) 
47

>  <original_smiles>  (138) 
CNC12CC3C4C5C6C5C1C4C3C62

>  <smiles>  (138) 
[H]C1([H])C2([H])C3([H])C4([H])C5([H])C4([H])C4([H])C3([H])C2([H])C5([H])C14[N+]([H])([H])C([H])([H])[H]

$$$$
48:0:0
     RDKit          3D

 70 76  0  0  1  0  0  0  0  0999 V2000
    1.2001   -8.4394    5.0244 C   0  0  0  0  0  0  0  0  0  0  0  0
    1.8369   -7.5630    3.9217 C   0  0  2  0  0  0  0  0  0  0  0  0
    2.6971   -8.5175    2.9888 C   0  0  0  0  0  0  0  0  0  0  0  0
    3.4107   -8.1486    1.6404 C   0  0  0  0  0  0  0  0  0  0  0  0
    4.8082   -7.4216    1.5720 C   0  0  2  0  0  0  0  0  0  0  0  0
    5.5329   -8.1107    2.5857 O   0  0  0  0  0  0  0  0  0  0  0  0
    5.9331   -7.4964    3.7690 C   0  0  2  0  0  0  0  0  0  0  0  0
    7.0986   -8.3912    4.2283 C   0  0  0  0  0  0  0  0  0  0  0  0
    4.8680   -7.4442    4.9332 C   0  0  0  0  0  0  0  0  0  0  0  0
    3.9064   -6.2222    5.0598 C   0  0  0  0  0  0  0  0  0  0  0  0
    2.4210   -6.2276    4.5636 C   0  0  1  0  0  0  0  0  0  0  0  0
    1.8869   -4.8121    4.0348 C   0  0  0  0  0  0  0  0  0  0  0  0
    2.6426   -4.2579    2.8007 C   0  0  1  0  0  0  0  0  0  0  0  0
    2.4197   -5.2461    1.6960 C   0  0  0  0  0  0  0  0  0  0  0  0
    3.6282   -5.2835    0.8045 C   0  0  1  0  0  0  0  0  0  0  0  0
    3.4578   -3.9266    0.0785 C   0  0  0  0  0  0  0  0  0  0  0  0
    3.5898   -2.6541    0.9685 C   0  0  2  0  0  0  0  0  0  0  0  0
    2.5456   -2.8185    2.1674 C   0  0  0  0  0  0  0  0  0  0  0  0
    3.3439   -1.4800    0.0862 N   0  0  0  0  0  0  0  0  0  0  0  0
    4.2855   -1.3719   -1.0787 C   0  0  0  0  0  0  0  0  0  0  0  0
    5.7812   -1.6691   -0.7518 C   0  0  0  0  0  0  0  0  0  0  0  0
    6.0602   -2.7164    0.3615 C   0  0  2  0  0  0  0  0  0  0  0  0
    6.1010   -4.0697   -0.1841 O   0  0  0  0  0  0  0  0  0  0  0  0
    6.2409   -5.2281    0.6728 C   0  0  1  0  0  0  0  0  0  0  0  0
    6.9500   -4.8604    1.8494 O   0  0  0  0  0  0  0  0  0  0  0  0
    5.9035   -5.3610    2.6822 C   0  0  2  0  0  0  0  0  0  0  0  0
    6.5123   -6.2772    3.5588 O   0  0  0  0  0  0  0  0  0  0  0  0
    5.0034   -5.8410    1.4524 C   0  0  2  0  0  0  0  0  0  0  0  0
    5.0305   -2.4303    1.4836 C   0  0  1  0  0  0  0  0  0  0  0  0
    5.2847   -1.0621    2.1756 C   0  0  0  0  0  0  0  0  0  0  0  0
    1.9478   -8.7877    5.7374 H   0  0  0  0  0  0  0  0  0  0  0  0
    0.7101   -9.3192    4.6041 H   0  0  0  0  0  0  0  0  0  0  0  0
    0.4326   -7.8979    5.5800 H   0  0  0  0  0  0  0  0  0  0  0  0
    0.9625   -7.2707    3.3395 H   0  0  0  0  0  0  0  0  0  0  0  0
    3.3480   -9.1656    3.5640 H   0  0  0  0  0  0  0  0  0  0  0  0
    1.9565   -9.2487    2.6591 H   0  0  0  0  0  0  0  0  0  0  0  0
    3.6478   -9.1363    1.2455 H   0  0  0  0  0  0  0  0  0  0  0  0
    2.6901   -7.8166    0.8951 H   0  0  0  0  0  0  0  0  0  0  0  0
    5.2383   -7.8144    0.6465 H   0  0  0  0  0  0  0  0  0  0  0  0
    7.8430   -8.4665    3.4349 H   0  0  0  0  0  0  0  0  0  0  0  0
    6.7421   -9.3954    4.4631 H   0  0  0  0  0  0  0  0  0  0  0  0
    7.5852   -7.9723    5.1078 H   0  0  0  0  0  0  0  0  0  0  0  0
    4.3980   -8.4050    5.1081 H   0  0  0  0  0  0  0  0  0  0  0  0
    5.4852   -7.3514    5.8274 H   0  0  0  0  0  0  0  0  0  0  0  0
    3.7866   -6.1528    6.1420 H   0  0  0  0  0  0  0  0  0  0  0  0
    4.4020   -5.2755    4.8923 H   0  0  0  0  0  0  0  0  0  0  0  0
    1.8846   -6.2092    5.5125 H   0  0  0  0  0  0  0  0  0  0  0  0
    0.8170   -4.8755    3.8216 H   0  0  0  0  0  0  0  0  0  0  0  0
    1.9796   -4.0795    4.8387 H   0  0  0  0  0  0  0  0  0  0  0  0
    3.6492   -4.2959    3.1448 H   0  0  0  0  0  0  0  0  0  0  0  0
    2.1844   -6.1989    2.0570 H   0  0  0  0  0  0  0  0  0  0  0  0
    1.5071   -5.0315    1.1478 H   0  0  0  0  0  0  0  0  0  0  0  0
    3.3868   -5.9784   -0.0024 H   0  0  0  0  0  0  0  0  0  0  0  0
    4.0018   -3.9303   -0.8592 H   0  0  0  0  0  0  0  0  0  0  0  0
    2.4500   -3.8878   -0.3372 H   0  0  0  0  0  0  0  0  0  0  0  0
    1.5389   -2.6510    1.7892 H   0  0  0  0  0  0  0  0  0  0  0  0
    2.6937   -2.0626    2.9345 H   0  0  0  0  0  0  0  0  0  0  0  0
    2.3926   -1.4782   -0.2839 H   0  0  0  0  0  0  0  0  0  0  0  0
    3.9442   -2.0263   -1.8785 H   0  0  0  0  0  0  0  0  0  0  0  0
    4.2144   -0.3584   -1.4713 H   0  0  0  0  0  0  0  0  0  0  0  0
    6.3058   -1.9635   -1.6619 H   0  0  0  0  0  0  0  0  0  0  0  0
    6.2429   -0.7334   -0.4285 H   0  0  0  0  0  0  0  0  0  0  0  0
    7.0686   -2.5352    0.7463 H   0  0  0  0  0  0  0  0  0  0  0  0
    6.7656   -6.0108    0.1240 H   0  0  0  0  0  0  0  0  0  0  0  0
    5.5609   -4.6058    3.3603 H   0  0  0  0  0  0  0  0  0  0  0  0
    5.2006   -3.0790    2.2920 H   0  0  0  0  0  0  0  0  0  0  0  0
    5.1473   -0.2027    1.5191 H   0  0  0  0  0  0  0  0  0  0  0  0
    6.3104   -1.0095    2.5456 H   0  0  0  0  0  0  0  0  0  0  0  0
    4.6344   -0.9198    3.0385 H   0  0  0  0  0  0  0  0  0  0  0  0
    3.4363   -0.6500    0.6520 H   0  0  0  0  0  0  0  0  0  0  0  0
  1  2  1  0
  1 31  1  0
  1 32  1  0
  1 33  1  0
  2 11  1  0
  2  3  1  0
  2 34  1  6
  3  4  1  0
  3 35  1  0
  3 36  1  0
  4  5  1  0
  4 37  1  0
  4 38  1  0
  5 28  1  0
  5  6  1  0
  5 39  1  6
  6  7  1  0
  7 27  1  0
  7  8  1  1
  7  9  1  0
  8 40  1  0
  8 41  1  0
  8 42  1  0
  9 10  1  0
  9 43  1  0
  9 44  1  0
 10 11  1  0
 10 45  1  0
 10 46  1  0
 11 12  1  0
 11 47  1  1
 12 13  1  0
 12 48  1  0
 12 49  1  0
 13 18  1  0
 13 14  1  0
 13 50  1  1
 14 15  1  0
 14 51  1  0
 14 52  1  0
 15 28  1  0
 15 16  1  0
 15 53  1  6
 16 17  1  0
 16 54  1  0
 16 55  1  0
 17 29  1  0
 17 18  1  1
 17 19  1  0
 18 56  1  0
 18 57  1  0
 19 20  1  0
 19 58  1  0
 19 70  1  0
 20 21  1  0
 20 59  1  0
 20 60  1  0
 21 22  1  0
 21 61  1  0
 21 62  1  0
 22 23  1  0
 22 29  1  0
 22 63  1  1
 23 24  1  0
 28 24  1  6
 24 25  1  0
 24 64  1  6
 25 26  1  0
 26 27  1  0
 26 28  1  0
 26 65  1  1
 29 30  1  0
 29 66  1  1
 30 67  1  0
 30 68  1  0
 30 69  1  0
M  CHG  1  19   1
M  END
>  <i_m_ct_stereo_status>  (139) 
1

>  <s_m_source_file>  (139) 
/var/tmp/pbs.5076255.sched01/tmpy176o0g7/39stoh4b52.sdf

>  <i_m_source_file_index>  (139) 
23

>  <i_lp_mmshare_version>  (139) 
48012

>  <i_f3d_flags>  (139) 
0

>  <s_epik_input>  (139) 
W0NAQF0xMjNbQ0gyXVtDQEhdNFtDQEBdNTZbQ0BASF03W0NIMl1bQ0gyXVtDQEBIXShbQ0gzXSlbQ0BIXShbQ0gyXVtDQEBIXShbQ0gyXTQpW0NIMl0xKVtDSDJdW0NIMl1bQ0BdKE83KShbQ0gzXSlPW0NASF02T1tDQEBIXTVPW0NASF0oW0NASF0zW0NIM10pW0NIMl1bQ0gyXVtOSF0y

>  <s_epik_cmdline>  (139) 
J2VwaWtfcHl0aG9uJywgJy1waHQnLCAnMi4wJywgJy1waCcsICc3LjAnLCAnLXRuJywgJzgnLCAnLW1hJywgJzIwMCcsICctaW1hZScsICc8aW5maWxlLm1hZT4nLCAnLW9tYWUnLCAnPG91dGZpbGUubWFlPic=

>  <r_epik_Ionization_Penalty>  (139) 
0.000408788

>  <r_epik_Ionization_Penalty_Charging>  (139) 
0.000408788

>  <r_epik_Ionization_Penalty_Neutral>  (139) 
2.46672e-13

>  <r_epik_State_Penalty>  (139) 
0.000250907

>  <r_epik_Charging_Adjusted_Penalty>  (139) 
0.000659695

>  <i_epik_Tot_Q>  (139) 
1

>  <i_epik_Tot_abs_Q>  (139) 
1

>  <s_epik_Chemistry_Notes>  (139) 
This compound contains an acetal/aminal-like group ( X-CH(R)-Y where X, Y are N, S, or O) that may be acid/base labile, releasing an aldehyde.

>  <s_lp_Force_Field>  (139) 
OPLS3e

>  <r_lp_Energy>  (139) 
173.169

>  <b_lp_Chiralities_Consistent>  (139) 
1

>  <s_lp_Variant>  (139) 
48:0-1

>  <s_i_glide_gridfile>  (139) 
pfpi4k_grid

>  <i_i_glide_lignum>  (139) 
23

>  <i_i_glide_rotatable_bonds>  (139) 
0

>  <r_i_docking_score>  (139) 
-3.35653

>  <r_i_glide_ligand_efficiency>  (139) 
-0.111884

>  <r_i_glide_ligand_efficiency_sa>  (139) 
-0.34765

>  <r_i_glide_ligand_efficiency_ln>  (139) 
-0.76264

>  <r_i_glide_gscore>  (139) 
-3.35653

>  <r_i_glide_lipo>  (139) 
-0.346521

>  <r_i_glide_hbond>  (139) 
-0.2

>  <r_i_glide_metal>  (139) 
-0

>  <r_i_glide_rewards>  (139) 
-0.742623

>  <r_i_glide_evdw>  (139) 
-25.3125

>  <r_i_glide_ecoul>  (139) 
-4.73902

>  <r_i_glide_erotb>  (139) 
0

>  <r_i_glide_esite>  (139) 
-0.0909061

>  <r_i_glide_emodel>  (139) 
-36.8444

>  <r_i_glide_energy>  (139) 
-30.0515

>  <r_i_glide_einternal>  (139) 
0

>  <r_i_glide_intrahb_reward>  (139) 
-0

>  <i_i_glide_confnum>  (139) 
1

>  <i_i_glide_posenum>  (139) 
6

>  <r_i_glide_eff_state_penalty>  (139) 
0

>  <ligand_id>  (139) 
48

>  <original_smiles>  (139) 
CC1CCC2OC3(C)CCC1CC1CC4CC5(C1)NCCC(OC1OC(O3)C421)C5C

>  <smiles>  (139) 
[H]C([H])([H])C12OC3([H])OC4([H])OC5([H])C([H])([H])C([H])([H])[N+]([H])([H])C6(C([H])([H])C7([H])C([H])([H])C([H])(C([H])([H])C1([H])[H])C([H])(C([H])([H])[H])C([H])([H])C([H])([H])C([H])(O2)C43C([H])(C7([H])[H])C6([H])[H])C5([H])C([H])([H])[H]

$$$$
48:0:1
     RDKit          3D

 70 76  0  0  1  0  0  0  0  0999 V2000
    2.3006   -6.1506    6.7017 C   0  0  0  0  0  0  0  0  0  0  0  0
    2.5079   -5.7060    5.2362 C   0  0  2  0  0  0  0  0  0  0  0  0
    2.5155   -7.0133    4.3369 C   0  0  0  0  0  0  0  0  0  0  0  0
    2.5293   -7.0906    2.7631 C   0  0  0  0  0  0  0  0  0  0  0  0
    3.8492   -6.9315    1.9141 C   0  0  2  0  0  0  0  0  0  0  0  0
    4.7741   -7.6990    2.6790 O   0  0  0  0  0  0  0  0  0  0  0  0
    5.8522   -7.1315    3.3425 C   0  0  2  0  0  0  0  0  0  0  0  0
    6.8229   -8.3220    3.5028 C   0  0  0  0  0  0  0  0  0  0  0  0
    5.5586   -6.5590    4.7939 C   0  0  0  0  0  0  0  0  0  0  0  0
    5.1344   -5.0640    4.9620 C   0  0  0  0  0  0  0  0  0  0  0  0
    3.6526   -4.6008    5.1673 C   0  0  1  0  0  0  0  0  0  0  0  0
    3.3104   -3.1649    4.5412 C   0  0  0  0  0  0  0  0  0  0  0  0
    3.4660   -3.0732    3.0058 C   0  0  1  0  0  0  0  0  0  0  0  0
    2.4891   -4.0453    2.4323 C   0  0  0  0  0  0  0  0  0  0  0  0
    3.0303   -4.6282    1.1608 C   0  0  1  0  0  0  0  0  0  0  0  0
    2.9034   -3.4064    0.2219 C   0  0  0  0  0  0  0  0  0  0  0  0
    3.7653   -2.1547    0.5664 C   0  0  2  0  0  0  0  0  0  0  0  0
    3.4407   -1.7953    2.0969 C   0  0  0  0  0  0  0  0  0  0  0  0
    3.4487   -1.1254   -0.4103 N   0  0  0  0  0  0  0  0  0  0  0  0
    3.6700   -1.4794   -1.8224 C   0  0  0  0  0  0  0  0  0  0  0  0
    4.9992   -2.2556   -2.1186 C   0  0  0  0  0  0  0  0  0  0  0  0
    5.5077   -3.1753   -0.9779 C   0  0  2  0  0  0  0  0  0  0  0  0
    4.9203   -4.4988   -1.0828 O   0  0  0  0  0  0  0  0  0  0  0  0
    5.1486   -5.5161   -0.0621 C   0  0  1  0  0  0  0  0  0  0  0  0
    6.4235   -5.3019    0.5244 O   0  0  0  0  0  0  0  0  0  0  0  0
    5.8315   -5.2886    1.8199 C   0  0  2  0  0  0  0  0  0  0  0  0
    6.5435   -6.2400    2.5939 O   0  0  0  0  0  0  0  0  0  0  0  0
    4.3603   -5.5413    1.2961 C   0  0  2  0  0  0  0  0  0  0  0  0
    5.2799   -2.4080    0.3453 C   0  0  1  0  0  0  0  0  0  0  0  0
    6.1743   -1.1482    0.4552 C   0  0  0  0  0  0  0  0  0  0  0  0
    3.1851   -6.6504    7.0964 H   0  0  0  0  0  0  0  0  0  0  0  0
    1.4613   -6.8413    6.7960 H   0  0  0  0  0  0  0  0  0  0  0  0
    2.0755   -5.3047    7.3537 H   0  0  0  0  0  0  0  0  0  0  0  0
    1.5685   -5.1926    5.0261 H   0  0  0  0  0  0  0  0  0  0  0  0
    3.1787   -7.7725    4.7350 H   0  0  0  0  0  0  0  0  0  0  0  0
    1.5535   -7.4670    4.5753 H   0  0  0  0  0  0  0  0  0  0  0  0
    2.2909   -8.1462    2.6053 H   0  0  0  0  0  0  0  0  0  0  0  0
    1.6472   -6.6345    2.3239 H   0  0  0  0  0  0  0  0  0  0  0  0
    3.6603   -7.5646    1.0481 H   0  0  0  0  0  0  0  0  0  0  0  0
    7.0298   -8.7566    2.5234 H   0  0  0  0  0  0  0  0  0  0  0  0
    6.3852   -9.0925    4.1369 H   0  0  0  0  0  0  0  0  0  0  0  0
    7.7694   -7.9971    3.9334 H   0  0  0  0  0  0  0  0  0  0  0  0
    5.0072   -7.2541    5.4083 H   0  0  0  0  0  0  0  0  0  0  0  0
    6.5369   -6.5786    5.2699 H   0  0  0  0  0  0  0  0  0  0  0  0
    5.5853   -4.8218    5.9263 H   0  0  0  0  0  0  0  0  0  0  0  0
    5.7034   -4.3868    4.3448 H   0  0  0  0  0  0  0  0  0  0  0  0
    3.6781   -4.2713    6.2083 H   0  0  0  0  0  0  0  0  0  0  0  0
    2.2977   -2.8685    4.8304 H   0  0  0  0  0  0  0  0  0  0  0  0
    3.9685   -2.4194    4.9911 H   0  0  0  0  0  0  0  0  0  0  0  0
    4.4645   -3.4296    2.8834 H   0  0  0  0  0  0  0  0  0  0  0  0
    2.2103   -4.7946    3.1039 H   0  0  0  0  0  0  0  0  0  0  0  0
    1.5174   -3.5584    2.2896 H   0  0  0  0  0  0  0  0  0  0  0  0
    2.2648   -5.2803    0.7614 H   0  0  0  0  0  0  0  0  0  0  0  0
    2.8819   -3.7195   -0.8143 H   0  0  0  0  0  0  0  0  0  0  0  0
    1.8672   -3.0489    0.2781 H   0  0  0  0  0  0  0  0  0  0  0  0
    2.4464   -1.3436    2.1468 H   0  0  0  0  0  0  0  0  0  0  0  0
    4.1234   -1.0428    2.4835 H   0  0  0  0  0  0  0  0  0  0  0  0
    2.4341   -0.8955   -0.3402 H   0  0  0  0  0  0  0  0  0  0  0  0
    2.8200   -2.0627   -2.1955 H   0  0  0  0  0  0  0  0  0  0  0  0
    3.6655   -0.5692   -2.4352 H   0  0  0  0  0  0  0  0  0  0  0  0
    4.9064   -2.8281   -3.0407 H   0  0  0  0  0  0  0  0  0  0  0  0
    5.7822   -1.5232   -2.3078 H   0  0  0  0  0  0  0  0  0  0  0  0
    6.5814   -3.3287   -1.1283 H   0  0  0  0  0  0  0  0  0  0  0  0
    5.0712   -6.4934   -0.5468 H   0  0  0  0  0  0  0  0  0  0  0  0
    6.0929   -4.3786    2.3488 H   0  0  0  0  0  0  0  0  0  0  0  0
    5.6518   -2.9704    1.1523 H   0  0  0  0  0  0  0  0  0  0  0  0
    5.9521   -0.3848   -0.2913 H   0  0  0  0  0  0  0  0  0  0  0  0
    7.2247   -1.4189    0.3279 H   0  0  0  0  0  0  0  0  0  0  0  0
    6.0938   -0.6735    1.4331 H   0  0  0  0  0  0  0  0  0  0  0  0
    3.9716   -0.2875   -0.1882 H   0  0  0  0  0  0  0  0  0  0  0  0
  1  2  1  0
  1 31  1  0
  1 32  1  0
  1 33  1  0
  2 11  1  0
  2  3  1  0
  2 34  1  6
  3  4  1  0
  3 35  1  0
  3 36  1  0
  4  5  1  0
  4 37  1  0
  4 38  1  0
  5 28  1  0
  5  6  1  0
  5 39  1  6
  6  7  1  0
  7 27  1  0
  7  8  1  1
  7  9  1  0
  8 40  1  0
  8 41  1  0
  8 42  1  0
  9 10  1  0
  9 43  1  0
  9 44  1  0
 10 11  1  0
 10 45  1  0
 10 46  1  0
 11 12  1  0
 11 47  1  1
 12 13  1  0
 12 48  1  0
 12 49  1  0
 13 18  1  0
 13 14  1  0
 13 50  1  1
 14 15  1  0
 14 51  1  0
 14 52  1  0
 15 28  1  0
 15 16  1  0
 15 53  1  6
 16 17  1  0
 16 54  1  0
 16 55  1  0
 17 29  1  0
 17 18  1  1
 17 19  1  0
 18 56  1  0
 18 57  1  0
 19 20  1  0
 19 58  1  0
 19 70  1  0
 20 21  1  0
 20 59  1  0
 20 60  1  0
 21 22  1  0
 21 61  1  0
 21 62  1  0
 22 23  1  0
 22 29  1  0
 22 63  1  6
 23 24  1  0
 28 24  1  6
 24 25  1  0
 24 64  1  6
 25 26  1  0
 26 27  1  0
 26 28  1  0
 26 65  1  1
 29 30  1  0
 29 66  1  1
 30 67  1  0
 30 68  1  0
 30 69  1  0
M  CHG  1  19   1
M  END
>  <i_m_ct_stereo_status>  (140) 
1

>  <s_m_source_file>  (140) 
/var/tmp/pbs.5076255.sched01/tmpy176o0g7/39stoh4b52.sdf

>  <i_m_source_file_index>  (140) 
23

>  <i_lp_mmshare_version>  (140) 
48012

>  <i_f3d_flags>  (140) 
0

>  <s_epik_input>  (140) 
W0NAQF0xMjNbQ0gyXVtDQEhdNFtDQEBdNTZbQ0BASF03W0NIMl1bQ0gyXVtDQEBIXShbQ0gzXSlbQ0BIXShbQ0gyXVtDQEBIXShbQ0gyXTQpW0NIMl0xKVtDSDJdW0NIMl1bQ0BdKE83KShbQ0gzXSlPW0NASF02T1tDQEBIXTVPW0NASF0oW0NASF0zW0NIM10pW0NIMl1bQ0gyXVtOSF0y

>  <s_epik_cmdline>  (140) 
J2VwaWtfcHl0aG9uJywgJy1waHQnLCAnMi4wJywgJy1waCcsICc3LjAnLCAnLXRuJywgJzgnLCAnLW1hJywgJzIwMCcsICctaW1hZScsICc8aW5maWxlLm1hZT4nLCAnLW9tYWUnLCAnPG91dGZpbGUubWFlPic=

>  <r_epik_Ionization_Penalty>  (140) 
0.000408788

>  <r_epik_Ionization_Penalty_Charging>  (140) 
0.000408788

>  <r_epik_Ionization_Penalty_Neutral>  (140) 
2.46672e-13

>  <r_epik_State_Penalty>  (140) 
0.000250907

>  <r_epik_Charging_Adjusted_Penalty>  (140) 
0.000659695

>  <i_epik_Tot_Q>  (140) 
1

>  <i_epik_Tot_abs_Q>  (140) 
1

>  <s_epik_Chemistry_Notes>  (140) 
This compound contains an acetal/aminal-like group ( X-CH(R)-Y where X, Y are N, S, or O) that may be acid/base labile, releasing an aldehyde.

>  <s_lp_Force_Field>  (140) 
OPLS3e

>  <r_lp_Energy>  (140) 
173.169

>  <b_lp_Chiralities_Consistent>  (140) 
1

>  <s_lp_Variant>  (140) 
48:0-1

>  <s_i_glide_gridfile>  (140) 
pfpi4k_grid

>  <i_i_glide_lignum>  (140) 
23

>  <i_i_glide_rotatable_bonds>  (140) 
0

>  <r_i_docking_score>  (140) 
-3.19808

>  <r_i_glide_ligand_efficiency>  (140) 
-0.106603

>  <r_i_glide_ligand_efficiency_sa>  (140) 
-0.33124

>  <r_i_glide_ligand_efficiency_ln>  (140) 
-0.726639

>  <r_i_glide_gscore>  (140) 
-3.19808

>  <r_i_glide_lipo>  (140) 
-0.308195

>  <r_i_glide_hbond>  (140) 
-0.2

>  <r_i_glide_metal>  (140) 
-0

>  <r_i_glide_rewards>  (140) 
-0.658961

>  <r_i_glide_evdw>  (140) 
-24.6517

>  <r_i_glide_ecoul>  (140) 
-4.7213

>  <r_i_glide_erotb>  (140) 
0

>  <r_i_glide_esite>  (140) 
-0.0901479

>  <r_i_glide_emodel>  (140) 
-35.8076

>  <r_i_glide_energy>  (140) 
-29.373

>  <r_i_glide_einternal>  (140) 
0

>  <r_i_glide_intrahb_reward>  (140) 
-0

>  <i_i_glide_confnum>  (140) 
1

>  <i_i_glide_posenum>  (140) 
1

>  <r_i_glide_eff_state_penalty>  (140) 
0

>  <ligand_id>  (140) 
48

>  <original_smiles>  (140) 
CC1CCC2OC3(C)CCC1CC1CC4CC5(C1)NCCC(OC1OC(O3)C421)C5C

>  <smiles>  (140) 
[H]C([H])([H])C12OC3([H])OC4([H])OC5([H])C([H])([H])C([H])([H])[N+]([H])([H])C6(C([H])([H])C7([H])C([H])([H])C([H])(C([H])([H])C1([H])[H])C([H])(C([H])([H])[H])C([H])([H])C([H])([H])C([H])(O2)C43C([H])(C7([H])[H])C6([H])[H])C5([H])C([H])([H])[H]

$$$$
49:0:0
     RDKit          3D

 18 19  0  0  1  0  0  0  0  0999 V2000
    6.2335   -3.8510   -0.6120 O   0  0  0  0  0  0  0  0  0  0  0  0
    6.0633   -2.6883   -1.0316 C   0  0  0  0  0  0  0  0  0  0  0  0
    6.9879   -1.8560   -1.1738 O   0  0  0  0  0  0  0  0  0  0  0  0
    4.6168   -2.2577   -1.3576 C   0  0  2  0  0  0  0  0  0  0  0  0
    3.4831   -2.9112   -0.5946 C   0  0  0  0  0  0  0  0  0  0  0  0
    3.7243   -3.2746   -2.0354 C   0  0  1  0  0  0  0  0  0  0  0  0
    2.9897   -2.5987   -3.1770 C   0  0  0  0  0  0  0  0  0  0  0  0
    3.7066   -1.2556   -3.3940 C   0  0  0  0  0  0  0  0  0  0  0  0
    4.6010   -1.4025   -4.3730 F   0  0  0  0  0  0  0  0  0  0  0  0
    2.8563   -0.2820   -3.7242 F   0  0  0  0  0  0  0  0  0  0  0  0
    4.4544   -0.9327   -2.0888 C   0  0  0  0  0  0  0  0  0  0  0  0
    3.7290   -3.6537    0.1603 H   0  0  0  0  0  0  0  0  0  0  0  0
    2.6170   -2.2938   -0.3548 H   0  0  0  0  0  0  0  0  0  0  0  0
    4.1511   -4.2524   -2.2598 H   0  0  0  0  0  0  0  0  0  0  0  0
    3.0026   -3.2187   -4.0764 H   0  0  0  0  0  0  0  0  0  0  0  0
    1.9454   -2.4478   -2.8921 H   0  0  0  0  0  0  0  0  0  0  0  0
    3.8703   -0.2741   -1.4478 H   0  0  0  0  0  0  0  0  0  0  0  0
    5.3895   -0.4148   -2.3022 H   0  0  0  0  0  0  0  0  0  0  0  0
  1  2  2  0
  2  3  1  0
  4  2  1  1
  4  6  1  0
  4 11  1  0
  4  5  1  0
  5  6  1  0
  5 12  1  0
  5 13  1  0
  6  7  1  0
  6 14  1  1
  7  8  1  0
  7 15  1  0
  7 16  1  0
  8  9  1  0
  8 10  1  0
  8 11  1  0
 11 17  1  0
 11 18  1  0
M  CHG  1   3  -1
M  END
>  <i_m_ct_stereo_status>  (141) 
1

>  <s_m_source_file>  (141) 
/var/tmp/pbs.5076255.sched01/tmpy176o0g7/39stoh4b52.sdf

>  <i_m_source_file_index>  (141) 
24

>  <i_lp_mmshare_version>  (141) 
48012

>  <i_f3d_flags>  (141) 
0

>  <s_epik_input>  (141) 
Tz1DKFtPSF0pW0NAQF0xMltDQEBIXShbQ0gyXTEpW0NIMl1DKEYpKEYpW0NIMl0y

>  <s_epik_cmdline>  (141) 
J2VwaWtfcHl0aG9uJywgJy1waHQnLCAnMi4wJywgJy1waCcsICc3LjAnLCAnLXRuJywgJzgnLCAnLW1hJywgJzIwMCcsICctaW1hZScsICc8aW5maWxlLm1hZT4nLCAnLW9tYWUnLCAnPG91dGZpbGUubWFlPic=

>  <r_epik_Ionization_Penalty>  (141) 
0.00131984

>  <r_epik_Ionization_Penalty_Charging>  (141) 
0.00131984

>  <r_epik_Ionization_Penalty_Neutral>  (141) 
0

>  <r_epik_State_Penalty>  (141) 
0.000876612

>  <r_epik_Charging_Adjusted_Penalty>  (141) 
0.00219645

>  <i_epik_Tot_Q>  (141) 
-1

>  <i_epik_Tot_abs_Q>  (141) 
1

>  <s_lp_Force_Field>  (141) 
OPLS3e

>  <r_lp_Energy>  (141) 
14.3106

>  <b_lp_Chiralities_Consistent>  (141) 
1

>  <s_lp_Variant>  (141) 
49:0-1

>  <s_i_glide_gridfile>  (141) 
pfpi4k_grid

>  <i_i_glide_lignum>  (141) 
24

>  <i_i_glide_rotatable_bonds>  (141) 
1

>  <r_i_docking_score>  (141) 
-4.36727

>  <r_i_glide_ligand_efficiency>  (141) 
-0.397024

>  <r_i_glide_ligand_efficiency_sa>  (141) 
-0.882974

>  <r_i_glide_ligand_efficiency_ln>  (141) 
-1.28529

>  <r_i_glide_gscore>  (141) 
-4.36727

>  <r_i_glide_lipo>  (141) 
-0.234051

>  <r_i_glide_hbond>  (141) 
-0.2

>  <r_i_glide_metal>  (141) 
-0

>  <r_i_glide_rewards>  (141) 
-2.47738

>  <r_i_glide_evdw>  (141) 
-13.2551

>  <r_i_glide_ecoul>  (141) 
-5.06343

>  <r_i_glide_erotb>  (141) 
0

>  <r_i_glide_esite>  (141) 
-0.0335646

>  <r_i_glide_emodel>  (141) 
-25.0895

>  <r_i_glide_energy>  (141) 
-18.3186

>  <r_i_glide_einternal>  (141) 
0.190491

>  <r_i_glide_intrahb_reward>  (141) 
-0

>  <i_i_glide_confnum>  (141) 
2

>  <i_i_glide_posenum>  (141) 
6

>  <r_i_glide_eff_state_penalty>  (141) 
0

>  <ligand_id>  (141) 
49

>  <original_smiles>  (141) 
O=C(O)C12CC1CC(F)(F)C2

>  <smiles>  (141) 
[H]C1([H])C(F)(F)C([H])([H])C2(C(=O)[O-])C([H])([H])C12[H]

$$$$
49:0:1
     RDKit          3D

 18 19  0  0  1  0  0  0  0  0999 V2000
    5.5958   -1.6863    0.4341 O   0  0  0  0  0  0  0  0  0  0  0  0
    5.5945   -1.8747   -0.8011 C   0  0  0  0  0  0  0  0  0  0  0  0
    6.6147   -1.8655   -1.5270 O   0  0  0  0  0  0  0  0  0  0  0  0
    4.2448   -2.1378   -1.4667 C   0  0  2  0  0  0  0  0  0  0  0  0
    3.3600   -3.2330   -0.9222 C   0  0  0  0  0  0  0  0  0  0  0  0
    4.0850   -3.4314   -2.2331 C   0  0  1  0  0  0  0  0  0  0  0  0
    3.4452   -3.1228   -3.5692 C   0  0  0  0  0  0  0  0  0  0  0  0
    3.5539   -1.6046   -3.7425 C   0  0  0  0  0  0  0  0  0  0  0  0
    4.6207   -1.3284   -4.4899 F   0  0  0  0  0  0  0  0  0  0  0  0
    2.4729   -1.1011   -4.3284 F   0  0  0  0  0  0  0  0  0  0  0  0
    3.7411   -1.0081   -2.3446 C   0  0  0  0  0  0  0  0  0  0  0  0
    3.7242   -3.7768   -0.0543 H   0  0  0  0  0  0  0  0  0  0  0  0
    2.2858   -3.0621   -0.9476 H   0  0  0  0  0  0  0  0  0  0  0  0
    4.9275   -4.1218   -2.2550 H   0  0  0  0  0  0  0  0  0  0  0  0
    3.9431   -3.6686   -4.3719 H   0  0  0  0  0  0  0  0  0  0  0  0
    2.4040   -3.4523   -3.5391 H   0  0  0  0  0  0  0  0  0  0  0  0
    2.7851   -0.6688   -1.9439 H   0  0  0  0  0  0  0  0  0  0  0  0
    4.4119   -0.1444   -2.3559 H   0  0  0  0  0  0  0  0  0  0  0  0
  1  2  2  0
  2  3  1  0
  4  2  1  1
  4  6  1  0
  4 11  1  0
  4  5  1  0
  5  6  1  0
  5 12  1  0
  5 13  1  0
  6  7  1  0
  6 14  1  6
  7  8  1  0
  7 15  1  0
  7 16  1  0
  8  9  1  0
  8 10  1  0
  8 11  1  0
 11 17  1  0
 11 18  1  0
M  CHG  1   3  -1
M  END
>  <i_m_ct_stereo_status>  (142) 
1

>  <s_m_source_file>  (142) 
/var/tmp/pbs.5076255.sched01/tmpy176o0g7/39stoh4b52.sdf

>  <i_m_source_file_index>  (142) 
24

>  <i_lp_mmshare_version>  (142) 
48012

>  <i_f3d_flags>  (142) 
0

>  <s_epik_input>  (142) 
Tz1DKFtPSF0pW0NAQF0xMltDQEBIXShbQ0gyXTEpW0NIMl1DKEYpKEYpW0NIMl0y

>  <s_epik_cmdline>  (142) 
J2VwaWtfcHl0aG9uJywgJy1waHQnLCAnMi4wJywgJy1waCcsICc3LjAnLCAnLXRuJywgJzgnLCAnLW1hJywgJzIwMCcsICctaW1hZScsICc8aW5maWxlLm1hZT4nLCAnLW9tYWUnLCAnPG91dGZpbGUubWFlPic=

>  <r_epik_Ionization_Penalty>  (142) 
0.00131984

>  <r_epik_Ionization_Penalty_Charging>  (142) 
0.00131984

>  <r_epik_Ionization_Penalty_Neutral>  (142) 
0

>  <r_epik_State_Penalty>  (142) 
0.000876612

>  <r_epik_Charging_Adjusted_Penalty>  (142) 
0.00219645

>  <i_epik_Tot_Q>  (142) 
-1

>  <i_epik_Tot_abs_Q>  (142) 
1

>  <s_lp_Force_Field>  (142) 
OPLS3e

>  <r_lp_Energy>  (142) 
14.3106

>  <b_lp_Chiralities_Consistent>  (142) 
1

>  <s_lp_Variant>  (142) 
49:0-1

>  <s_i_glide_gridfile>  (142) 
pfpi4k_grid

>  <i_i_glide_lignum>  (142) 
24

>  <i_i_glide_rotatable_bonds>  (142) 
1

>  <r_i_docking_score>  (142) 
-4.20962

>  <r_i_glide_ligand_efficiency>  (142) 
-0.382693

>  <r_i_glide_ligand_efficiency_sa>  (142) 
-0.851101

>  <r_i_glide_ligand_efficiency_ln>  (142) 
-1.23889

>  <r_i_glide_gscore>  (142) 
-4.20962

>  <r_i_glide_lipo>  (142) 
-0.432396

>  <r_i_glide_hbond>  (142) 
-0.2

>  <r_i_glide_metal>  (142) 
-0

>  <r_i_glide_rewards>  (142) 
-2.25

>  <r_i_glide_evdw>  (142) 
-14.2917

>  <r_i_glide_ecoul>  (142) 
-3.62037

>  <r_i_glide_erotb>  (142) 
0

>  <r_i_glide_esite>  (142) 
-0.0695857

>  <r_i_glide_emodel>  (142) 
-24.1594

>  <r_i_glide_energy>  (142) 
-17.9121

>  <r_i_glide_einternal>  (142) 
0.703321

>  <r_i_glide_intrahb_reward>  (142) 
-0

>  <i_i_glide_confnum>  (142) 
2

>  <i_i_glide_posenum>  (142) 
19

>  <r_i_glide_eff_state_penalty>  (142) 
0

>  <ligand_id>  (142) 
49

>  <original_smiles>  (142) 
O=C(O)C12CC1CC(F)(F)C2

>  <smiles>  (142) 
[H]C1([H])C(F)(F)C([H])([H])C2(C(=O)[O-])C([H])([H])C12[H]

$$$$
49:0:2
     RDKit          3D

 18 19  0  0  1  0  0  0  0  0999 V2000
    7.0153   -1.4608   -0.3252 O   0  0  0  0  0  0  0  0  0  0  0  0
    6.0195   -2.1201    0.0299 C   0  0  0  0  0  0  0  0  0  0  0  0
    5.9243   -2.6912    1.1391 O   0  0  0  0  0  0  0  0  0  0  0  0
    4.8281   -2.2431   -0.9571 C   0  0  2  0  0  0  0  0  0  0  0  0
    3.6748   -3.1656   -0.6020 C   0  0  0  0  0  0  0  0  0  0  0  0
    4.6628   -3.5567   -1.6780 C   0  0  1  0  0  0  0  0  0  0  0  0
    4.4338   -3.2828   -3.1487 C   0  0  0  0  0  0  0  0  0  0  0  0
    4.0949   -1.7896   -3.2368 C   0  0  0  0  0  0  0  0  0  0  0  0
    4.5304   -1.2539   -4.3765 F   0  0  0  0  0  0  0  0  0  0  0  0
    2.7723   -1.6488   -3.1767 F   0  0  0  0  0  0  0  0  0  0  0  0
    4.7203   -1.1313   -1.9987 C   0  0  0  0  0  0  0  0  0  0  0  0
    3.7206   -3.7078    0.3397 H   0  0  0  0  0  0  0  0  0  0  0  0
    2.6760   -2.8506   -0.8990 H   0  0  0  0  0  0  0  0  0  0  0  0
    5.3528   -4.3718   -1.4534 H   0  0  0  0  0  0  0  0  0  0  0  0
    5.3492   -3.5112   -3.6964 H   0  0  0  0  0  0  0  0  0  0  0  0
    3.6345   -3.9114   -3.5450 H   0  0  0  0  0  0  0  0  0  0  0  0
    4.1332   -0.2963   -1.6198 H   0  0  0  0  0  0  0  0  0  0  0  0
    5.7004   -0.7398   -2.2713 H   0  0  0  0  0  0  0  0  0  0  0  0
  1  2  2  0
  2  3  1  0
  4  2  1  1
  4  6  1  0
  4 11  1  0
  4  5  1  0
  5  6  1  0
  5 12  1  0
  5 13  1  0
  6  7  1  0
  6 14  1  6
  7  8  1  0
  7 15  1  0
  7 16  1  0
  8  9  1  0
  8 10  1  0
  8 11  1  0
 11 17  1  0
 11 18  1  0
M  CHG  1   3  -1
M  END
>  <i_m_ct_stereo_status>  (143) 
1

>  <s_m_source_file>  (143) 
/var/tmp/pbs.5076255.sched01/tmpy176o0g7/39stoh4b52.sdf

>  <i_m_source_file_index>  (143) 
24

>  <i_lp_mmshare_version>  (143) 
48012

>  <i_f3d_flags>  (143) 
0

>  <s_epik_input>  (143) 
Tz1DKFtPSF0pW0NAQF0xMltDQEBIXShbQ0gyXTEpW0NIMl1DKEYpKEYpW0NIMl0y

>  <s_epik_cmdline>  (143) 
J2VwaWtfcHl0aG9uJywgJy1waHQnLCAnMi4wJywgJy1waCcsICc3LjAnLCAnLXRuJywgJzgnLCAnLW1hJywgJzIwMCcsICctaW1hZScsICc8aW5maWxlLm1hZT4nLCAnLW9tYWUnLCAnPG91dGZpbGUubWFlPic=

>  <r_epik_Ionization_Penalty>  (143) 
0.00131984

>  <r_epik_Ionization_Penalty_Charging>  (143) 
0.00131984

>  <r_epik_Ionization_Penalty_Neutral>  (143) 
0

>  <r_epik_State_Penalty>  (143) 
0.000876612

>  <r_epik_Charging_Adjusted_Penalty>  (143) 
0.00219645

>  <i_epik_Tot_Q>  (143) 
-1

>  <i_epik_Tot_abs_Q>  (143) 
1

>  <s_lp_Force_Field>  (143) 
OPLS3e

>  <r_lp_Energy>  (143) 
14.3106

>  <b_lp_Chiralities_Consistent>  (143) 
1

>  <s_lp_Variant>  (143) 
49:0-1

>  <s_i_glide_gridfile>  (143) 
pfpi4k_grid

>  <i_i_glide_lignum>  (143) 
24

>  <i_i_glide_rotatable_bonds>  (143) 
1

>  <r_i_docking_score>  (143) 
-3.74858

>  <r_i_glide_ligand_efficiency>  (143) 
-0.34078

>  <r_i_glide_ligand_efficiency_sa>  (143) 
-0.757888

>  <r_i_glide_ligand_efficiency_ln>  (143) 
-1.10321

>  <r_i_glide_gscore>  (143) 
-3.74858

>  <r_i_glide_lipo>  (143) 
-0.268415

>  <r_i_glide_hbond>  (143) 
-0.150868

>  <r_i_glide_metal>  (143) 
-0

>  <r_i_glide_rewards>  (143) 
-2.2633

>  <r_i_glide_evdw>  (143) 
-13.7697

>  <r_i_glide_ecoul>  (143) 
-2.39227

>  <r_i_glide_erotb>  (143) 
0

>  <r_i_glide_esite>  (143) 
-0.0186785

>  <r_i_glide_emodel>  (143) 
-21.7263

>  <r_i_glide_energy>  (143) 
-16.1619

>  <r_i_glide_einternal>  (143) 
0.921295

>  <r_i_glide_intrahb_reward>  (143) 
-0

>  <i_i_glide_confnum>  (143) 
3

>  <i_i_glide_posenum>  (143) 
21

>  <r_i_glide_eff_state_penalty>  (143) 
0

>  <ligand_id>  (143) 
49

>  <original_smiles>  (143) 
O=C(O)C12CC1CC(F)(F)C2

>  <smiles>  (143) 
[H]C1([H])C(F)(F)C([H])([H])C2(C(=O)[O-])C([H])([H])C12[H]

$$$$
50:0:0
     RDKit          3D

 55 60  0  0  1  0  0  0  0  0999 V2000
    4.4845   -0.6698   -2.6366 C   0  0  0  0  0  0  0  0  0  0  0  0
    4.3131   -1.7158   -1.5258 C   0  0  2  0  0  0  0  0  0  0  0  0
    3.0513   -2.5401   -1.8759 C   0  0  0  0  0  0  0  0  0  0  0  0
    2.3731   -3.5311   -0.9010 C   0  0  0  0  0  0  0  0  0  0  0  0
    3.1239   -4.4720    0.1231 C   0  0  1  0  0  0  0  0  0  0  0  0
    1.9994   -5.4512    0.6267 C   0  0  0  0  0  0  0  0  0  0  0  0
    1.1371   -5.8606   -0.1847 O   0  0  0  0  0  0  0  0  0  0  0  0
    1.8585   -5.6240    1.8622 O   0  0  0  0  0  0  0  0  0  0  0  0
    4.3545   -5.1722   -0.6471 C   0  0  0  0  0  0  0  0  0  0  0  0
    5.7007   -4.8564    0.0796 C   0  0  2  0  0  0  0  0  0  0  0  0
    6.8665   -3.8078   -0.2864 C   0  0  0  0  0  0  0  0  0  0  0  0
    6.8766   -2.4726    0.5258 C   0  0  1  0  0  0  0  0  0  0  0  0
    6.9650   -1.1335    0.0811 O   0  0  0  0  0  0  0  0  0  0  0  0
    5.7046   -1.4708    0.6987 C   0  0  1  0  0  0  0  0  0  0  0  0
    4.4543   -1.0585   -0.1100 C   0  0  2  0  0  0  0  0  0  0  0  0
    3.3014   -1.2807    0.8994 C   0  0  0  0  0  0  0  0  0  0  0  0
    3.8577   -2.3360    1.9282 C   0  0  2  0  0  0  0  0  0  0  0  0
    3.2158   -2.1211    3.3001 C   0  0  1  0  0  0  0  0  0  0  0  0
    3.6114   -3.1378    4.1912 O   0  0  0  0  0  0  0  0  0  0  0  0
    3.6895   -0.8626    3.7232 O   0  0  0  0  0  0  0  0  0  0  0  0
    4.9317   -0.5089    3.0811 C   0  0  0  0  0  0  0  0  0  0  0  0
    5.2289   -1.6809    2.1393 C   0  0  2  0  0  0  0  0  0  0  0  0
    3.8778   -3.8702    1.3981 C   0  0  1  0  0  0  0  0  0  0  0  0
    5.1370   -4.8674    1.5451 C   0  0  0  0  0  0  0  0  0  0  0  0
    4.7089   -6.3157    1.9671 C   0  0  0  0  0  0  0  0  0  0  0  0
    6.1917   -4.6945    2.6506 C   0  0  0  0  0  0  0  0  0  0  0  0
    3.6809    0.0713   -2.6613 H   0  0  0  0  0  0  0  0  0  0  0  0
    4.5231   -1.1434   -3.6241 H   0  0  0  0  0  0  0  0  0  0  0  0
    5.4155   -0.1349   -2.4727 H   0  0  0  0  0  0  0  0  0  0  0  0
    5.1577   -2.3690   -1.6872 H   0  0  0  0  0  0  0  0  0  0  0  0
    2.2657   -1.8550   -2.1907 H   0  0  0  0  0  0  0  0  0  0  0  0
    3.2776   -3.0924   -2.7890 H   0  0  0  0  0  0  0  0  0  0  0  0
    1.5408   -3.0580   -0.3961 H   0  0  0  0  0  0  0  0  0  0  0  0
    1.8491   -4.1637   -1.6216 H   0  0  0  0  0  0  0  0  0  0  0  0
    4.2210   -6.2543   -0.6769 H   0  0  0  0  0  0  0  0  0  0  0  0
    4.3940   -4.9031   -1.7103 H   0  0  0  0  0  0  0  0  0  0  0  0
    5.4369   -3.9840   -0.4643 H   0  0  0  0  0  0  0  0  0  0  0  0
    7.7926   -4.3127   -0.0092 H   0  0  0  0  0  0  0  0  0  0  0  0
    7.0214   -3.6058   -1.3611 H   0  0  0  0  0  0  0  0  0  0  0  0
    7.6287   -2.5379    1.2735 H   0  0  0  0  0  0  0  0  0  0  0  0
    4.5278    0.0224   -0.2546 H   0  0  0  0  0  0  0  0  0  0  0  0
    3.1002   -0.3205    1.3779 H   0  0  0  0  0  0  0  0  0  0  0  0
    2.3290   -1.4877    0.4930 H   0  0  0  0  0  0  0  0  0  0  0  0
    2.1283   -2.1243    3.2544 H   0  0  0  0  0  0  0  0  0  0  0  0
    3.1149   -3.0290    4.9933 H   0  0  0  0  0  0  0  0  0  0  0  0
    4.8086    0.4430    2.5590 H   0  0  0  0  0  0  0  0  0  0  0  0
    5.7310   -0.3818    3.8192 H   0  0  0  0  0  0  0  0  0  0  0  0
    5.9047   -2.2944    2.7072 H   0  0  0  0  0  0  0  0  0  0  0  0
    4.2003   -3.2584    0.6382 H   0  0  0  0  0  0  0  0  0  0  0  0
    4.2210   -6.2809    2.9442 H   0  0  0  0  0  0  0  0  0  0  0  0
    5.5592   -6.9999    2.0434 H   0  0  0  0  0  0  0  0  0  0  0  0
    4.0417   -6.8555    1.3027 H   0  0  0  0  0  0  0  0  0  0  0  0
    5.7472   -4.4166    3.6055 H   0  0  0  0  0  0  0  0  0  0  0  0
    6.9614   -4.0227    2.3859 H   0  0  0  0  0  0  0  0  0  0  0  0
    6.7937   -5.5842    2.8280 H   0  0  0  0  0  0  0  0  0  0  0  0
  1  2  1  0
  1 27  1  0
  1 28  1  0
  1 29  1  0
  2 15  1  0
  2  3  1  0
  2 30  1  6
  3  4  1  0
  3 31  1  0
  3 32  1  0
  4  5  1  0
  4 33  1  0
  4 34  1  0
  5 23  1  0
  5  6  1  1
  5  9  1  0
  6  7  2  0
  6  8  1  0
  9 10  1  0
  9 35  1  0
  9 36  1  0
 10 24  1  0
 10 11  1  0
 10 37  1  1
 11 12  1  0
 11 38  1  0
 11 39  1  0
 12 14  1  0
 12 13  1  0
 12 40  1  1
 14 13  1  1
 14 22  1  0
 14 15  1  0
 15 16  1  0
 15 41  1  6
 17 16  1  6
 16 42  1  0
 16 43  1  0
 17 22  1  0
 17 18  1  0
 17 23  1  0
 18 19  1  0
 18 20  1  0
 18 44  1  6
 19 45  1  0
 20 21  1  0
 21 22  1  0
 21 46  1  0
 21 47  1  0
 22 48  1  1
 23 24  1  0
 23 49  1  1
 24 25  1  0
 24 26  1  0
 25 50  1  0
 25 51  1  0
 25 52  1  0
 26 53  1  0
 26 54  1  0
 26 55  1  0
M  CHG  1   8  -1
M  END
>  <i_m_ct_stereo_status>  (144) 
1

>  <s_m_source_file>  (144) 
/var/tmp/pbs.5076255.sched01/tmpy176o0g7/39stoh4b52.sdf

>  <i_m_source_file_index>  (144) 
25

>  <i_lp_mmshare_version>  (144) 
48012

>  <i_f3d_flags>  (144) 
0

>  <s_epik_input>  (144) 
W0NIMl0xW0NIMl1bQ0BASF0oW0NIM10pW0NASF0yW0NIMl1bQ0BdMyhbQ0BASF00W0NIMl1PW0NAQEhdM1tPSF0pW0NAQEhdKEM1KFtDSDNdKVtDSDNdKVtDQF0xKEMoPU8pW09IXSlbQ0gyXVtDQEBIXTVbQ0gyXVtDQEBIXShPNilDMjQ2

>  <s_epik_cmdline>  (144) 
J2VwaWtfcHl0aG9uJywgJy1waHQnLCAnMi4wJywgJy1waCcsICc3LjAnLCAnLXRuJywgJzgnLCAnLW1hJywgJzIwMCcsICctaW1hZScsICc8aW5maWxlLm1hZT4nLCAnLW9tYWUnLCAnPG91dGZpbGUubWFlPic=

>  <r_epik_Ionization_Penalty>  (144) 
0.00554451

>  <r_epik_Ionization_Penalty_Charging>  (144) 
0.00554447

>  <r_epik_Ionization_Penalty_Neutral>  (144) 
4.53074e-08

>  <r_epik_State_Penalty>  (144) 
0.00405927

>  <r_epik_Charging_Adjusted_Penalty>  (144) 
0.00960374

>  <i_epik_Tot_Q>  (144) 
-1

>  <i_epik_Tot_abs_Q>  (144) 
1

>  <s_epik_Chemistry_Notes>  (144) 
This compound contains an acetal/aminal-like group ( X-CH(R)-Y where X, Y are N, S, or O) that may be acid/base labile, releasing an aldehyde.

>  <s_lp_Force_Field>  (144) 
OPLS3e

>  <r_lp_Energy>  (144) 
242.212

>  <b_lp_Chiralities_Consistent>  (144) 
1

>  <s_lp_Variant>  (144) 
50:0-1

>  <s_i_glide_gridfile>  (144) 
pfpi4k_grid

>  <i_i_glide_lignum>  (144) 
25

>  <i_i_glide_rotatable_bonds>  (144) 
2

>  <r_i_docking_score>  (144) 
-3.28549

>  <r_i_glide_ligand_efficiency>  (144) 
-0.126365

>  <r_i_glide_ligand_efficiency_sa>  (144) 
-0.374356

>  <r_i_glide_ligand_efficiency_ln>  (144) 
-0.771586

>  <r_i_glide_gscore>  (144) 
-3.28549

>  <r_i_glide_lipo>  (144) 
-0.699511

>  <r_i_glide_hbond>  (144) 
-0.417405

>  <r_i_glide_metal>  (144) 
-0

>  <r_i_glide_rewards>  (144) 
-0.944646

>  <r_i_glide_evdw>  (144) 
-12.2696

>  <r_i_glide_ecoul>  (144) 
-3.59312

>  <r_i_glide_erotb>  (144) 
0

>  <r_i_glide_esite>  (144) 
-0.0714791

>  <r_i_glide_emodel>  (144) 
-15.9562

>  <r_i_glide_energy>  (144) 
-15.8627

>  <r_i_glide_einternal>  (144) 
3.33959

>  <r_i_glide_intrahb_reward>  (144) 
-0

>  <i_i_glide_confnum>  (144) 
1

>  <i_i_glide_posenum>  (144) 
1

>  <r_i_glide_eff_state_penalty>  (144) 
0

>  <ligand_id>  (144) 
50

>  <original_smiles>  (144) 
CC1CCC2(C(=O)O)CC3CC4OC45C1CC1(C(O)OCC15)C2C3(C)C

>  <smiles>  (144) 
[H]OC1([H])OC([H])([H])C2([H])C34OC3([H])C([H])([H])C3([H])C([H])([H])C5(C(=O)[O-])C([H])([H])C([H])([H])C([H])(C([H])([H])[H])C4([H])C([H])([H])C12C5([H])C3(C([H])([H])[H])C([H])([H])[H]

$$$$
50:0:1
     RDKit          3D

 55 60  0  0  1  0  0  0  0  0999 V2000
    4.4856   -0.6713   -2.6394 C   0  0  0  0  0  0  0  0  0  0  0  0
    4.3094   -1.7174   -1.5289 C   0  0  2  0  0  0  0  0  0  0  0  0
    3.0455   -2.5425   -1.8732 C   0  0  0  0  0  0  0  0  0  0  0  0
    2.3712   -3.5359   -0.8988 C   0  0  0  0  0  0  0  0  0  0  0  0
    3.1261   -4.4736    0.1229 C   0  0  1  0  0  0  0  0  0  0  0  0
    1.9943   -5.4525    0.6244 C   0  0  0  0  0  0  0  0  0  0  0  0
    1.1323   -5.8616   -0.1893 O   0  0  0  0  0  0  0  0  0  0  0  0
    1.8714   -5.6444    1.8576 O   0  0  0  0  0  0  0  0  0  0  0  0
    4.3545   -5.1759   -0.6453 C   0  0  0  0  0  0  0  0  0  0  0  0
    5.7016   -4.8546    0.0792 C   0  0  2  0  0  0  0  0  0  0  0  0
    6.8642   -3.8108   -0.2908 C   0  0  0  0  0  0  0  0  0  0  0  0
    6.8718   -2.4753    0.5225 C   0  0  1  0  0  0  0  0  0  0  0  0
    6.9660   -1.1339    0.0831 O   0  0  0  0  0  0  0  0  0  0  0  0
    5.7020   -1.4722    0.6977 C   0  0  1  0  0  0  0  0  0  0  0  0
    4.4524   -1.0571   -0.1160 C   0  0  2  0  0  0  0  0  0  0  0  0
    3.3012   -1.2815    0.8994 C   0  0  0  0  0  0  0  0  0  0  0  0
    3.8562   -2.3362    1.9278 C   0  0  2  0  0  0  0  0  0  0  0  0
    3.2148   -2.1165    3.3007 C   0  0  1  0  0  0  0  0  0  0  0  0
    3.5920   -3.1291    4.2007 O   0  0  0  0  0  0  0  0  0  0  0  0
    3.6931   -0.8596    3.7222 O   0  0  0  0  0  0  0  0  0  0  0  0
    4.9342   -0.5070    3.0796 C   0  0  0  0  0  0  0  0  0  0  0  0
    5.2286   -1.6823    2.1363 C   0  0  2  0  0  0  0  0  0  0  0  0
    3.8792   -3.8686    1.3941 C   0  0  1  0  0  0  0  0  0  0  0  0
    5.1375   -4.8643    1.5440 C   0  0  0  0  0  0  0  0  0  0  0  0
    4.7110   -6.3128    1.9682 C   0  0  0  0  0  0  0  0  0  0  0  0
    6.1931   -4.6902    2.6498 C   0  0  0  0  0  0  0  0  0  0  0  0
    3.6887    0.0736   -2.6607 H   0  0  0  0  0  0  0  0  0  0  0  0
    4.5208   -1.1424   -3.6249 H   0  0  0  0  0  0  0  0  0  0  0  0
    5.4170   -0.1416   -2.4774 H   0  0  0  0  0  0  0  0  0  0  0  0
    5.1559   -2.3714   -1.6876 H   0  0  0  0  0  0  0  0  0  0  0  0
    2.2609   -1.8543   -2.1869 H   0  0  0  0  0  0  0  0  0  0  0  0
    3.2685   -3.0925   -2.7876 H   0  0  0  0  0  0  0  0  0  0  0  0
    1.5404   -3.0643   -0.3937 H   0  0  0  0  0  0  0  0  0  0  0  0
    1.8440   -4.1602   -1.6213 H   0  0  0  0  0  0  0  0  0  0  0  0
    4.2185   -6.2578   -0.6765 H   0  0  0  0  0  0  0  0  0  0  0  0
    4.3896   -4.9109   -1.7083 H   0  0  0  0  0  0  0  0  0  0  0  0
    5.4339   -3.9992   -0.4890 H   0  0  0  0  0  0  0  0  0  0  0  0
    7.7871   -4.3158   -0.0054 H   0  0  0  0  0  0  0  0  0  0  0  0
    7.0260   -3.6077   -1.3622 H   0  0  0  0  0  0  0  0  0  0  0  0
    7.6306   -2.5371    1.2768 H   0  0  0  0  0  0  0  0  0  0  0  0
    4.5239    0.0226   -0.2564 H   0  0  0  0  0  0  0  0  0  0  0  0
    3.0987   -0.3231    1.3761 H   0  0  0  0  0  0  0  0  0  0  0  0
    2.3302   -1.4884    0.4921 H   0  0  0  0  0  0  0  0  0  0  0  0
    2.1234   -2.1116    3.2587 H   0  0  0  0  0  0  0  0  0  0  0  0
    4.5214   -3.2725    4.0881 H   0  0  0  0  0  0  0  0  0  0  0  0
    4.8127    0.4463    2.5617 H   0  0  0  0  0  0  0  0  0  0  0  0
    5.7281   -0.3766    3.8193 H   0  0  0  0  0  0  0  0  0  0  0  0
    5.9101   -2.2882    2.7052 H   0  0  0  0  0  0  0  0  0  0  0  0
    4.2085   -3.2617    0.6332 H   0  0  0  0  0  0  0  0  0  0  0  0
    4.2214   -6.2772    2.9437 H   0  0  0  0  0  0  0  0  0  0  0  0
    5.5562   -7.0002    2.0477 H   0  0  0  0  0  0  0  0  0  0  0  0
    4.0454   -6.8544    1.3066 H   0  0  0  0  0  0  0  0  0  0  0  0
    5.7520   -4.4267    3.6102 H   0  0  0  0  0  0  0  0  0  0  0  0
    6.9619   -4.0144    2.3883 H   0  0  0  0  0  0  0  0  0  0  0  0
    6.7965   -5.5806    2.8201 H   0  0  0  0  0  0  0  0  0  0  0  0
  1  2  1  0
  1 27  1  0
  1 28  1  0
  1 29  1  0
  2 15  1  0
  2  3  1  0
  2 30  1  6
  3  4  1  0
  3 31  1  0
  3 32  1  0
  4  5  1  0
  4 33  1  0
  4 34  1  0
  5 23  1  0
  5  6  1  1
  5  9  1  0
  6  7  2  0
  6  8  1  0
  9 10  1  0
  9 35  1  0
  9 36  1  0
 10 24  1  0
 10 11  1  0
 10 37  1  1
 11 12  1  0
 11 38  1  0
 11 39  1  0
 12 14  1  0
 12 13  1  0
 12 40  1  1
 14 13  1  1
 14 22  1  0
 14 15  1  0
 15 16  1  0
 15 41  1  6
 17 16  1  6
 16 42  1  0
 16 43  1  0
 17 22  1  0
 17 18  1  0
 17 23  1  0
 18 19  1  0
 18 20  1  0
 18 44  1  6
 19 45  1  0
 20 21  1  0
 21 22  1  0
 21 46  1  0
 21 47  1  0
 22 48  1  1
 23 24  1  0
 23 49  1  1
 24 25  1  0
 24 26  1  0
 25 50  1  0
 25 51  1  0
 25 52  1  0
 26 53  1  0
 26 54  1  0
 26 55  1  0
M  CHG  1   8  -1
M  END
>  <i_m_ct_stereo_status>  (145) 
1

>  <s_m_source_file>  (145) 
/var/tmp/pbs.5076255.sched01/tmpy176o0g7/39stoh4b52.sdf

>  <i_m_source_file_index>  (145) 
25

>  <i_lp_mmshare_version>  (145) 
48012

>  <i_f3d_flags>  (145) 
0

>  <s_epik_input>  (145) 
W0NIMl0xW0NIMl1bQ0BASF0oW0NIM10pW0NASF0yW0NIMl1bQ0BdMyhbQ0BASF00W0NIMl1PW0NAQEhdM1tPSF0pW0NAQEhdKEM1KFtDSDNdKVtDSDNdKVtDQF0xKEMoPU8pW09IXSlbQ0gyXVtDQEBIXTVbQ0gyXVtDQEBIXShPNilDMjQ2

>  <s_epik_cmdline>  (145) 
J2VwaWtfcHl0aG9uJywgJy1waHQnLCAnMi4wJywgJy1waCcsICc3LjAnLCAnLXRuJywgJzgnLCAnLW1hJywgJzIwMCcsICctaW1hZScsICc8aW5maWxlLm1hZT4nLCAnLW9tYWUnLCAnPG91dGZpbGUubWFlPic=

>  <r_epik_Ionization_Penalty>  (145) 
0.00554451

>  <r_epik_Ionization_Penalty_Charging>  (145) 
0.00554447

>  <r_epik_Ionization_Penalty_Neutral>  (145) 
4.53074e-08

>  <r_epik_State_Penalty>  (145) 
0.00405927

>  <r_epik_Charging_Adjusted_Penalty>  (145) 
0.00960374

>  <i_epik_Tot_Q>  (145) 
-1

>  <i_epik_Tot_abs_Q>  (145) 
1

>  <s_epik_Chemistry_Notes>  (145) 
This compound contains an acetal/aminal-like group ( X-CH(R)-Y where X, Y are N, S, or O) that may be acid/base labile, releasing an aldehyde.

>  <s_lp_Force_Field>  (145) 
OPLS3e

>  <r_lp_Energy>  (145) 
242.212

>  <b_lp_Chiralities_Consistent>  (145) 
1

>  <s_lp_Variant>  (145) 
50:0-1

>  <s_i_glide_gridfile>  (145) 
pfpi4k_grid

>  <i_i_glide_lignum>  (145) 
25

>  <i_i_glide_rotatable_bonds>  (145) 
2

>  <r_i_docking_score>  (145) 
-3.2549

>  <r_i_glide_ligand_efficiency>  (145) 
-0.125189

>  <r_i_glide_ligand_efficiency_sa>  (145) 
-0.370871

>  <r_i_glide_ligand_efficiency_ln>  (145) 
-0.764404

>  <r_i_glide_gscore>  (145) 
-3.2549

>  <r_i_glide_lipo>  (145) 
-0.698641

>  <r_i_glide_hbond>  (145) 
-0.417325

>  <r_i_glide_metal>  (145) 
-0

>  <r_i_glide_rewards>  (145) 
-0.944646

>  <r_i_glide_evdw>  (145) 
-12.061

>  <r_i_glide_ecoul>  (145) 
-3.46114

>  <r_i_glide_erotb>  (145) 
0

>  <r_i_glide_esite>  (145) 
-0.0720713

>  <r_i_glide_emodel>  (145) 
-15.3419

>  <r_i_glide_energy>  (145) 
-15.5222

>  <r_i_glide_einternal>  (145) 
3.09457

>  <r_i_glide_intrahb_reward>  (145) 
-0

>  <i_i_glide_confnum>  (145) 
1

>  <i_i_glide_posenum>  (145) 
27

>  <r_i_glide_eff_state_penalty>  (145) 
0

>  <ligand_id>  (145) 
50

>  <original_smiles>  (145) 
CC1CCC2(C(=O)O)CC3CC4OC45C1CC1(C(O)OCC15)C2C3(C)C

>  <smiles>  (145) 
[H]OC1([H])OC([H])([H])C2([H])C34OC3([H])C([H])([H])C3([H])C([H])([H])C5(C(=O)[O-])C([H])([H])C([H])([H])C([H])(C([H])([H])[H])C4([H])C([H])([H])C12C5([H])C3(C([H])([H])[H])C([H])([H])[H]

$$$$
50:0:2
     RDKit          3D

 55 60  0  0  1  0  0  0  0  0999 V2000
    4.0478   -3.4623   -0.7917 C   0  0  0  0  0  0  0  0  0  0  0  0
    4.0015   -4.0478    0.6336 C   0  0  2  0  0  0  0  0  0  0  0  0
    3.6011   -2.9073    1.6184 C   0  0  0  0  0  0  0  0  0  0  0  0
    3.6475   -3.0252    3.1732 C   0  0  0  0  0  0  0  0  0  0  0  0
    3.3011   -4.3406    3.9578 C   0  0  1  0  0  0  0  0  0  0  0  0
    3.2475   -3.8320    5.4223 C   0  0  0  0  0  0  0  0  0  0  0  0
    2.1544   -3.3920    5.8499 O   0  0  0  0  0  0  0  0  0  0  0  0
    4.3170   -3.8391    6.0706 O   0  0  0  0  0  0  0  0  0  0  0  0
    1.9061   -4.9322    3.4296 C   0  0  0  0  0  0  0  0  0  0  0  0
    2.1768   -6.4144    2.9425 C   0  0  2  0  0  0  0  0  0  0  0  0
    2.3800   -7.0531    1.4852 C   0  0  0  0  0  0  0  0  0  0  0  0
    3.8524   -7.3773    1.0541 C   0  0  1  0  0  0  0  0  0  0  0  0
    4.5364   -7.0329   -0.1377 O   0  0  0  0  0  0  0  0  0  0  0  0
    5.0696   -6.4129    1.0475 C   0  0  1  0  0  0  0  0  0  0  0  0
    5.2851   -4.8901    0.9173 C   0  0  2  0  0  0  0  0  0  0  0  0
    6.0865   -4.5510    2.1990 C   0  0  0  0  0  0  0  0  0  0  0  0
    5.7487   -5.7139    3.2092 C   0  0  2  0  0  0  0  0  0  0  0  0
    6.9271   -5.9620    4.1555 C   0  0  1  0  0  0  0  0  0  0  0  0
    6.5895   -6.9202    5.1317 O   0  0  0  0  0  0  0  0  0  0  0  0
    7.9597   -6.4349    3.3219 O   0  0  0  0  0  0  0  0  0  0  0  0
    7.4559   -7.0393    2.1123 C   0  0  0  0  0  0  0  0  0  0  0  0
    5.9339   -6.8769    2.2203 C   0  0  2  0  0  0  0  0  0  0  0  0
    4.2802   -5.6042    3.9049 C   0  0  1  0  0  0  0  0  0  0  0  0
    3.2510   -6.8323    4.0303 C   0  0  0  0  0  0  0  0  0  0  0  0
    2.6067   -6.8788    5.4624 C   0  0  0  0  0  0  0  0  0  0  0  0
    3.7289   -8.3243    4.0147 C   0  0  0  0  0  0  0  0  0  0  0  0
    4.8537   -2.7339   -0.9026 H   0  0  0  0  0  0  0  0  0  0  0  0
    3.1111   -2.9579   -1.0421 H   0  0  0  0  0  0  0  0  0  0  0  0
    4.2006   -4.2490   -1.5345 H   0  0  0  0  0  0  0  0  0  0  0  0
    3.1574   -4.7186    0.5623 H   0  0  0  0  0  0  0  0  0  0  0  0
    4.1851   -2.0207    1.3671 H   0  0  0  0  0  0  0  0  0  0  0  0
    2.5787   -2.6274    1.3592 H   0  0  0  0  0  0  0  0  0  0  0  0
    4.5630   -2.5917    3.5711 H   0  0  0  0  0  0  0  0  0  0  0  0
    2.9224   -2.2741    3.4963 H   0  0  0  0  0  0  0  0  0  0  0  0
    1.1543   -4.9534    4.2165 H   0  0  0  0  0  0  0  0  0  0  0  0
    1.4291   -4.2736    2.6931 H   0  0  0  0  0  0  0  0  0  0  0  0
    2.5126   -5.7324    2.1947 H   0  0  0  0  0  0  0  0  0  0  0  0
    1.8937   -8.0277    1.5372 H   0  0  0  0  0  0  0  0  0  0  0  0
    1.8407   -6.5703    0.6588 H   0  0  0  0  0  0  0  0  0  0  0  0
    4.0259   -8.4454    1.1333 H   0  0  0  0  0  0  0  0  0  0  0  0
    5.9706   -4.7495    0.0810 H   0  0  0  0  0  0  0  0  0  0  0  0
    7.1406   -4.5579    1.9286 H   0  0  0  0  0  0  0  0  0  0  0  0
    5.9967   -3.5427    2.5652 H   0  0  0  0  0  0  0  0  0  0  0  0
    7.2402   -5.0600    4.6820 H   0  0  0  0  0  0  0  0  0  0  0  0
    7.3095   -6.9816    5.7370 H   0  0  0  0  0  0  0  0  0  0  0  0
    7.8820   -6.5455    1.2382 H   0  0  0  0  0  0  0  0  0  0  0  0
    7.7457   -8.0922    2.0581 H   0  0  0  0  0  0  0  0  0  0  0  0
    5.6247   -7.8256    2.6179 H   0  0  0  0  0  0  0  0  0  0  0  0
    4.1619   -5.3775    2.9089 H   0  0  0  0  0  0  0  0  0  0  0  0
    3.3754   -7.0320    6.2225 H   0  0  0  0  0  0  0  0  0  0  0  0
    1.8764   -7.6831    5.5654 H   0  0  0  0  0  0  0  0  0  0  0  0
    2.0355   -6.0196    5.7881 H   0  0  0  0  0  0  0  0  0  0  0  0
    4.6212   -8.4656    4.6211 H   0  0  0  0  0  0  0  0  0  0  0  0
    3.8997   -8.8009    3.0703 H   0  0  0  0  0  0  0  0  0  0  0  0
    2.9825   -9.0069    4.4214 H   0  0  0  0  0  0  0  0  0  0  0  0
  1  2  1  0
  1 27  1  0
  1 28  1  0
  1 29  1  0
  2 15  1  0
  2  3  1  0
  2 30  1  6
  3  4  1  0
  3 31  1  0
  3 32  1  0
  4  5  1  0
  4 33  1  0
  4 34  1  0
  5 23  1  0
  5  6  1  1
  5  9  1  0
  6  7  2  0
  6  8  1  0
  9 10  1  0
  9 35  1  0
  9 36  1  0
 10 24  1  0
 10 11  1  0
 10 37  1  1
 11 12  1  0
 11 38  1  0
 11 39  1  0
 12 14  1  0
 12 13  1  0
 12 40  1  1
 14 13  1  6
 14 22  1  0
 14 15  1  0
 15 16  1  0
 15 41  1  6
 17 16  1  6
 16 42  1  0
 16 43  1  0
 17 22  1  0
 17 18  1  0
 17 23  1  0
 18 19  1  0
 18 20  1  0
 18 44  1  1
 19 45  1  0
 20 21  1  0
 21 22  1  0
 21 46  1  0
 21 47  1  0
 22 48  1  1
 23 24  1  0
 23 49  1  1
 24 25  1  0
 24 26  1  0
 25 50  1  0
 25 51  1  0
 25 52  1  0
 26 53  1  0
 26 54  1  0
 26 55  1  0
M  CHG  1   8  -1
M  END
>  <i_m_ct_stereo_status>  (146) 
1

>  <s_m_source_file>  (146) 
/var/tmp/pbs.5076255.sched01/tmpy176o0g7/39stoh4b52.sdf

>  <i_m_source_file_index>  (146) 
25

>  <i_lp_mmshare_version>  (146) 
48012

>  <i_f3d_flags>  (146) 
0

>  <s_epik_input>  (146) 
W0NIMl0xW0NIMl1bQ0BASF0oW0NIM10pW0NASF0yW0NIMl1bQ0BdMyhbQ0BASF00W0NIMl1PW0NAQEhdM1tPSF0pW0NAQEhdKEM1KFtDSDNdKVtDSDNdKVtDQF0xKEMoPU8pW09IXSlbQ0gyXVtDQEBIXTVbQ0gyXVtDQEBIXShPNilDMjQ2

>  <s_epik_cmdline>  (146) 
J2VwaWtfcHl0aG9uJywgJy1waHQnLCAnMi4wJywgJy1waCcsICc3LjAnLCAnLXRuJywgJzgnLCAnLW1hJywgJzIwMCcsICctaW1hZScsICc8aW5maWxlLm1hZT4nLCAnLW9tYWUnLCAnPG91dGZpbGUubWFlPic=

>  <r_epik_Ionization_Penalty>  (146) 
0.00554451

>  <r_epik_Ionization_Penalty_Charging>  (146) 
0.00554447

>  <r_epik_Ionization_Penalty_Neutral>  (146) 
4.53074e-08

>  <r_epik_State_Penalty>  (146) 
0.00405927

>  <r_epik_Charging_Adjusted_Penalty>  (146) 
0.00960374

>  <i_epik_Tot_Q>  (146) 
-1

>  <i_epik_Tot_abs_Q>  (146) 
1

>  <s_epik_Chemistry_Notes>  (146) 
This compound contains an acetal/aminal-like group ( X-CH(R)-Y where X, Y are N, S, or O) that may be acid/base labile, releasing an aldehyde.

>  <s_lp_Force_Field>  (146) 
OPLS3e

>  <r_lp_Energy>  (146) 
242.212

>  <b_lp_Chiralities_Consistent>  (146) 
1

>  <s_lp_Variant>  (146) 
50:0-1

>  <s_i_glide_gridfile>  (146) 
pfpi4k_grid

>  <i_i_glide_lignum>  (146) 
25

>  <i_i_glide_rotatable_bonds>  (146) 
2

>  <r_i_docking_score>  (146) 
-2.00624

>  <r_i_glide_ligand_efficiency>  (146) 
-0.0771631

>  <r_i_glide_ligand_efficiency_sa>  (146) 
-0.228595

>  <r_i_glide_ligand_efficiency_ln>  (146) 
-0.471159

>  <r_i_glide_gscore>  (146) 
-2.00624

>  <r_i_glide_lipo>  (146) 
-0.37687

>  <r_i_glide_hbond>  (146) 
0

>  <r_i_glide_metal>  (146) 
-0

>  <r_i_glide_rewards>  (146) 
-0.945409

>  <r_i_glide_evdw>  (146) 
-16.5772

>  <r_i_glide_ecoul>  (146) 
0.966

>  <r_i_glide_erotb>  (146) 
0

>  <r_i_glide_esite>  (146) 
0

>  <r_i_glide_emodel>  (146) 
-17.5998

>  <r_i_glide_energy>  (146) 
-15.6112

>  <r_i_glide_einternal>  (146) 
0.284808

>  <r_i_glide_intrahb_reward>  (146) 
-0

>  <i_i_glide_confnum>  (146) 
2

>  <i_i_glide_posenum>  (146) 
11

>  <r_i_glide_eff_state_penalty>  (146) 
0

>  <ligand_id>  (146) 
50

>  <original_smiles>  (146) 
CC1CCC2(C(=O)O)CC3CC4OC45C1CC1(C(O)OCC15)C2C3(C)C

>  <smiles>  (146) 
[H]OC1([H])OC([H])([H])C2([H])C34OC3([H])C([H])([H])C3([H])C([H])([H])C5(C(=O)[O-])C([H])([H])C([H])([H])C([H])(C([H])([H])[H])C4([H])C([H])([H])C12C5([H])C3(C([H])([H])[H])C([H])([H])[H]

$$$$
52:0:0
     RDKit          3D

 89 97  0  0  1  0  0  0  0  0999 V2000
   -0.3218   -7.8608    1.7262 C   0  0  0  0  0  0  0  0  0  0  0  0
    0.1821   -8.3827    2.8520 C   0  0  0  0  0  0  0  0  0  0  0  0
   -0.4211   -9.6700    3.3940 C   0  0  0  0  0  0  0  0  0  0  0  0
    0.5974  -10.6101    4.0607 C   0  0  0  0  0  0  0  0  0  0  0  0
    1.4429   -9.8053    5.0504 C   0  0  1  0  0  0  0  0  0  0  0  0
    2.3585  -10.6644    5.6903 O   0  0  0  0  0  0  0  0  0  0  0  0
    2.1118   -8.8214    4.3375 O   0  0  0  0  0  0  0  0  0  0  0  0
    1.3328   -7.7988    3.7048 C   0  0  1  0  0  0  0  0  0  0  0  0
    2.2455   -6.8548    2.8961 C   0  0  0  0  0  0  0  0  0  0  0  0
    1.8771   -5.6615    2.3727 C   0  0  0  0  0  0  0  0  0  0  0  0
    2.8659   -5.2422    1.4265 C   0  0  0  0  0  0  0  0  0  0  0  0
    3.8588   -6.1402    1.4253 C   0  0  0  0  0  0  0  0  0  0  0  0
    5.1488   -6.0871    0.6271 C   0  0  0  0  0  0  0  0  0  0  0  0
    6.2688   -6.9305    1.2835 C   0  0  0  0  0  0  0  0  0  0  0  0
    6.1687   -6.9613    2.8030 C   0  0  0  0  0  0  0  0  0  0  0  0
    7.2257   -6.6820    3.5743 C   0  0  0  0  0  0  0  0  0  0  0  0
    7.1108   -6.5129    5.0648 C   0  0  1  0  0  0  0  0  0  0  0  0
    7.9366   -5.4567    5.4429 O   0  0  0  0  0  0  0  0  0  0  0  0
    8.3116   -5.4384    6.8061 C   0  0  0  0  0  0  0  0  0  0  0  0
    5.7998   -6.4047    5.5862 O   0  0  0  0  0  0  0  0  0  0  0  0
    4.6938   -6.1704    4.7159 C   0  0  2  0  0  0  0  0  0  0  0  0
    4.6859   -4.6085    4.1949 C   0  0  0  0  0  0  0  0  0  0  0  0
    5.4042   -3.4077    4.9779 C   0  0  0  0  0  0  0  0  0  0  0  0
    4.6188   -2.4306    5.9158 C   0  0  0  0  0  0  0  0  0  0  0  0
    4.6600   -0.9717    5.4851 C   0  0  0  0  0  0  0  0  0  0  0  0
    3.9719   -2.8893    7.0229 C   0  0  0  0  0  0  0  0  0  0  0  0
    2.9639   -2.2119    7.9199 C   0  0  0  0  0  0  0  0  0  0  0  0
    2.9369   -1.0112    8.1870 O   0  0  0  0  0  0  0  0  0  0  0  0
    2.0022   -3.3007    8.3615 C   0  0  2  0  0  0  0  0  0  0  0  0
    2.7247   -4.2813    9.3106 C   0  0  0  0  0  0  0  0  0  0  0  0
    3.7882   -5.0633    8.5016 C   0  0  1  0  0  0  0  0  0  0  0  0
    5.1023   -5.1537    9.3087 C   0  0  0  0  0  0  0  0  0  0  0  0
    3.3670   -6.4655    7.9564 C   0  0  0  0  0  0  0  0  0  0  0  0
    2.7346   -6.2508    6.5569 C   0  0  2  0  0  0  0  0  0  0  0  0
    3.4873   -6.6472    5.3624 O   0  0  0  0  0  0  0  0  0  0  0  0
    2.5889   -4.7833    6.4265 C   0  0  2  0  0  0  0  0  0  0  0  0
    3.9120   -4.3846    7.1372 C   0  0  1  0  0  0  0  0  0  0  0  0
    1.4639   -3.9365    7.0467 C   0  0  1  0  0  0  0  0  0  0  0  0
    0.2720   -4.3049    7.9309 C   0  0  0  0  0  0  0  0  0  0  0  0
   -0.6718   -5.2406    7.9529 C   0  0  0  0  0  0  0  0  0  0  0  0
    0.5294   -3.1172    8.7578 C   0  0  0  0  0  0  0  0  0  0  0  0
   -0.2134   -2.3157    9.2940 O   0  0  0  0  0  0  0  0  0  0  0  0
    4.8266   -7.1899    3.4872 C   0  0  1  0  0  0  0  0  0  0  0  0
    3.6454   -7.2608    2.4278 C   0  0  1  0  0  0  0  0  0  0  0  0
    3.5570   -8.6284    1.7017 C   0  0  0  0  0  0  0  0  0  0  0  0
    0.0403   -6.9629    1.2501 H   0  0  0  0  0  0  0  0  0  0  0  0
   -1.1357   -8.3515    1.2147 H   0  0  0  0  0  0  0  0  0  0  0  0
   -1.2001   -9.3745    4.0945 H   0  0  0  0  0  0  0  0  0  0  0  0
   -0.9204  -10.2125    2.5859 H   0  0  0  0  0  0  0  0  0  0  0  0
    0.0938  -11.4171    4.5948 H   0  0  0  0  0  0  0  0  0  0  0  0
    1.2432  -11.0829    3.3209 H   0  0  0  0  0  0  0  0  0  0  0  0
    0.8314   -9.3508    5.8271 H   0  0  0  0  0  0  0  0  0  0  0  0
    1.8878  -11.2423    6.2926 H   0  0  0  0  0  0  0  0  0  0  0  0
    0.8522   -7.2242    4.4991 H   0  0  0  0  0  0  0  0  0  0  0  0
    0.9164   -5.2045    2.5231 H   0  0  0  0  0  0  0  0  0  0  0  0
    2.8094   -4.3533    0.8075 H   0  0  0  0  0  0  0  0  0  0  0  0
    4.9648   -6.4213   -0.3967 H   0  0  0  0  0  0  0  0  0  0  0  0
    5.4578   -5.0424    0.5656 H   0  0  0  0  0  0  0  0  0  0  0  0
    6.2533   -7.9540    0.9125 H   0  0  0  0  0  0  0  0  0  0  0  0
    7.2437   -6.5462    0.9750 H   0  0  0  0  0  0  0  0  0  0  0  0
    8.1941   -6.5008    3.1319 H   0  0  0  0  0  0  0  0  0  0  0  0
    7.5356   -7.4357    5.4703 H   0  0  0  0  0  0  0  0  0  0  0  0
    9.0624   -4.6678    6.9557 H   0  0  0  0  0  0  0  0  0  0  0  0
    8.7380   -6.3840    7.1357 H   0  0  0  0  0  0  0  0  0  0  0  0
    7.4583   -5.1918    7.4329 H   0  0  0  0  0  0  0  0  0  0  0  0
    5.2600   -4.6234    3.2725 H   0  0  0  0  0  0  0  0  0  0  0  0
    3.7197   -4.3031    3.8105 H   0  0  0  0  0  0  0  0  0  0  0  0
    6.2917   -3.7462    5.5048 H   0  0  0  0  0  0  0  0  0  0  0  0
    5.8041   -2.7614    4.1932 H   0  0  0  0  0  0  0  0  0  0  0  0
    5.6909   -0.6183    5.4588 H   0  0  0  0  0  0  0  0  0  0  0  0
    4.1043   -0.3074    6.1419 H   0  0  0  0  0  0  0  0  0  0  0  0
    4.2429   -0.8653    4.4826 H   0  0  0  0  0  0  0  0  0  0  0  0
    3.1871   -3.7291   10.1292 H   0  0  0  0  0  0  0  0  0  0  0  0
    2.0410   -4.9816    9.8002 H   0  0  0  0  0  0  0  0  0  0  0  0
    5.8368   -5.7843    8.8087 H   0  0  0  0  0  0  0  0  0  0  0  0
    4.9258   -5.5899   10.2956 H   0  0  0  0  0  0  0  0  0  0  0  0
    5.5494   -4.1684    9.4559 H   0  0  0  0  0  0  0  0  0  0  0  0
    4.2232   -7.1347    7.8509 H   0  0  0  0  0  0  0  0  0  0  0  0
    2.6726   -6.9589    8.6374 H   0  0  0  0  0  0  0  0  0  0  0  0
    1.7645   -6.7465    6.5203 H   0  0  0  0  0  0  0  0  0  0  0  0
    2.5277   -4.5357    5.3805 H   0  0  0  0  0  0  0  0  0  0  0  0
    4.8240   -4.8117    6.7823 H   0  0  0  0  0  0  0  0  0  0  0  0
    1.1706   -3.1610    6.3316 H   0  0  0  0  0  0  0  0  0  0  0  0
   -0.6628   -6.0287    7.1992 H   0  0  0  0  0  0  0  0  0  0  0  0
   -1.4735   -5.2381    8.6855 H   0  0  0  0  0  0  0  0  0  0  0  0
    4.8797   -8.1770    3.9426 H   0  0  0  0  0  0  0  0  0  0  0  0
    2.8237   -8.6075    0.8977 H   0  0  0  0  0  0  0  0  0  0  0  0
    3.2663   -9.4394    2.3646 H   0  0  0  0  0  0  0  0  0  0  0  0
    4.4855   -8.9663    1.2639 H   0  0  0  0  0  0  0  0  0  0  0  0
  1  2  2  0
  1 46  1  0
  1 47  1  0
  2  8  1  0
  2  3  1  0
  3  4  1  0
  3 48  1  0
  3 49  1  0
  4  5  1  0
  4 50  1  0
  4 51  1  0
  5  6  1  0
  5  7  1  0
  5 52  1  1
  6 53  1  0
  7  8  1  0
  8  9  1  0
  8 54  1  1
  9 44  1  0
  9 10  2  0
 10 11  1  0
 10 55  1  0
 11 12  2  0
 11 56  1  0
 12 44  1  0
 12 13  1  0
 13 14  1  0
 13 57  1  0
 13 58  1  0
 14 15  1  0
 14 59  1  0
 14 60  1  0
 15 43  1  0
 15 16  2  0
 16 17  1  0
 16 61  1  0
 17 18  1  0
 17 20  1  0
 17 62  1  1
 18 19  1  0
 19 63  1  0
 19 64  1  0
 19 65  1  0
 21 20  1  1
 21 35  1  0
 21 22  1  0
 21 43  1  0
 22 23  1  0
 22 66  1  0
 22 67  1  0
 23 24  1  0
 23 68  1  0
 23 69  1  0
 24 25  1  0
 24 26  2  3
 25 70  1  0
 25 71  1  0
 25 72  1  0
 26 37  1  0
 26 27  1  0
 27 28  2  0
 27 29  1  0
 29 38  1  0
 29 41  1  1
 29 30  1  0
 30 31  1  0
 30 73  1  0
 30 74  1  0
 31 37  1  0
 31 32  1  1
 31 33  1  0
 32 75  1  0
 32 76  1  0
 32 77  1  0
 33 34  1  0
 33 78  1  0
 33 79  1  0
 34 35  1  0
 34 36  1  0
 34 80  1  1
 36 37  1  0
 36 38  1  0
 36 81  1  6
 37 82  1  6
 38 39  1  0
 38 83  1  6
 39 40  2  0
 39 41  1  0
 40 84  1  0
 40 85  1  0
 41 42  2  0
 43 44  1  0
 43 86  1  1
 44 45  1  6
 45 87  1  0
 45 88  1  0
 45 89  1  0
M  END
>  <i_m_ct_stereo_status>  (147) 
1

>  <s_m_source_file>  (147) 
/var/tmp/pbs.5076255.sched01/tmpy176o0g7/39stoh4b52.sdf

>  <i_m_source_file_index>  (147) 
27

>  <i_lp_mmshare_version>  (147) 
48012

>  <i_f3d_flags>  (147) 
0

>  <s_epik_input>  (147) 
W0NIMl09QzFbQ0gyXVtDSDJdW0NAQEhdKFtPSF0pT1tDQEhdMUMoPVtDSF1bQ0hdPTIpW0NAQF0zKFtDSDNdKUMyW0NIMl1bQ0gyXUMoPVtDSF1bQ0BIXShPNClPW0NIM10pW0NASF0zW0NAXTQ1W0NIMl1bQ0gyXS9DKFtDSDNdKT1DLzZbQ0BIXTdbQ0BAXTgoW0NIM10pW0NIMl1bQ0BAXTkoQzY9TylbQ0BIXShDKD1bQ0gyXSlDOT1PKVtDQEBIXTdbQ0BASF0oTzUpW0NIMl04

>  <s_epik_cmdline>  (147) 
J2VwaWtfcHl0aG9uJywgJy1waHQnLCAnMi4wJywgJy1waCcsICc3LjAnLCAnLXRuJywgJzgnLCAnLW1hJywgJzIwMCcsICctaW1hZScsICc8aW5maWxlLm1hZT4nLCAnLW9tYWUnLCAnPG91dGZpbGUubWFlPic=

>  <r_lp_tautomer_probability>  (147) 
1

>  <r_epik_Ionization_Penalty>  (147) 
1.18422e-07

>  <r_epik_Ionization_Penalty_Charging>  (147) 
0

>  <r_epik_Ionization_Penalty_Neutral>  (147) 
1.18422e-07

>  <r_epik_State_Penalty>  (147) 
-0

>  <r_epik_Charging_Adjusted_Penalty>  (147) 
0

>  <i_epik_Tot_Q>  (147) 
0

>  <i_epik_Tot_abs_Q>  (147) 
0

>  <s_epik_Chemistry_Notes>  (147) 
This compound contains an acetal/aminal-like group ( X-CH(R)-Y where X, Y are N, S, or O) that may be acid/base labile, releasing an aldehyde.

>  <s_lp_Force_Field>  (147) 
OPLS3e

>  <r_lp_Energy>  (147) 
145.95

>  <b_lp_Chiralities_Consistent>  (147) 
1

>  <s_lp_Variant>  (147) 
52:0-1

>  <s_i_glide_gridfile>  (147) 
pfpi4k_grid

>  <i_i_glide_lignum>  (147) 
27

>  <i_i_glide_rotatable_bonds>  (147) 
3

>  <r_i_docking_score>  (147) 
-2.72864

>  <r_i_glide_ligand_efficiency>  (147) 
-0.0606364

>  <r_i_glide_ligand_efficiency_sa>  (147) 
-0.215677

>  <r_i_glide_ligand_efficiency_ln>  (147) 
-0.567678

>  <r_i_glide_gscore>  (147) 
-2.72864

>  <r_i_glide_lipo>  (147) 
-0.427832

>  <r_i_glide_hbond>  (147) 
-0.16

>  <r_i_glide_metal>  (147) 
-0

>  <r_i_glide_rewards>  (147) 
0

>  <r_i_glide_evdw>  (147) 
-23.6406

>  <r_i_glide_ecoul>  (147) 
-6.33338

>  <r_i_glide_erotb>  (147) 
0.0560975

>  <r_i_glide_esite>  (147) 
-0.0648646

>  <r_i_glide_emodel>  (147) 
-33.4767

>  <r_i_glide_energy>  (147) 
-29.974

>  <r_i_glide_einternal>  (147) 
2.7638

>  <r_i_glide_intrahb_reward>  (147) 
-0

>  <i_i_glide_confnum>  (147) 
3

>  <i_i_glide_posenum>  (147) 
14

>  <r_i_glide_eff_state_penalty>  (147) 
0

>  <ligand_id>  (147) 
52

>  <original_smiles>  (147) 
C=C1CCC(O)OC1C1=CC=C2CCC3=CC(OC)OC4(CCC(C)=C5C(=O)C67CC8(C)CC(O4)C(C58)C6C(=C)C7=O)C3C21C

>  <smiles>  (147) 
[H]OC1([H])OC([H])(C2=C([H])C([H])=C3C([H])([H])C([H])([H])C4=C([H])C([H])(OC([H])([H])[H])OC5(OC6([H])C([H])([H])C7(C([H])([H])[H])C([H])([H])C89C(=O)C(=C([H])[H])C8([H])C6([H])C7([H])C(=C(C([H])([H])[H])C([H])([H])C5([H])[H])C9=O)C4([H])C23C([H])([H])[H])C(=C([H])[H])C([H])([H])C1([H])[H]

$$$$
52:0:1
     RDKit          3D

 89 97  0  0  1  0  0  0  0  0999 V2000
    1.3712    5.6262    3.2505 C   0  0  0  0  0  0  0  0  0  0  0  0
    2.3857    5.0920    3.9428 C   0  0  0  0  0  0  0  0  0  0  0  0
    3.6398    5.9243    4.2231 C   0  0  0  0  0  0  0  0  0  0  0  0
    4.2848    5.6579    5.5927 C   0  0  0  0  0  0  0  0  0  0  0  0
    4.3663    4.1704    5.8094 C   0  0  1  0  0  0  0  0  0  0  0  0
    4.9985    3.8930    7.0276 O   0  0  0  0  0  0  0  0  0  0  0  0
    3.0523    3.7311    5.8165 O   0  0  0  0  0  0  0  0  0  0  0  0
    2.3706    3.6846    4.5644 C   0  0  1  0  0  0  0  0  0  0  0  0
    0.9463    3.1169    4.7612 C   0  0  0  0  0  0  0  0  0  0  0  0
    0.2208    2.4763    3.8096 C   0  0  0  0  0  0  0  0  0  0  0  0
   -1.1397    2.3905    4.2525 C   0  0  0  0  0  0  0  0  0  0  0  0
   -1.2344    2.9662    5.4599 C   0  0  0  0  0  0  0  0  0  0  0  0
   -2.4663    3.0919    6.3331 C   0  0  0  0  0  0  0  0  0  0  0  0
   -2.1231    3.3078    7.8235 C   0  0  0  0  0  0  0  0  0  0  0  0
   -0.8423    2.5956    8.2276 C   0  0  0  0  0  0  0  0  0  0  0  0
   -0.8029    1.8109    9.3067 C   0  0  0  0  0  0  0  0  0  0  0  0
    0.3834    0.9178    9.6064 C   0  0  1  0  0  0  0  0  0  0  0  0
   -0.0413   -0.3322   10.0576 O   0  0  0  0  0  0  0  0  0  0  0  0
   -0.3283   -0.3721   11.4525 C   0  0  0  0  0  0  0  0  0  0  0  0
    1.3458    0.7844    8.5811 O   0  0  0  0  0  0  0  0  0  0  0  0
    1.0344    1.1864    7.2535 C   0  0  2  0  0  0  0  0  0  0  0  0
    0.0204    0.1320    6.5296 C   0  0  0  0  0  0  0  0  0  0  0  0
   -0.1104   -1.3945    6.9786 C   0  0  0  0  0  0  0  0  0  0  0  0
    0.6245   -2.5649    6.2284 C   0  0  0  0  0  0  0  0  0  0  0  0
   -0.3117   -3.5790    5.6122 C   0  0  0  0  0  0  0  0  0  0  0  0
    1.9767   -2.6249    6.1629 C   0  0  0  0  0  0  0  0  0  0  0  0
    2.8754   -3.4788    5.3136 C   0  0  0  0  0  0  0  0  0  0  0  0
    2.6356   -4.6273    4.9478 O   0  0  0  0  0  0  0  0  0  0  0  0
    4.0827   -2.6081    4.9784 C   0  0  2  0  0  0  0  0  0  0  0  0
    4.9108   -2.3695    6.2713 C   0  0  0  0  0  0  0  0  0  0  0  0
    4.0890   -1.4800    7.2288 C   0  0  1  0  0  0  0  0  0  0  0  0
    4.1873   -2.0140    8.6783 C   0  0  0  0  0  0  0  0  0  0  0  0
    4.3773    0.0544    7.1923 C   0  0  0  0  0  0  0  0  0  0  0  0
    3.4348    0.6613    6.1246 C   0  0  2  0  0  0  0  0  0  0  0  0
    2.2716    1.4401    6.5610 O   0  0  0  0  0  0  0  0  0  0  0  0
    2.8217   -0.4856    5.4294 C   0  0  2  0  0  0  0  0  0  0  0  0
    2.6719   -1.3956    6.6735 C   0  0  1  0  0  0  0  0  0  0  0  0
    3.4991   -1.3248    4.3320 C   0  0  1  0  0  0  0  0  0  0  0  0
    4.8750   -1.2490    3.6996 C   0  0  0  0  0  0  0  0  0  0  0  0
    5.6842   -0.3046    3.2127 C   0  0  0  0  0  0  0  0  0  0  0  0
    4.9829   -2.7043    3.7463 C   0  0  0  0  0  0  0  0  0  0  0  0
    5.4172   -3.4922    2.9199 O   0  0  0  0  0  0  0  0  0  0  0  0
    0.3970    2.6548    7.3418 C   0  0  1  0  0  0  0  0  0  0  0  0
    0.0987    3.4410    5.9997 C   0  0  1  0  0  0  0  0  0  0  0  0
    0.0777    4.9800    6.2075 C   0  0  0  0  0  0  0  0  0  0  0  0
    0.4728    5.0796    3.0148 H   0  0  0  0  0  0  0  0  0  0  0  0
    1.4102    6.6442    2.8784 H   0  0  0  0  0  0  0  0  0  0  0  0
    4.3544    5.7436    3.4226 H   0  0  0  0  0  0  0  0  0  0  0  0
    3.3851    6.9814    4.1525 H   0  0  0  0  0  0  0  0  0  0  0  0
    5.2876    6.0905    5.6507 H   0  0  0  0  0  0  0  0  0  0  0  0
    3.6894    6.0850    6.4003 H   0  0  0  0  0  0  0  0  0  0  0  0
    4.9249    3.6592    5.0439 H   0  0  0  0  0  0  0  0  0  0  0  0
    5.0372    2.9546    7.1354 H   0  0  0  0  0  0  0  0  0  0  0  0
    2.9199    3.0336    3.8815 H   0  0  0  0  0  0  0  0  0  0  0  0
    0.5772    2.2304    2.8164 H   0  0  0  0  0  0  0  0  0  0  0  0
   -1.9576    1.9481    3.6914 H   0  0  0  0  0  0  0  0  0  0  0  0
   -3.0994    3.9011    5.9687 H   0  0  0  0  0  0  0  0  0  0  0  0
   -3.0322    2.1690    6.2304 H   0  0  0  0  0  0  0  0  0  0  0  0
   -2.0321    4.3650    8.0601 H   0  0  0  0  0  0  0  0  0  0  0  0
   -2.9544    2.9689    8.4454 H   0  0  0  0  0  0  0  0  0  0  0  0
   -1.6651    1.7508    9.9541 H   0  0  0  0  0  0  0  0  0  0  0  0
    0.9150    1.4191   10.4147 H   0  0  0  0  0  0  0  0  0  0  0  0
   -0.8506   -1.3001   11.6826 H   0  0  0  0  0  0  0  0  0  0  0  0
   -0.9693    0.4564   11.7677 H   0  0  0  0  0  0  0  0  0  0  0  0
    0.5858   -0.3383   12.0488 H   0  0  0  0  0  0  0  0  0  0  0  0
   -0.9758    0.5118    6.7413 H   0  0  0  0  0  0  0  0  0  0  0  0
    0.0278    0.2298    5.4449 H   0  0  0  0  0  0  0  0  0  0  0  0
    0.0645   -1.5199    8.0456 H   0  0  0  0  0  0  0  0  0  0  0  0
   -1.1605   -1.6408    6.8427 H   0  0  0  0  0  0  0  0  0  0  0  0
   -0.9366   -4.0423    6.3775 H   0  0  0  0  0  0  0  0  0  0  0  0
    0.2006   -4.3826    5.0838 H   0  0  0  0  0  0  0  0  0  0  0  0
   -0.9626   -3.0605    4.9020 H   0  0  0  0  0  0  0  0  0  0  0  0
    5.1539   -3.3229    6.7393 H   0  0  0  0  0  0  0  0  0  0  0  0
    5.8814   -1.9012    6.0651 H   0  0  0  0  0  0  0  0  0  0  0  0
    3.6777   -1.3605    9.3910 H   0  0  0  0  0  0  0  0  0  0  0  0
    5.2321   -2.0988    8.9921 H   0  0  0  0  0  0  0  0  0  0  0  0
    3.7351   -3.0055    8.7648 H   0  0  0  0  0  0  0  0  0  0  0  0
    4.1766    0.5383    8.1477 H   0  0  0  0  0  0  0  0  0  0  0  0
    5.4236    0.2492    6.9619 H   0  0  0  0  0  0  0  0  0  0  0  0
    4.0107    1.2686    5.4311 H   0  0  0  0  0  0  0  0  0  0  0  0
    1.9164   -0.1585    4.9630 H   0  0  0  0  0  0  0  0  0  0  0  0
    2.1484   -1.0036    7.5146 H   0  0  0  0  0  0  0  0  0  0  0  0
    2.7516   -1.5871    3.5649 H   0  0  0  0  0  0  0  0  0  0  0  0
    5.3723    0.7251    3.2720 H   0  0  0  0  0  0  0  0  0  0  0  0
    6.6315   -0.5424    2.7317 H   0  0  0  0  0  0  0  0  0  0  0  0
    1.1283    3.2534    7.8800 H   0  0  0  0  0  0  0  0  0  0  0  0
   -0.2985    5.4882    5.3245 H   0  0  0  0  0  0  0  0  0  0  0  0
    1.0746    5.3588    6.4125 H   0  0  0  0  0  0  0  0  0  0  0  0
   -0.5414    5.3269    7.0218 H   0  0  0  0  0  0  0  0  0  0  0  0
  1  2  2  0
  1 46  1  0
  1 47  1  0
  2  8  1  0
  2  3  1  0
  3  4  1  0
  3 48  1  0
  3 49  1  0
  4  5  1  0
  4 50  1  0
  4 51  1  0
  5  6  1  0
  5  7  1  0
  5 52  1  6
  6 53  1  0
  7  8  1  0
  8  9  1  0
  8 54  1  6
  9 44  1  0
  9 10  2  0
 10 11  1  0
 10 55  1  0
 11 12  2  0
 11 56  1  0
 12 44  1  0
 12 13  1  0
 13 14  1  0
 13 57  1  0
 13 58  1  0
 14 15  1  0
 14 59  1  0
 14 60  1  0
 15 43  1  0
 15 16  2  0
 16 17  1  0
 16 61  1  0
 17 18  1  0
 17 20  1  0
 17 62  1  1
 18 19  1  0
 19 63  1  0
 19 64  1  0
 19 65  1  0
 21 20  1  1
 21 35  1  0
 21 22  1  0
 21 43  1  0
 22 23  1  0
 22 66  1  0
 22 67  1  0
 23 24  1  0
 23 68  1  0
 23 69  1  0
 24 25  1  0
 24 26  2  3
 25 70  1  0
 25 71  1  0
 25 72  1  0
 26 37  1  0
 26 27  1  0
 27 28  2  0
 27 29  1  0
 29 38  1  0
 29 41  1  6
 29 30  1  0
 30 31  1  0
 30 73  1  0
 30 74  1  0
 31 37  1  0
 31 32  1  1
 31 33  1  0
 32 75  1  0
 32 76  1  0
 32 77  1  0
 33 34  1  0
 33 78  1  0
 33 79  1  0
 34 35  1  0
 34 36  1  0
 34 80  1  6
 36 37  1  0
 36 38  1  0
 36 81  1  6
 37 82  1  1
 38 39  1  0
 38 83  1  6
 39 40  2  0
 39 41  1  0
 40 84  1  0
 40 85  1  0
 41 42  2  0
 43 44  1  0
 43 86  1  1
 44 45  1  1
 45 87  1  0
 45 88  1  0
 45 89  1  0
M  END
>  <i_m_ct_stereo_status>  (148) 
1

>  <s_m_source_file>  (148) 
/var/tmp/pbs.5076255.sched01/tmpy176o0g7/39stoh4b52.sdf

>  <i_m_source_file_index>  (148) 
27

>  <i_lp_mmshare_version>  (148) 
48012

>  <i_f3d_flags>  (148) 
0

>  <s_epik_input>  (148) 
W0NIMl09QzFbQ0gyXVtDSDJdW0NAQEhdKFtPSF0pT1tDQEhdMUMoPVtDSF1bQ0hdPTIpW0NAQF0zKFtDSDNdKUMyW0NIMl1bQ0gyXUMoPVtDSF1bQ0BIXShPNClPW0NIM10pW0NASF0zW0NAXTQ1W0NIMl1bQ0gyXS9DKFtDSDNdKT1DLzZbQ0BIXTdbQ0BAXTgoW0NIM10pW0NIMl1bQ0BAXTkoQzY9TylbQ0BIXShDKD1bQ0gyXSlDOT1PKVtDQEBIXTdbQ0BASF0oTzUpW0NIMl04

>  <s_epik_cmdline>  (148) 
J2VwaWtfcHl0aG9uJywgJy1waHQnLCAnMi4wJywgJy1waCcsICc3LjAnLCAnLXRuJywgJzgnLCAnLW1hJywgJzIwMCcsICctaW1hZScsICc8aW5maWxlLm1hZT4nLCAnLW9tYWUnLCAnPG91dGZpbGUubWFlPic=

>  <r_lp_tautomer_probability>  (148) 
1

>  <r_epik_Ionization_Penalty>  (148) 
1.18422e-07

>  <r_epik_Ionization_Penalty_Charging>  (148) 
0

>  <r_epik_Ionization_Penalty_Neutral>  (148) 
1.18422e-07

>  <r_epik_State_Penalty>  (148) 
-0

>  <r_epik_Charging_Adjusted_Penalty>  (148) 
0

>  <i_epik_Tot_Q>  (148) 
0

>  <i_epik_Tot_abs_Q>  (148) 
0

>  <s_epik_Chemistry_Notes>  (148) 
This compound contains an acetal/aminal-like group ( X-CH(R)-Y where X, Y are N, S, or O) that may be acid/base labile, releasing an aldehyde.

>  <s_lp_Force_Field>  (148) 
OPLS3e

>  <r_lp_Energy>  (148) 
145.95

>  <b_lp_Chiralities_Consistent>  (148) 
1

>  <s_lp_Variant>  (148) 
52:0-1

>  <s_i_glide_gridfile>  (148) 
pfpi4k_grid

>  <i_i_glide_lignum>  (148) 
27

>  <i_i_glide_rotatable_bonds>  (148) 
3

>  <r_i_docking_score>  (148) 
-1.85925

>  <r_i_glide_ligand_efficiency>  (148) 
-0.0413168

>  <r_i_glide_ligand_efficiency_sa>  (148) 
-0.146959

>  <r_i_glide_ligand_efficiency_ln>  (148) 
-0.386808

>  <r_i_glide_gscore>  (148) 
-1.85925

>  <r_i_glide_lipo>  (148) 
-0.375533

>  <r_i_glide_hbond>  (148) 
0

>  <r_i_glide_metal>  (148) 
-0

>  <r_i_glide_rewards>  (148) 
-0.0634464

>  <r_i_glide_evdw>  (148) 
-23.1553

>  <r_i_glide_ecoul>  (148) 
-2.01582

>  <r_i_glide_erotb>  (148) 
0.0560975

>  <r_i_glide_esite>  (148) 
-0.0162349

>  <r_i_glide_emodel>  (148) 
-27.0878

>  <r_i_glide_energy>  (148) 
-25.1711

>  <r_i_glide_einternal>  (148) 
1.83273

>  <r_i_glide_intrahb_reward>  (148) 
-0

>  <i_i_glide_confnum>  (148) 
3

>  <i_i_glide_posenum>  (148) 
21

>  <r_i_glide_eff_state_penalty>  (148) 
0

>  <ligand_id>  (148) 
52

>  <original_smiles>  (148) 
C=C1CCC(O)OC1C1=CC=C2CCC3=CC(OC)OC4(CCC(C)=C5C(=O)C67CC8(C)CC(O4)C(C58)C6C(=C)C7=O)C3C21C

>  <smiles>  (148) 
[H]OC1([H])OC([H])(C2=C([H])C([H])=C3C([H])([H])C([H])([H])C4=C([H])C([H])(OC([H])([H])[H])OC5(OC6([H])C([H])([H])C7(C([H])([H])[H])C([H])([H])C89C(=O)C(=C([H])[H])C8([H])C6([H])C7([H])C(=C(C([H])([H])[H])C([H])([H])C5([H])[H])C9=O)C4([H])C23C([H])([H])[H])C(=C([H])[H])C([H])([H])C1([H])[H]

$$$$
52:0:2
     RDKit          3D

 89 97  0  0  1  0  0  0  0  0999 V2000
   -0.1422   -9.8589    6.7689 C   0  0  0  0  0  0  0  0  0  0  0  0
    0.5089   -8.8127    7.3213 C   0  0  0  0  0  0  0  0  0  0  0  0
    0.6470   -8.7144    8.8336 C   0  0  0  0  0  0  0  0  0  0  0  0
    1.9736   -8.1102    9.3145 C   0  0  0  0  0  0  0  0  0  0  0  0
    2.2724   -6.8762    8.4616 C   0  0  1  0  0  0  0  0  0  0  0  0
    3.4546   -6.2787    8.9279 O   0  0  0  0  0  0  0  0  0  0  0  0
    2.3990   -7.3286    7.1889 O   0  0  0  0  0  0  0  0  0  0  0  0
    1.2164   -7.7186    6.5073 C   0  0  1  0  0  0  0  0  0  0  0  0
    1.5321   -8.1551    5.0461 C   0  0  0  0  0  0  0  0  0  0  0  0
    0.6858   -8.0984    4.0152 C   0  0  0  0  0  0  0  0  0  0  0  0
    1.2399   -8.8568    2.9144 C   0  0  0  0  0  0  0  0  0  0  0  0
    2.4187   -9.3518    3.3050 C   0  0  0  0  0  0  0  0  0  0  0  0
    3.3919  -10.1991    2.4870 C   0  0  0  0  0  0  0  0  0  0  0  0
    4.8389  -10.1205    3.0334 C   0  0  0  0  0  0  0  0  0  0  0  0
    5.1682   -8.7616    3.6411 C   0  0  0  0  0  0  0  0  0  0  0  0
    6.2622   -8.0969    3.2831 C   0  0  0  0  0  0  0  0  0  0  0  0
    6.5103   -6.6693    3.7116 C   0  0  1  0  0  0  0  0  0  0  0  0
    7.0625   -5.9321    2.6677 O   0  0  0  0  0  0  0  0  0  0  0  0
    8.4657   -6.1091    2.4903 C   0  0  0  0  0  0  0  0  0  0  0  0
    5.4097   -5.9926    4.2951 O   0  0  0  0  0  0  0  0  0  0  0  0
    4.0963   -6.5266    4.1777 C   0  0  2  0  0  0  0  0  0  0  0  0
    3.5036   -6.3279    2.6562 C   0  0  0  0  0  0  0  0  0  0  0  0
    4.0322   -5.1923    1.6533 C   0  0  0  0  0  0  0  0  0  0  0  0
    3.2706   -3.8420    1.4520 C   0  0  0  0  0  0  0  0  0  0  0  0
    2.7716   -3.6059    0.0301 C   0  0  0  0  0  0  0  0  0  0  0  0
    3.0980   -2.9716    2.4749 C   0  0  0  0  0  0  0  0  0  0  0  0
    2.2094   -1.7350    2.6081 C   0  0  0  0  0  0  0  0  0  0  0  0
    1.9565   -0.9656    1.6833 O   0  0  0  0  0  0  0  0  0  0  0  0
    1.7534   -1.6965    4.0395 C   0  0  2  0  0  0  0  0  0  0  0  0
    2.9409   -1.3545    4.9623 C   0  0  0  0  0  0  0  0  0  0  0  0
    3.9388   -2.5512    4.9433 C   0  0  1  0  0  0  0  0  0  0  0  0
    5.3886   -2.0384    4.8258 C   0  0  0  0  0  0  0  0  0  0  0  0
    3.8085   -3.5836    6.1023 C   0  0  0  0  0  0  0  0  0  0  0  0
    2.7991   -4.6678    5.6297 C   0  0  2  0  0  0  0  0  0  0  0  0
    3.2930   -5.9853    5.2378 O   0  0  0  0  0  0  0  0  0  0  0  0
    2.2051   -4.1319    4.3922 C   0  0  2  0  0  0  0  0  0  0  0  0
    3.4961   -3.4901    3.8218 C   0  0  1  0  0  0  0  0  0  0  0  0
    1.0895   -3.0853    4.3043 C   0  0  1  0  0  0  0  0  0  0  0  0
    0.3242   -2.3005    5.3753 C   0  0  0  0  0  0  0  0  0  0  0  0
   -0.2593   -2.5804    6.5580 C   0  0  0  0  0  0  0  0  0  0  0  0
    0.4237   -1.1076    4.5889 C   0  0  0  0  0  0  0  0  0  0  0  0
   -0.3493   -0.1507    4.4151 O   0  0  0  0  0  0  0  0  0  0  0  0
    4.1737   -8.0766    4.5703 C   0  0  1  0  0  0  0  0  0  0  0  0
    2.8264   -8.9042    4.6986 C   0  0  1  0  0  0  0  0  0  0  0  0
    2.9709  -10.1246    5.6392 C   0  0  0  0  0  0  0  0  0  0  0  0
   -0.2192   -9.9820    5.6928 H   0  0  0  0  0  0  0  0  0  0  0  0
   -0.5470  -10.6539    7.3616 H   0  0  0  0  0  0  0  0  0  0  0  0
   -0.1860   -8.1236    9.2114 H   0  0  0  0  0  0  0  0  0  0  0  0
    0.5646   -9.7184    9.2652 H   0  0  0  0  0  0  0  0  0  0  0  0
    1.9314   -7.8427   10.3682 H   0  0  0  0  0  0  0  0  0  0  0  0
    2.7971   -8.8122    9.1761 H   0  0  0  0  0  0  0  0  0  0  0  0
    1.4820   -6.1204    8.5591 H   0  0  0  0  0  0  0  0  0  0  0  0
    4.1386   -6.9071    8.8284 H   0  0  0  0  0  0  0  0  0  0  0  0
    0.5171   -6.8731    6.4615 H   0  0  0  0  0  0  0  0  0  0  0  0
   -0.3124   -7.6994    4.0411 H   0  0  0  0  0  0  0  0  0  0  0  0
    0.7702   -9.0252    1.9576 H   0  0  0  0  0  0  0  0  0  0  0  0
    3.0558  -11.2408    2.4814 H   0  0  0  0  0  0  0  0  0  0  0  0
    3.3598   -9.8499    1.4526 H   0  0  0  0  0  0  0  0  0  0  0  0
    5.0140  -10.9015    3.7715 H   0  0  0  0  0  0  0  0  0  0  0  0
    5.5355  -10.3589    2.2258 H   0  0  0  0  0  0  0  0  0  0  0  0
    6.9749   -8.5595    2.6076 H   0  0  0  0  0  0  0  0  0  0  0  0
    7.2529   -6.7230    4.5189 H   0  0  0  0  0  0  0  0  0  0  0  0
    8.7638   -5.6754    1.5366 H   0  0  0  0  0  0  0  0  0  0  0  0
    8.7627   -7.1583    2.4787 H   0  0  0  0  0  0  0  0  0  0  0  0
    9.0206   -5.6057    3.2845 H   0  0  0  0  0  0  0  0  0  0  0  0
    3.7874   -7.2309    2.1254 H   0  0  0  0  0  0  0  0  0  0  0  0
    2.4298   -6.4157    2.6283 H   0  0  0  0  0  0  0  0  0  0  0  0
    5.0816   -4.9720    1.8185 H   0  0  0  0  0  0  0  0  0  0  0  0
    4.0304   -5.6649    0.6666 H   0  0  0  0  0  0  0  0  0  0  0  0
    3.6159   -3.6034   -0.6607 H   0  0  0  0  0  0  0  0  0  0  0  0
    2.2456   -2.6635   -0.0927 H   0  0  0  0  0  0  0  0  0  0  0  0
    2.1015   -4.4113   -0.2709 H   0  0  0  0  0  0  0  0  0  0  0  0
    3.4346   -0.4457    4.6089 H   0  0  0  0  0  0  0  0  0  0  0  0
    2.6462   -1.1356    5.9868 H   0  0  0  0  0  0  0  0  0  0  0  0
    6.0974   -2.8649    4.9040 H   0  0  0  0  0  0  0  0  0  0  0  0
    5.6204   -1.3267    5.6210 H   0  0  0  0  0  0  0  0  0  0  0  0
    5.5558   -1.5372    3.8703 H   0  0  0  0  0  0  0  0  0  0  0  0
    4.7587   -4.0730    6.3249 H   0  0  0  0  0  0  0  0  0  0  0  0
    3.4880   -3.1041    7.0300 H   0  0  0  0  0  0  0  0  0  0  0  0
    2.0367   -4.8020    6.3957 H   0  0  0  0  0  0  0  0  0  0  0  0
    1.8004   -4.9605    3.8282 H   0  0  0  0  0  0  0  0  0  0  0  0
    4.3649   -4.1113    3.7249 H   0  0  0  0  0  0  0  0  0  0  0  0
    0.4065   -3.3448    3.4935 H   0  0  0  0  0  0  0  0  0  0  0  0
   -0.2212   -3.5885    6.9572 H   0  0  0  0  0  0  0  0  0  0  0  0
   -0.7819   -1.8058    7.1022 H   0  0  0  0  0  0  0  0  0  0  0  0
    4.6243   -8.0913    5.5625 H   0  0  0  0  0  0  0  0  0  0  0  0
    2.1023  -10.7767    5.5818 H   0  0  0  0  0  0  0  0  0  0  0  0
    3.0745   -9.8178    6.6776 H   0  0  0  0  0  0  0  0  0  0  0  0
    3.8149  -10.7673    5.4412 H   0  0  0  0  0  0  0  0  0  0  0  0
  1  2  2  0
  1 46  1  0
  1 47  1  0
  2  8  1  0
  2  3  1  0
  3  4  1  0
  3 48  1  0
  3 49  1  0
  4  5  1  0
  4 50  1  0
  4 51  1  0
  5  6  1  0
  5  7  1  0
  5 52  1  6
  6 53  1  0
  7  8  1  0
  8  9  1  0
  8 54  1  6
  9 44  1  0
  9 10  2  0
 10 11  1  0
 10 55  1  0
 11 12  2  0
 11 56  1  0
 12 44  1  0
 12 13  1  0
 13 14  1  0
 13 57  1  0
 13 58  1  0
 14 15  1  0
 14 59  1  0
 14 60  1  0
 15 43  1  0
 15 16  2  0
 16 17  1  0
 16 61  1  0
 17 18  1  0
 17 20  1  0
 17 62  1  1
 18 19  1  0
 19 63  1  0
 19 64  1  0
 19 65  1  0
 21 20  1  6
 21 35  1  0
 21 22  1  0
 21 43  1  0
 22 23  1  0
 22 66  1  0
 22 67  1  0
 23 24  1  0
 23 68  1  0
 23 69  1  0
 24 25  1  0
 24 26  2  3
 25 70  1  0
 25 71  1  0
 25 72  1  0
 26 37  1  0
 26 27  1  0
 27 28  2  0
 27 29  1  0
 29 38  1  0
 29 41  1  6
 29 30  1  0
 30 31  1  0
 30 73  1  0
 30 74  1  0
 31 37  1  0
 31 32  1  6
 31 33  1  0
 32 75  1  0
 32 76  1  0
 32 77  1  0
 33 34  1  0
 33 78  1  0
 33 79  1  0
 34 35  1  0
 34 36  1  0
 34 80  1  1
 36 37  1  0
 36 38  1  0
 36 81  1  6
 37 82  1  6
 38 39  1  0
 38 83  1  6
 39 40  2  0
 39 41  1  0
 40 84  1  0
 40 85  1  0
 41 42  2  0
 43 44  1  0
 43 86  1  1
 44 45  1  1
 45 87  1  0
 45 88  1  0
 45 89  1  0
M  END
>  <i_m_ct_stereo_status>  (149) 
1

>  <s_m_source_file>  (149) 
/var/tmp/pbs.5076255.sched01/tmpy176o0g7/39stoh4b52.sdf

>  <i_m_source_file_index>  (149) 
27

>  <i_lp_mmshare_version>  (149) 
48012

>  <i_f3d_flags>  (149) 
0

>  <s_epik_input>  (149) 
W0NIMl09QzFbQ0gyXVtDSDJdW0NAQEhdKFtPSF0pT1tDQEhdMUMoPVtDSF1bQ0hdPTIpW0NAQF0zKFtDSDNdKUMyW0NIMl1bQ0gyXUMoPVtDSF1bQ0BIXShPNClPW0NIM10pW0NASF0zW0NAXTQ1W0NIMl1bQ0gyXS9DKFtDSDNdKT1DLzZbQ0BIXTdbQ0BAXTgoW0NIM10pW0NIMl1bQ0BAXTkoQzY9TylbQ0BIXShDKD1bQ0gyXSlDOT1PKVtDQEBIXTdbQ0BASF0oTzUpW0NIMl04

>  <s_epik_cmdline>  (149) 
J2VwaWtfcHl0aG9uJywgJy1waHQnLCAnMi4wJywgJy1waCcsICc3LjAnLCAnLXRuJywgJzgnLCAnLW1hJywgJzIwMCcsICctaW1hZScsICc8aW5maWxlLm1hZT4nLCAnLW9tYWUnLCAnPG91dGZpbGUubWFlPic=

>  <r_lp_tautomer_probability>  (149) 
1

>  <r_epik_Ionization_Penalty>  (149) 
1.18422e-07

>  <r_epik_Ionization_Penalty_Charging>  (149) 
0

>  <r_epik_Ionization_Penalty_Neutral>  (149) 
1.18422e-07

>  <r_epik_State_Penalty>  (149) 
-0

>  <r_epik_Charging_Adjusted_Penalty>  (149) 
0

>  <i_epik_Tot_Q>  (149) 
0

>  <i_epik_Tot_abs_Q>  (149) 
0

>  <s_epik_Chemistry_Notes>  (149) 
This compound contains an acetal/aminal-like group ( X-CH(R)-Y where X, Y are N, S, or O) that may be acid/base labile, releasing an aldehyde.

>  <s_lp_Force_Field>  (149) 
OPLS3e

>  <r_lp_Energy>  (149) 
145.95

>  <b_lp_Chiralities_Consistent>  (149) 
1

>  <s_lp_Variant>  (149) 
52:0-1

>  <s_i_glide_gridfile>  (149) 
pfpi4k_grid

>  <i_i_glide_lignum>  (149) 
27

>  <i_i_glide_rotatable_bonds>  (149) 
3

>  <r_i_docking_score>  (149) 
-1.27388

>  <r_i_glide_ligand_efficiency>  (149) 
-0.0283084

>  <r_i_glide_ligand_efficiency_sa>  (149) 
-0.10069

>  <r_i_glide_ligand_efficiency_ln>  (149) 
-0.265023

>  <r_i_glide_gscore>  (149) 
-1.27388

>  <r_i_glide_lipo>  (149) 
-0.0776241

>  <r_i_glide_hbond>  (149) 
0

>  <r_i_glide_metal>  (149) 
-0

>  <r_i_glide_rewards>  (149) 
-0.000967481

>  <r_i_glide_evdw>  (149) 
-26.9078

>  <r_i_glide_ecoul>  (149) 
0.771288

>  <r_i_glide_erotb>  (149) 
0.0560975

>  <r_i_glide_esite>  (149) 
-0.0216881

>  <r_i_glide_emodel>  (149) 
-27.1533

>  <r_i_glide_energy>  (149) 
-26.1365

>  <r_i_glide_einternal>  (149) 
1.4733

>  <r_i_glide_intrahb_reward>  (149) 
-0

>  <i_i_glide_confnum>  (149) 
1

>  <i_i_glide_posenum>  (149) 
13

>  <r_i_glide_eff_state_penalty>  (149) 
0

>  <ligand_id>  (149) 
52

>  <original_smiles>  (149) 
C=C1CCC(O)OC1C1=CC=C2CCC3=CC(OC)OC4(CCC(C)=C5C(=O)C67CC8(C)CC(O4)C(C58)C6C(=C)C7=O)C3C21C

>  <smiles>  (149) 
[H]OC1([H])OC([H])(C2=C([H])C([H])=C3C([H])([H])C([H])([H])C4=C([H])C([H])(OC([H])([H])[H])OC5(OC6([H])C([H])([H])C7(C([H])([H])[H])C([H])([H])C89C(=O)C(=C([H])[H])C8([H])C6([H])C7([H])C(=C(C([H])([H])[H])C([H])([H])C5([H])[H])C9=O)C4([H])C23C([H])([H])[H])C(=C([H])[H])C([H])([H])C1([H])[H]

$$$$
53:0:0
     RDKit          3D

 76 82  0  0  1  0  0  0  0  0999 V2000
    1.8793   -9.1817    9.9297 C   0  0  0  0  0  0  0  0  0  0  0  0
    1.7104   -9.0708    8.4010 C   0  0  2  0  0  0  0  0  0  0  0  0
    2.8511   -8.2615    7.7640 C   0  0  0  0  0  0  0  0  0  0  0  0
    2.5886   -8.0195    6.2715 C   0  0  0  0  0  0  0  0  0  0  0  0
    1.1944   -7.4212    6.0434 C   0  0  1  0  0  0  0  0  0  0  0  0
    0.2116   -8.2734    6.6240 O   0  0  0  0  0  0  0  0  0  0  0  0
    0.3504   -8.4438    8.0300 C   0  0  0  0  0  0  0  0  0  0  0  0
    1.1270   -6.0534    6.5620 O   0  0  0  0  0  0  0  0  0  0  0  0
    0.2393   -5.7253    5.5033 C   0  0  1  0  0  0  0  0  0  0  0  0
    0.6377   -4.4046    4.8617 C   0  0  0  0  0  0  0  0  0  0  0  0
    1.3003   -4.8202    3.5299 C   0  0  1  0  0  0  0  0  0  0  0  0
    2.4000   -3.9481    2.8949 C   0  0  1  0  0  0  0  0  0  0  0  0
    3.4680   -3.4451    3.8875 C   0  0  0  0  0  0  0  0  0  0  0  0
    4.8209   -3.1175    3.2282 C   0  0  0  0  0  0  0  0  0  0  0  0
    4.7545   -2.7013    1.7417 C   0  0  2  0  0  0  0  0  0  0  0  0
    4.3057   -1.2515    1.4278 C   0  0  0  0  0  0  0  0  0  0  0  0
    3.3112   -0.5635    2.3897 C   0  0  0  0  0  0  0  0  0  0  0  0
    5.5094   -0.3178    1.2242 C   0  0  0  0  0  0  0  0  0  0  0  0
    3.6771   -1.3617    0.1738 O   0  0  0  0  0  0  0  0  0  0  0  0
    3.0795   -2.6410    0.0132 C   0  0  1  0  0  0  0  0  0  0  0  0
    2.9548   -2.8875   -1.5061 C   0  0  0  0  0  0  0  0  0  0  0  0
    4.3395   -2.8723   -2.1425 C   0  0  0  0  0  0  0  0  0  0  0  0
    4.5575   -2.2777   -3.2083 O   0  0  0  0  0  0  0  0  0  0  0  0
    5.4360   -3.6456   -1.4205 C   0  0  1  0  0  0  0  0  0  0  0  0
    6.5323   -2.8026   -1.0959 O   0  0  0  0  0  0  0  0  0  0  0  0
    4.8894   -4.4451   -0.1992 C   0  0  1  0  0  0  0  0  0  0  0  0
    5.9995   -5.2848    0.4696 C   0  0  0  0  0  0  0  0  0  0  0  0
    3.9469   -3.6669    0.8131 C   0  0  1  0  0  0  0  0  0  0  0  0
    3.0425   -4.6082    1.6710 C   0  0  0  0  0  0  0  0  0  0  0  0
    2.8614   -5.9384    1.4450 C   0  0  0  0  0  0  0  0  0  0  0  0
    2.0476   -6.8927    2.3310 C   0  0  0  0  0  0  0  0  0  0  0  0
    1.7466   -6.2691    3.7084 C   0  0  2  0  0  0  0  0  0  0  0  0
    0.7070   -6.9137    4.6687 C   0  0  1  0  0  0  0  0  0  0  0  0
   -0.3838   -7.6794    3.9223 C   0  0  0  0  0  0  0  0  0  0  0  0
    1.8663   -8.1929   10.3974 H   0  0  0  0  0  0  0  0  0  0  0  0
    2.8266   -9.6510   10.1881 H   0  0  0  0  0  0  0  0  0  0  0  0
    1.0865   -9.7675   10.3703 H   0  0  0  0  0  0  0  0  0  0  0  0
    1.7437  -10.0815    7.9808 H   0  0  0  0  0  0  0  0  0  0  0  0
    2.9303   -7.2938    8.2664 H   0  0  0  0  0  0  0  0  0  0  0  0
    3.8093   -8.7699    7.9096 H   0  0  0  0  0  0  0  0  0  0  0  0
    3.3832   -7.3744    5.8922 H   0  0  0  0  0  0  0  0  0  0  0  0
    2.6773   -8.9684    5.7389 H   0  0  0  0  0  0  0  0  0  0  0  0
   -0.4610   -9.0758    8.3957 H   0  0  0  0  0  0  0  0  0  0  0  0
    0.2300   -7.4755    8.5182 H   0  0  0  0  0  0  0  0  0  0  0  0
   -0.8176   -5.7977    5.8072 H   0  0  0  0  0  0  0  0  0  0  0  0
   -0.2105   -3.7501    4.6732 H   0  0  0  0  0  0  0  0  0  0  0  0
    1.3261   -3.8634    5.5081 H   0  0  0  0  0  0  0  0  0  0  0  0
    0.4836   -4.8695    2.8094 H   0  0  0  0  0  0  0  0  0  0  0  0
    1.8615   -3.0706    2.5278 H   0  0  0  0  0  0  0  0  0  0  0  0
    3.0854   -2.5748    4.4168 H   0  0  0  0  0  0  0  0  0  0  0  0
    3.6465   -4.1930    4.6633 H   0  0  0  0  0  0  0  0  0  0  0  0
    5.3485   -2.3624    3.8121 H   0  0  0  0  0  0  0  0  0  0  0  0
    5.4360   -4.0128    3.2884 H   0  0  0  0  0  0  0  0  0  0  0  0
    5.7874   -2.7445    1.4132 H   0  0  0  0  0  0  0  0  0  0  0  0
    3.6889   -0.5181    3.4064 H   0  0  0  0  0  0  0  0  0  0  0  0
    2.3349   -1.0448    2.3975 H   0  0  0  0  0  0  0  0  0  0  0  0
    3.1257    0.4623    2.0720 H   0  0  0  0  0  0  0  0  0  0  0  0
    6.1898   -0.6887    0.4598 H   0  0  0  0  0  0  0  0  0  0  0  0
    6.0724   -0.1926    2.1470 H   0  0  0  0  0  0  0  0  0  0  0  0
    5.1624    0.6529    0.8821 H   0  0  0  0  0  0  0  0  0  0  0  0
    2.0733   -2.5890    0.4386 H   0  0  0  0  0  0  0  0  0  0  0  0
    2.4836   -3.8451   -1.7030 H   0  0  0  0  0  0  0  0  0  0  0  0
    2.3384   -2.1212   -1.9643 H   0  0  0  0  0  0  0  0  0  0  0  0
    5.8093   -4.3555   -2.1499 H   0  0  0  0  0  0  0  0  0  0  0  0
    7.2217   -3.3287   -0.7547 H   0  0  0  0  0  0  0  0  0  0  0  0
    4.2534   -5.1677   -0.7009 H   0  0  0  0  0  0  0  0  0  0  0  0
    6.7997   -4.6726    0.8964 H   0  0  0  0  0  0  0  0  0  0  0  0
    6.4582   -5.9229   -0.2760 H   0  0  0  0  0  0  0  0  0  0  0  0
    5.6210   -5.9335    1.2550 H   0  0  0  0  0  0  0  0  0  0  0  0
    3.3014   -6.4409    0.5986 H   0  0  0  0  0  0  0  0  0  0  0  0
    1.1446   -7.1647    1.7806 H   0  0  0  0  0  0  0  0  0  0  0  0
    2.6242   -7.8075    2.4728 H   0  0  0  0  0  0  0  0  0  0  0  0
    2.6988   -6.2220    4.2277 H   0  0  0  0  0  0  0  0  0  0  0  0
   -0.8307   -7.0804    3.1282 H   0  0  0  0  0  0  0  0  0  0  0  0
   -1.2131   -7.9503    4.5857 H   0  0  0  0  0  0  0  0  0  0  0  0
   -0.0231   -8.6093    3.4841 H   0  0  0  0  0  0  0  0  0  0  0  0
  1  2  1  0
  1 35  1  0
  1 36  1  0
  1 37  1  0
  2  7  1  0
  2  3  1  0
  2 38  1  6
  3  4  1  0
  3 39  1  0
  3 40  1  0
  4  5  1  0
  4 41  1  0
  4 42  1  0
  5 33  1  0
  5  6  1  1
  5  8  1  0
  6  7  1  0
  7 43  1  0
  7 44  1  0
  8  9  1  0
  9 33  1  0
  9 10  1  0
  9 45  1  1
 10 11  1  0
 10 46  1  0
 10 47  1  0
 11 32  1  0
 11 12  1  0
 11 48  1  6
 12 29  1  0
 12 13  1  0
 12 49  1  6
 13 14  1  0
 13 50  1  0
 13 51  1  0
 14 15  1  0
 14 52  1  0
 14 53  1  0
 15 28  1  0
 15 16  1  0
 15 54  1  6
 16 17  1  0
 16 18  1  0
 16 19  1  0
 17 55  1  0
 17 56  1  0
 17 57  1  0
 18 58  1  0
 18 59  1  0
 18 60  1  0
 19 20  1  0
 20 28  1  0
 20 21  1  0
 20 61  1  1
 21 22  1  0
 21 62  1  0
 21 63  1  0
 22 23  2  0
 22 24  1  0
 24 25  1  0
 24 26  1  0
 24 64  1  6
 25 65  1  0
 26 27  1  0
 26 28  1  0
 26 66  1  6
 27 67  1  0
 27 68  1  0
 27 69  1  0
 28 29  1  1
 29 30  2  0
 30 31  1  0
 30 70  1  0
 31 32  1  0
 31 71  1  0
 31 72  1  0
 32 33  1  0
 32 73  1  1
 33 34  1  6
 34 74  1  0
 34 75  1  0
 34 76  1  0
M  END
>  <i_m_ct_stereo_status>  (150) 
1

>  <s_m_source_file>  (150) 
/var/tmp/pbs.5076255.sched01/tmpy176o0g7/39stoh4b52.sdf

>  <i_m_source_file_index>  (150) 
29

>  <i_lp_mmshare_version>  (150) 
48012

>  <i_f3d_flags>  (150) 
0

>  <s_epik_input>  (150) 
TzFbQ0gyXVtDQEhdKFtDSDNdKVtDSDJdW0NIMl1bQ0BAXTEyW0NAQF0zKFtDSDNdKVtDQEBIXShPMilbQ0gyXVtDQEhdNFtDQEBIXTVDKD1bQ0hdW0NIMl1bQ0BIXTM0KVtDQF02N1tDQEhdKFtDSDJdW0NIMl01KUMoW0NIM10pKFtDSDNdKU9bQ0BIXTZbQ0gyXUMoPU8pW0NAQEhdKFtPSF0pW0NASF03W0NIM10=

>  <s_epik_cmdline>  (150) 
J2VwaWtfcHl0aG9uJywgJy1waHQnLCAnMi4wJywgJy1waCcsICc3LjAnLCAnLXRuJywgJzgnLCAnLW1hJywgJzIwMCcsICctaW1hZScsICc8aW5maWxlLm1hZT4nLCAnLW9tYWUnLCAnPG91dGZpbGUubWFlPic=

>  <r_lp_tautomer_probability>  (150) 
1

>  <r_epik_Ionization_Penalty>  (150) 
7.20439e-08

>  <r_epik_Ionization_Penalty_Charging>  (150) 
0

>  <r_epik_Ionization_Penalty_Neutral>  (150) 
7.20439e-08

>  <r_epik_State_Penalty>  (150) 
-0

>  <r_epik_Charging_Adjusted_Penalty>  (150) 
0

>  <i_epik_Tot_Q>  (150) 
0

>  <i_epik_Tot_abs_Q>  (150) 
0

>  <s_lp_Force_Field>  (150) 
OPLS3e

>  <r_lp_Energy>  (150) 
48.4622

>  <b_lp_Chiralities_Consistent>  (150) 
1

>  <s_lp_Variant>  (150) 
53:0-1

>  <s_i_glide_gridfile>  (150) 
pfpi4k_grid

>  <i_i_glide_lignum>  (150) 
29

>  <i_i_glide_rotatable_bonds>  (150) 
1

>  <r_i_docking_score>  (150) 
-2.47025

>  <r_i_glide_ligand_efficiency>  (150) 
-0.0726543

>  <r_i_glide_ligand_efficiency_sa>  (150) 
-0.235372

>  <r_i_glide_ligand_efficiency_ln>  (150) 
-0.545747

>  <r_i_glide_gscore>  (150) 
-2.47025

>  <r_i_glide_lipo>  (150) 
-0.417572

>  <r_i_glide_hbond>  (150) 
0

>  <r_i_glide_metal>  (150) 
-0

>  <r_i_glide_rewards>  (150) 
-0.200176

>  <r_i_glide_evdw>  (150) 
-26.6023

>  <r_i_glide_ecoul>  (150) 
-3.41959

>  <r_i_glide_erotb>  (150) 
0

>  <r_i_glide_esite>  (150) 
-0.009443

>  <r_i_glide_emodel>  (150) 
-34.2387

>  <r_i_glide_energy>  (150) 
-30.0219

>  <r_i_glide_einternal>  (150) 
0.0021913

>  <r_i_glide_intrahb_reward>  (150) 
-0

>  <i_i_glide_confnum>  (150) 
2

>  <i_i_glide_posenum>  (150) 
11

>  <r_i_glide_eff_state_penalty>  (150) 
0

>  <ligand_id>  (150) 
53

>  <original_smiles>  (150) 
CC1CCC2(OC1)OC1CC3C4CCC5C(C)(C)OC6CC(=O)C(O)C(C)C65C4=CCC3C12C

>  <smiles>  (150) 
[H]OC1([H])C(=O)C([H])([H])C2([H])OC(C([H])([H])[H])(C([H])([H])[H])C3([H])C([H])([H])C([H])([H])C4([H])C(=C([H])C([H])([H])C5([H])C4([H])C([H])([H])C4([H])OC6(OC([H])([H])C([H])(C([H])([H])[H])C([H])([H])C6([H])[H])C45C([H])([H])[H])C23C1([H])C([H])([H])[H]

$$$$
53:0:1
     RDKit          3D

 76 82  0  0  1  0  0  0  0  0999 V2000
    1.2859   -9.1939    9.9556 C   0  0  0  0  0  0  0  0  0  0  0  0
    1.5635   -9.2373    8.4386 C   0  0  2  0  0  0  0  0  0  0  0  0
    2.6547   -8.2237    8.0511 C   0  0  0  0  0  0  0  0  0  0  0  0
    2.8186   -8.1423    6.5275 C   0  0  0  0  0  0  0  0  0  0  0  0
    1.4703   -7.8899    5.8390 C   0  0  1  0  0  0  0  0  0  0  0  0
    0.5419   -8.9022    6.2186 O   0  0  0  0  0  0  0  0  0  0  0  0
    0.2842   -8.9706    7.6175 C   0  0  0  0  0  0  0  0  0  0  0  0
    0.9849   -6.5587    6.1395 O   0  0  0  0  0  0  0  0  0  0  0  0
    0.3982   -6.5030    4.8272 C   0  0  1  0  0  0  0  0  0  0  0  0
    0.7482   -5.1709    4.2052 C   0  0  0  0  0  0  0  0  0  0  0  0
    1.8047   -5.5152    3.1477 C   0  0  1  0  0  0  0  0  0  0  0  0
    2.8376   -4.4430    2.7349 C   0  0  1  0  0  0  0  0  0  0  0  0
    3.4237   -3.6521    3.9136 C   0  0  0  0  0  0  0  0  0  0  0  0
    4.8094   -3.0506    3.6277 C   0  0  0  0  0  0  0  0  0  0  0  0
    5.1144   -2.7657    2.1431 C   0  0  2  0  0  0  0  0  0  0  0  0
    4.4988   -1.4740    1.5354 C   0  0  0  0  0  0  0  0  0  0  0  0
    3.1438   -0.9844    2.0731 C   0  0  0  0  0  0  0  0  0  0  0  0
    5.4828   -0.3020    1.5486 C   0  0  0  0  0  0  0  0  0  0  0  0
    4.3099   -1.8095    0.1786 O   0  0  0  0  0  0  0  0  0  0  0  0
    4.0526   -3.2060    0.0402 C   0  0  1  0  0  0  0  0  0  0  0  0
    4.4478   -3.5740   -1.3941 C   0  0  0  0  0  0  0  0  0  0  0  0
    5.9194   -3.3001   -1.6277 C   0  0  0  0  0  0  0  0  0  0  0  0
    6.2895   -2.8862   -2.7234 O   0  0  0  0  0  0  0  0  0  0  0  0
    6.9031   -3.6379   -0.5033 C   0  0  1  0  0  0  0  0  0  0  0  0
    7.4782   -2.4655    0.0337 O   0  0  0  0  0  0  0  0  0  0  0  0
    6.1953   -4.5378    0.5504 C   0  0  1  0  0  0  0  0  0  0  0  0
    7.2105   -5.0700    1.5754 C   0  0  0  0  0  0  0  0  0  0  0  0
    4.8470   -3.9418    1.1646 C   0  0  1  0  0  0  0  0  0  0  0  0
    3.9469   -5.0313    1.8444 C   0  0  0  0  0  0  0  0  0  0  0  0
    4.1132   -6.3649    1.7516 C   0  0  0  0  0  0  0  0  0  0  0  0
    3.2870   -7.4245    2.4780 C   0  0  0  0  0  0  0  0  0  0  0  0
    2.4573   -6.8058    3.6251 C   0  0  2  0  0  0  0  0  0  0  0  0
    1.3498   -7.6071    4.3283 C   0  0  1  0  0  0  0  0  0  0  0  0
    0.6980   -8.6597    3.4096 C   0  0  0  0  0  0  0  0  0  0  0  0
    0.9232   -8.2180   10.2707 H   0  0  0  0  0  0  0  0  0  0  0  0
    2.1811   -9.4140   10.5335 H   0  0  0  0  0  0  0  0  0  0  0  0
    0.5381   -9.9302   10.2403 H   0  0  0  0  0  0  0  0  0  0  0  0
    1.9290  -10.2309    8.1708 H   0  0  0  0  0  0  0  0  0  0  0  0
    2.3736   -7.2374    8.4134 H   0  0  0  0  0  0  0  0  0  0  0  0
    3.6065   -8.4783    8.5202 H   0  0  0  0  0  0  0  0  0  0  0  0
    3.5382   -7.3539    6.3107 H   0  0  0  0  0  0  0  0  0  0  0  0
    3.2434   -9.0721    6.1624 H   0  0  0  0  0  0  0  0  0  0  0  0
   -0.4452   -9.7646    7.7986 H   0  0  0  0  0  0  0  0  0  0  0  0
   -0.1828   -8.0377    7.9189 H   0  0  0  0  0  0  0  0  0  0  0  0
   -0.6379   -6.8115    4.8211 H   0  0  0  0  0  0  0  0  0  0  0  0
   -0.1222   -4.7213    3.7092 H   0  0  0  0  0  0  0  0  0  0  0  0
    1.0960   -4.4684    4.9527 H   0  0  0  0  0  0  0  0  0  0  0  0
    1.2534   -5.7933    2.2483 H   0  0  0  0  0  0  0  0  0  0  0  0
    2.2776   -3.7568    2.1255 H   0  0  0  0  0  0  0  0  0  0  0  0
    2.7239   -2.8591    4.1936 H   0  0  0  0  0  0  0  0  0  0  0  0
    3.5081   -4.2802    4.8000 H   0  0  0  0  0  0  0  0  0  0  0  0
    4.9689   -2.1605    4.2291 H   0  0  0  0  0  0  0  0  0  0  0  0
    5.5477   -3.7758    3.9733 H   0  0  0  0  0  0  0  0  0  0  0  0
    6.1835   -2.5777    2.1358 H   0  0  0  0  0  0  0  0  0  0  0  0
    3.1801   -0.7822    3.1446 H   0  0  0  0  0  0  0  0  0  0  0  0
    2.3334   -1.6744    1.8715 H   0  0  0  0  0  0  0  0  0  0  0  0
    2.8591   -0.0501    1.5860 H   0  0  0  0  0  0  0  0  0  0  0  0
    6.4279   -0.5524    1.0758 H   0  0  0  0  0  0  0  0  0  0  0  0
    5.6996    0.0335    2.5663 H   0  0  0  0  0  0  0  0  0  0  0  0
    5.0635    0.5291    0.9794 H   0  0  0  0  0  0  0  0  0  0  0  0
    2.9779   -3.3497    0.1487 H   0  0  0  0  0  0  0  0  0  0  0  0
    4.2642   -4.6282   -1.5915 H   0  0  0  0  0  0  0  0  0  0  0  0
    3.8673   -2.9969   -2.1125 H   0  0  0  0  0  0  0  0  0  0  0  0
    7.7511   -4.1787   -0.9239 H   0  0  0  0  0  0  0  0  0  0  0  0
    7.8381   -2.6859    0.8910 H   0  0  0  0  0  0  0  0  0  0  0  0
    5.8984   -5.4106   -0.0306 H   0  0  0  0  0  0  0  0  0  0  0  0
    7.7234   -4.2505    2.0656 H   0  0  0  0  0  0  0  0  0  0  0  0
    7.9734   -5.6702    1.0786 H   0  0  0  0  0  0  0  0  0  0  0  0
    6.7560   -5.6965    2.3469 H   0  0  0  0  0  0  0  0  0  0  0  0
    4.8850   -6.8089    1.1359 H   0  0  0  0  0  0  0  0  0  0  0  0
    2.6639   -7.9218    1.7299 H   0  0  0  0  0  0  0  0  0  0  0  0
    3.9644   -8.1700    2.8966 H   0  0  0  0  0  0  0  0  0  0  0  0
    3.1720   -6.5059    4.3869 H   0  0  0  0  0  0  0  0  0  0  0  0
    0.4084   -8.2224    2.4520 H   0  0  0  0  0  0  0  0  0  0  0  0
   -0.2156   -9.0710    3.8361 H   0  0  0  0  0  0  0  0  0  0  0  0
    1.3643   -9.5018    3.2126 H   0  0  0  0  0  0  0  0  0  0  0  0
  1  2  1  0
  1 35  1  0
  1 36  1  0
  1 37  1  0
  2  7  1  0
  2  3  1  0
  2 38  1  6
  3  4  1  0
  3 39  1  0
  3 40  1  0
  4  5  1  0
  4 41  1  0
  4 42  1  0
  5 33  1  0
  5  6  1  1
  5  8  1  0
  6  7  1  0
  7 43  1  0
  7 44  1  0
  8  9  1  0
  9 33  1  0
  9 10  1  0
  9 45  1  1
 10 11  1  0
 10 46  1  0
 10 47  1  0
 11 32  1  0
 11 12  1  0
 11 48  1  6
 12 29  1  0
 12 13  1  0
 12 49  1  6
 13 14  1  0
 13 50  1  0
 13 51  1  0
 14 15  1  0
 14 52  1  0
 14 53  1  0
 15 28  1  0
 15 16  1  0
 15 54  1  1
 16 17  1  0
 16 18  1  0
 16 19  1  0
 17 55  1  0
 17 56  1  0
 17 57  1  0
 18 58  1  0
 18 59  1  0
 18 60  1  0
 19 20  1  0
 20 28  1  0
 20 21  1  0
 20 61  1  1
 21 22  1  0
 21 62  1  0
 21 63  1  0
 22 23  2  0
 22 24  1  0
 24 25  1  0
 24 26  1  0
 24 64  1  6
 25 65  1  0
 26 27  1  0
 26 28  1  0
 26 66  1  6
 27 67  1  0
 27 68  1  0
 27 69  1  0
 28 29  1  1
 29 30  2  0
 30 31  1  0
 30 70  1  0
 31 32  1  0
 31 71  1  0
 31 72  1  0
 32 33  1  0
 32 73  1  1
 33 34  1  6
 34 74  1  0
 34 75  1  0
 34 76  1  0
M  END
>  <i_m_ct_stereo_status>  (151) 
1

>  <s_m_source_file>  (151) 
/var/tmp/pbs.5076255.sched01/tmpy176o0g7/39stoh4b52.sdf

>  <i_m_source_file_index>  (151) 
29

>  <i_lp_mmshare_version>  (151) 
48012

>  <i_f3d_flags>  (151) 
0

>  <s_epik_input>  (151) 
TzFbQ0gyXVtDQEhdKFtDSDNdKVtDSDJdW0NIMl1bQ0BAXTEyW0NAQF0zKFtDSDNdKVtDQEBIXShPMilbQ0gyXVtDQEhdNFtDQEBIXTVDKD1bQ0hdW0NIMl1bQ0BIXTM0KVtDQF02N1tDQEhdKFtDSDJdW0NIMl01KUMoW0NIM10pKFtDSDNdKU9bQ0BIXTZbQ0gyXUMoPU8pW0NAQEhdKFtPSF0pW0NASF03W0NIM10=

>  <s_epik_cmdline>  (151) 
J2VwaWtfcHl0aG9uJywgJy1waHQnLCAnMi4wJywgJy1waCcsICc3LjAnLCAnLXRuJywgJzgnLCAnLW1hJywgJzIwMCcsICctaW1hZScsICc8aW5maWxlLm1hZT4nLCAnLW9tYWUnLCAnPG91dGZpbGUubWFlPic=

>  <r_lp_tautomer_probability>  (151) 
1

>  <r_epik_Ionization_Penalty>  (151) 
7.20439e-08

>  <r_epik_Ionization_Penalty_Charging>  (151) 
0

>  <r_epik_Ionization_Penalty_Neutral>  (151) 
7.20439e-08

>  <r_epik_State_Penalty>  (151) 
-0

>  <r_epik_Charging_Adjusted_Penalty>  (151) 
0

>  <i_epik_Tot_Q>  (151) 
0

>  <i_epik_Tot_abs_Q>  (151) 
0

>  <s_lp_Force_Field>  (151) 
OPLS3e

>  <r_lp_Energy>  (151) 
48.4622

>  <b_lp_Chiralities_Consistent>  (151) 
1

>  <s_lp_Variant>  (151) 
53:0-1

>  <s_i_glide_gridfile>  (151) 
pfpi4k_grid

>  <i_i_glide_lignum>  (151) 
29

>  <i_i_glide_rotatable_bonds>  (151) 
1

>  <r_i_docking_score>  (151) 
-2.33895

>  <r_i_glide_ligand_efficiency>  (151) 
-0.0687927

>  <r_i_glide_ligand_efficiency_sa>  (151) 
-0.222862

>  <r_i_glide_ligand_efficiency_ln>  (151) 
-0.51674

>  <r_i_glide_gscore>  (151) 
-2.33895

>  <r_i_glide_lipo>  (151) 
-0.615632

>  <r_i_glide_hbond>  (151) 
0

>  <r_i_glide_metal>  (151) 
-0

>  <r_i_glide_rewards>  (151) 
-0.394355

>  <r_i_glide_evdw>  (151) 
-22.5974

>  <r_i_glide_ecoul>  (151) 
-1.25153

>  <r_i_glide_erotb>  (151) 
0

>  <r_i_glide_esite>  (151) 
-0.0113633

>  <r_i_glide_emodel>  (151) 
-26.4521

>  <r_i_glide_energy>  (151) 
-23.849

>  <r_i_glide_einternal>  (151) 
1.90755

>  <r_i_glide_intrahb_reward>  (151) 
-0

>  <i_i_glide_confnum>  (151) 
2

>  <i_i_glide_posenum>  (151) 
2

>  <r_i_glide_eff_state_penalty>  (151) 
0

>  <ligand_id>  (151) 
53

>  <original_smiles>  (151) 
CC1CCC2(OC1)OC1CC3C4CCC5C(C)(C)OC6CC(=O)C(O)C(C)C65C4=CCC3C12C

>  <smiles>  (151) 
[H]OC1([H])C(=O)C([H])([H])C2([H])OC(C([H])([H])[H])(C([H])([H])[H])C3([H])C([H])([H])C([H])([H])C4([H])C(=C([H])C([H])([H])C5([H])C4([H])C([H])([H])C4([H])OC6(OC([H])([H])C([H])(C([H])([H])[H])C([H])([H])C6([H])[H])C45C([H])([H])[H])C23C1([H])C([H])([H])[H]

$$$$
53:0:2
     RDKit          3D

 76 82  0  0  1  0  0  0  0  0999 V2000
   -1.4014   -9.5013    2.2099 C   0  0  0  0  0  0  0  0  0  0  0  0
   -0.3801   -8.7282    3.0581 C   0  0  2  0  0  0  0  0  0  0  0  0
   -0.9161   -7.3372    3.4462 C   0  0  0  0  0  0  0  0  0  0  0  0
    0.1664   -6.4920    4.1397 C   0  0  0  0  0  0  0  0  0  0  0  0
    1.4580   -6.4566    3.3091 C   0  0  1  0  0  0  0  0  0  0  0  0
    1.9008   -7.7910    3.0641 O   0  0  0  0  0  0  0  0  0  0  0  0
    0.9726   -8.5817    2.3229 C   0  0  0  0  0  0  0  0  0  0  0  0
    1.2555   -5.6646    2.0828 O   0  0  0  0  0  0  0  0  0  0  0  0
    2.6111   -5.2438    2.1764 C   0  0  1  0  0  0  0  0  0  0  0  0
    2.7173   -3.7516    1.9325 C   0  0  0  0  0  0  0  0  0  0  0  0
    2.9279   -3.1464    3.3404 C   0  0  1  0  0  0  0  0  0  0  0  0
    2.4112   -1.7264    3.6659 C   0  0  1  0  0  0  0  0  0  0  0  0
    0.9854   -1.4299    3.1580 C   0  0  0  0  0  0  0  0  0  0  0  0
    0.2675   -0.3171    3.9504 C   0  0  0  0  0  0  0  0  0  0  0  0
    1.1898    0.7256    4.6270 C   0  0  2  0  0  0  0  0  0  0  0  0
    1.7824    1.8415    3.7160 C   0  0  0  0  0  0  0  0  0  0  0  0
    2.0651    1.4902    2.2404 C   0  0  0  0  0  0  0  0  0  0  0  0
    0.9489    3.1341    3.7605 C   0  0  0  0  0  0  0  0  0  0  0  0
    3.0147    2.1321    4.3347 O   0  0  0  0  0  0  0  0  0  0  0  0
    3.5451    0.9877    4.9849 C   0  0  1  0  0  0  0  0  0  0  0  0
    4.5054    1.5137    6.0690 C   0  0  0  0  0  0  0  0  0  0  0  0
    3.7387    2.3789    7.0617 C   0  0  0  0  0  0  0  0  0  0  0  0
    4.1865    3.4515    7.4514 O   0  0  0  0  0  0  0  0  0  0  0  0
    2.4042    1.8362    7.5664 C   0  0  1  0  0  0  0  0  0  0  0  0
    1.3441    2.7230    7.2781 O   0  0  0  0  0  0  0  0  0  0  0  0
    2.1274    0.3994    7.0449 C   0  0  1  0  0  0  0  0  0  0  0  0
    0.8021   -0.1527    7.6218 C   0  0  0  0  0  0  0  0  0  0  0  0
    2.3390    0.1295    5.4923 C   0  0  1  0  0  0  0  0  0  0  0  0
    2.5591   -1.3776    5.1495 C   0  0  0  0  0  0  0  0  0  0  0  0
    2.7774   -2.3589    6.0582 C   0  0  0  0  0  0  0  0  0  0  0  0
    2.9085   -3.8553    5.7416 C   0  0  0  0  0  0  0  0  0  0  0  0
    2.3957   -4.1886    4.3243 C   0  0  2  0  0  0  0  0  0  0  0  0
    2.6549   -5.5678    3.6720 C   0  0  1  0  0  0  0  0  0  0  0  0
    3.9521   -6.2008    4.1766 C   0  0  0  0  0  0  0  0  0  0  0  0
   -1.6221   -8.9753    1.2848 H   0  0  0  0  0  0  0  0  0  0  0  0
   -2.3326   -9.6424    2.7505 H   0  0  0  0  0  0  0  0  0  0  0  0
   -1.0074  -10.4788    1.9421 H   0  0  0  0  0  0  0  0  0  0  0  0
   -0.1960   -9.2830    3.9855 H   0  0  0  0  0  0  0  0  0  0  0  0
   -1.2308   -6.8242    2.5330 H   0  0  0  0  0  0  0  0  0  0  0  0
   -1.8024   -7.4296    4.0774 H   0  0  0  0  0  0  0  0  0  0  0  0
   -0.2448   -5.5008    4.3197 H   0  0  0  0  0  0  0  0  0  0  0  0
    0.3692   -6.9292    5.1196 H   0  0  0  0  0  0  0  0  0  0  0  0
    1.4025   -9.5716    2.1434 H   0  0  0  0  0  0  0  0  0  0  0  0
    0.8295   -8.1302    1.3352 H   0  0  0  0  0  0  0  0  0  0  0  0
    3.2906   -5.8700    1.5948 H   0  0  0  0  0  0  0  0  0  0  0  0
    3.5562   -3.4910    1.2769 H   0  0  0  0  0  0  0  0  0  0  0  0
    1.8137   -3.3655    1.4642 H   0  0  0  0  0  0  0  0  0  0  0  0
    4.0134   -3.1347    3.4799 H   0  0  0  0  0  0  0  0  0  0  0  0
    3.0877   -1.0725    3.1242 H   0  0  0  0  0  0  0  0  0  0  0  0
    1.0260   -1.1712    2.1010 H   0  0  0  0  0  0  0  0  0  0  0  0
    0.3675   -2.3246    3.2147 H   0  0  0  0  0  0  0  0  0  0  0  0
   -0.4723    0.1745    3.3170 H   0  0  0  0  0  0  0  0  0  0  0  0
   -0.3061   -0.8021    4.7408 H   0  0  0  0  0  0  0  0  0  0  0  0
    0.5233    1.2578    5.3002 H   0  0  0  0  0  0  0  0  0  0  0  0
    1.1707    1.1613    1.7115 H   0  0  0  0  0  0  0  0  0  0  0  0
    2.8426    0.7412    2.1161 H   0  0  0  0  0  0  0  0  0  0  0  0
    2.4191    2.3757    1.7170 H   0  0  0  0  0  0  0  0  0  0  0  0
    0.8121    3.4999    4.7754 H   0  0  0  0  0  0  0  0  0  0  0  0
   -0.0351    2.9915    3.3168 H   0  0  0  0  0  0  0  0  0  0  0  0
    1.4430    3.9326    3.2033 H   0  0  0  0  0  0  0  0  0  0  0  0
    4.1326    0.4373    4.2477 H   0  0  0  0  0  0  0  0  0  0  0  0
    4.9770    0.6895    6.6046 H   0  0  0  0  0  0  0  0  0  0  0  0
    5.3045    2.1035    5.6234 H   0  0  0  0  0  0  0  0  0  0  0  0
    2.4833    1.7887    8.6515 H   0  0  0  0  0  0  0  0  0  0  0  0
    1.3431    2.8936    6.3566 H   0  0  0  0  0  0  0  0  0  0  0  0
    2.9099   -0.1554    7.5545 H   0  0  0  0  0  0  0  0  0  0  0  0
   -0.0679    0.4246    7.3038 H   0  0  0  0  0  0  0  0  0  0  0  0
    0.8298   -0.0943    8.7157 H   0  0  0  0  0  0  0  0  0  0  0  0
    0.6326   -1.1958    7.3574 H   0  0  0  0  0  0  0  0  0  0  0  0
    2.8911   -2.1623    7.1120 H   0  0  0  0  0  0  0  0  0  0  0  0
    3.9562   -4.1310    5.8794 H   0  0  0  0  0  0  0  0  0  0  0  0
    2.3251   -4.4176    6.4740 H   0  0  0  0  0  0  0  0  0  0  0  0
    1.3171   -4.0366    4.3617 H   0  0  0  0  0  0  0  0  0  0  0  0
    4.7943   -5.5101    4.1193 H   0  0  0  0  0  0  0  0  0  0  0  0
    4.2421   -7.0613    3.5653 H   0  0  0  0  0  0  0  0  0  0  0  0
    3.8776   -6.5584    5.2047 H   0  0  0  0  0  0  0  0  0  0  0  0
  1  2  1  0
  1 35  1  0
  1 36  1  0
  1 37  1  0
  2  7  1  0
  2  3  1  0
  2 38  1  1
  3  4  1  0
  3 39  1  0
  3 40  1  0
  4  5  1  0
  4 41  1  0
  4 42  1  0
  5 33  1  0
  5  6  1  6
  5  8  1  0
  6  7  1  0
  7 43  1  0
  7 44  1  0
  8  9  1  0
  9 33  1  0
  9 10  1  0
  9 45  1  6
 10 11  1  0
 10 46  1  0
 10 47  1  0
 11 32  1  0
 11 12  1  0
 11 48  1  1
 12 29  1  0
 12 13  1  0
 12 49  1  6
 13 14  1  0
 13 50  1  0
 13 51  1  0
 14 15  1  0
 14 52  1  0
 14 53  1  0
 15 28  1  0
 15 16  1  0
 15 54  1  1
 16 17  1  0
 16 18  1  0
 16 19  1  0
 17 55  1  0
 17 56  1  0
 17 57  1  0
 18 58  1  0
 18 59  1  0
 18 60  1  0
 19 20  1  0
 20 28  1  0
 20 21  1  0
 20 61  1  6
 21 22  1  0
 21 62  1  0
 21 63  1  0
 22 23  2  0
 22 24  1  0
 24 25  1  0
 24 26  1  0
 24 64  1  1
 25 65  1  0
 26 27  1  0
 26 28  1  0
 26 66  1  1
 27 67  1  0
 27 68  1  0
 27 69  1  0
 28 29  1  1
 29 30  2  0
 30 31  1  0
 30 70  1  0
 31 32  1  0
 31 71  1  0
 31 72  1  0
 32 33  1  0
 32 73  1  1
 33 34  1  1
 34 74  1  0
 34 75  1  0
 34 76  1  0
M  END
>  <i_m_ct_stereo_status>  (152) 
1

>  <s_m_source_file>  (152) 
/var/tmp/pbs.5076255.sched01/tmpy176o0g7/39stoh4b52.sdf

>  <i_m_source_file_index>  (152) 
29

>  <i_lp_mmshare_version>  (152) 
48012

>  <i_f3d_flags>  (152) 
0

>  <s_epik_input>  (152) 
TzFbQ0gyXVtDQEhdKFtDSDNdKVtDSDJdW0NIMl1bQ0BAXTEyW0NAQF0zKFtDSDNdKVtDQEBIXShPMilbQ0gyXVtDQEhdNFtDQEBIXTVDKD1bQ0hdW0NIMl1bQ0BIXTM0KVtDQF02N1tDQEhdKFtDSDJdW0NIMl01KUMoW0NIM10pKFtDSDNdKU9bQ0BIXTZbQ0gyXUMoPU8pW0NAQEhdKFtPSF0pW0NASF03W0NIM10=

>  <s_epik_cmdline>  (152) 
J2VwaWtfcHl0aG9uJywgJy1waHQnLCAnMi4wJywgJy1waCcsICc3LjAnLCAnLXRuJywgJzgnLCAnLW1hJywgJzIwMCcsICctaW1hZScsICc8aW5maWxlLm1hZT4nLCAnLW9tYWUnLCAnPG91dGZpbGUubWFlPic=

>  <r_lp_tautomer_probability>  (152) 
1

>  <r_epik_Ionization_Penalty>  (152) 
7.20439e-08

>  <r_epik_Ionization_Penalty_Charging>  (152) 
0

>  <r_epik_Ionization_Penalty_Neutral>  (152) 
7.20439e-08

>  <r_epik_State_Penalty>  (152) 
-0

>  <r_epik_Charging_Adjusted_Penalty>  (152) 
0

>  <i_epik_Tot_Q>  (152) 
0

>  <i_epik_Tot_abs_Q>  (152) 
0

>  <s_lp_Force_Field>  (152) 
OPLS3e

>  <r_lp_Energy>  (152) 
48.4622

>  <b_lp_Chiralities_Consistent>  (152) 
1

>  <s_lp_Variant>  (152) 
53:0-1

>  <s_i_glide_gridfile>  (152) 
pfpi4k_grid

>  <i_i_glide_lignum>  (152) 
29

>  <i_i_glide_rotatable_bonds>  (152) 
1

>  <r_i_docking_score>  (152) 
-1.79452

>  <r_i_glide_ligand_efficiency>  (152) 
-0.05278

>  <r_i_glide_ligand_efficiency_sa>  (152) 
-0.170987

>  <r_i_glide_ligand_efficiency_ln>  (152) 
-0.396459

>  <r_i_glide_gscore>  (152) 
-1.79452

>  <r_i_glide_lipo>  (152) 
-0.267203

>  <r_i_glide_hbond>  (152) 
-0.0688678

>  <r_i_glide_metal>  (152) 
-0

>  <r_i_glide_rewards>  (152) 
-0.200176

>  <r_i_glide_evdw>  (152) 
-20.1724

>  <r_i_glide_ecoul>  (152) 
-1.55709

>  <r_i_glide_erotb>  (152) 
0

>  <r_i_glide_esite>  (152) 
-0.0160887

>  <r_i_glide_emodel>  (152) 
-24.0114

>  <r_i_glide_energy>  (152) 
-21.7295

>  <r_i_glide_einternal>  (152) 
1.27427

>  <r_i_glide_intrahb_reward>  (152) 
-0

>  <i_i_glide_confnum>  (152) 
1

>  <i_i_glide_posenum>  (152) 
5

>  <r_i_glide_eff_state_penalty>  (152) 
0

>  <ligand_id>  (152) 
53

>  <original_smiles>  (152) 
CC1CCC2(OC1)OC1CC3C4CCC5C(C)(C)OC6CC(=O)C(O)C(C)C65C4=CCC3C12C

>  <smiles>  (152) 
[H]OC1([H])C(=O)C([H])([H])C2([H])OC(C([H])([H])[H])(C([H])([H])[H])C3([H])C([H])([H])C([H])([H])C4([H])C(=C([H])C([H])([H])C5([H])C4([H])C([H])([H])C4([H])OC6(OC([H])([H])C([H])(C([H])([H])[H])C([H])([H])C6([H])[H])C45C([H])([H])[H])C23C1([H])C([H])([H])[H]

$$$$
54:0:0
     RDKit          3D

 94 99  0  0  1  0  0  0  0  0999 V2000
   -2.2771    3.1545    7.0909 C   0  0  0  0  0  0  0  0  0  0  0  0
   -1.2791    2.4695    6.3310 O   0  0  0  0  0  0  0  0  0  0  0  0
    0.0639    2.9614    6.1413 C   0  0  1  0  0  0  0  0  0  0  0  0
   -0.1434    4.5160    5.9245 C   0  0  0  0  0  0  0  0  0  0  0  0
    0.9579    2.8077    7.4331 C   0  0  1  0  0  0  0  0  0  0  0  0
    0.1444    2.6253    8.5979 O   0  0  0  0  0  0  0  0  0  0  0  0
    0.8994    2.0324    9.6265 C   0  0  0  0  0  0  0  0  0  0  0  0
    1.5840    3.1140   10.4885 C   0  0  0  0  0  0  0  0  0  0  0  0
   -0.0258    1.2039   10.5426 C   0  0  0  0  0  0  0  0  0  0  0  0
    1.8531    1.1888    8.7743 C   0  0  1  0  0  0  0  0  0  0  0  0
    1.0937    0.1219    8.1383 O   0  0  0  0  0  0  0  0  0  0  0  0
    0.2337    0.1997    7.0084 C   0  0  0  0  0  0  0  0  0  0  0  0
   -0.9729    0.1410    7.2989 O   0  0  0  0  0  0  0  0  0  0  0  0
    0.7585    0.4098    5.4337 C   0  0  2  0  0  0  0  0  0  0  0  0
   -0.1298   -0.8423    5.1104 C   0  0  0  0  0  0  0  0  0  0  0  0
   -1.2237   -0.7606    4.5586 O   0  0  0  0  0  0  0  0  0  0  0  0
    0.3801   -2.1409    5.5271 O   0  0  0  0  0  0  0  0  0  0  0  0
    1.1724   -2.5046    6.6399 C   0  0  0  0  0  0  0  0  0  0  0  0
    0.4413   -3.6739    7.2918 C   0  0  0  0  0  0  0  0  0  0  0  0
    2.3407   -1.9528    7.1595 C   0  0  0  0  0  0  0  0  0  0  0  0
    2.8126   -2.4783    8.4474 C   0  0  0  0  0  0  0  0  0  0  0  0
    4.0683   -2.3280    8.9093 C   0  0  0  0  0  0  0  0  0  0  0  0
    4.4883   -2.8175   10.2840 C   0  0  0  0  0  0  0  0  0  0  0  0
    5.1523   -1.6534    8.0950 C   0  0  0  0  0  0  0  0  0  0  0  0
    4.7054   -1.3851    6.6471 C   0  0  0  0  0  0  0  0  0  0  0  0
    3.2491   -0.8362    6.5210 C   0  0  1  0  0  0  0  0  0  0  0  0
    2.9841   -0.8573    5.0828 C   0  0  0  0  0  0  0  0  0  0  0  0
    1.8882   -0.3367    4.5550 C   0  0  0  0  0  0  0  0  0  0  0  0
    1.7232   -0.7352    3.0407 C   0  0  0  0  0  0  0  0  0  0  0  0
    1.6640   -2.2527    2.7724 C   0  0  0  0  0  0  0  0  0  0  0  0
    2.8412   -0.2214    2.0815 C   0  0  0  0  0  0  0  0  0  0  0  0
    3.2999    0.7423    6.9046 C   0  0  0  0  0  0  0  0  0  0  0  0
    2.3585    1.9310    7.5676 C   0  0  1  0  0  0  0  0  0  0  0  0
    3.3279    3.1327    7.3840 C   0  0  1  0  0  0  0  0  0  0  0  0
    4.8192    2.9998    7.8036 C   0  0  0  0  0  0  0  0  0  0  0  0
    3.0320    3.6605    5.9131 C   0  0  1  0  0  0  0  0  0  0  0  0
    4.2259    4.1361    5.3224 O   0  0  0  0  0  0  0  0  0  0  0  0
    2.1719    2.8238    4.8099 C   0  0  1  0  0  0  0  0  0  0  0  0
    3.0980    2.1146    4.0383 O   0  0  0  0  0  0  0  0  0  0  0  0
    0.6944    2.0785    4.9599 C   0  0  2  0  0  0  0  0  0  0  0  0
   -0.1262    2.3931    3.5571 C   0  0  0  0  0  0  0  0  0  0  0  0
    0.5874    2.2006    2.1988 C   0  0  0  0  0  0  0  0  0  0  0  0
   -1.5650    1.8566    3.3888 C   0  0  0  0  0  0  0  0  0  0  0  0
   -0.3501    3.7666    3.3545 O   0  0  0  0  0  0  0  0  0  0  0  0
   -3.0183    2.4245    7.4089 H   0  0  0  0  0  0  0  0  0  0  0  0
   -2.8021    3.8715    6.4645 H   0  0  0  0  0  0  0  0  0  0  0  0
   -1.9066    3.6627    7.9792 H   0  0  0  0  0  0  0  0  0  0  0  0
    0.6324    4.9939    5.3387 H   0  0  0  0  0  0  0  0  0  0  0  0
   -0.2219    5.0841    6.8537 H   0  0  0  0  0  0  0  0  0  0  0  0
   -1.0682    4.7342    5.3966 H   0  0  0  0  0  0  0  0  0  0  0  0
    1.1655    3.8329    7.7186 H   0  0  0  0  0  0  0  0  0  0  0  0
    2.2251    2.6646   11.2452 H   0  0  0  0  0  0  0  0  0  0  0  0
    0.8383    3.7137   11.0116 H   0  0  0  0  0  0  0  0  0  0  0  0
    2.1909    3.8087    9.9200 H   0  0  0  0  0  0  0  0  0  0  0  0
    0.5448    0.6691   11.2992 H   0  0  0  0  0  0  0  0  0  0  0  0
   -0.6106    0.4696    9.9929 H   0  0  0  0  0  0  0  0  0  0  0  0
   -0.7340    1.8437   11.0712 H   0  0  0  0  0  0  0  0  0  0  0  0
    2.6512    0.7760    9.3892 H   0  0  0  0  0  0  0  0  0  0  0  0
    1.0769   -4.3401    7.8788 H   0  0  0  0  0  0  0  0  0  0  0  0
   -0.0181   -4.2996    6.5248 H   0  0  0  0  0  0  0  0  0  0  0  0
   -0.3592   -3.3053    7.9365 H   0  0  0  0  0  0  0  0  0  0  0  0
    2.1092   -2.9443    9.1200 H   0  0  0  0  0  0  0  0  0  0  0  0
    4.8819   -1.9934   10.8791 H   0  0  0  0  0  0  0  0  0  0  0  0
    5.2633   -3.5786   10.1951 H   0  0  0  0  0  0  0  0  0  0  0  0
    3.6456   -3.2532   10.8206 H   0  0  0  0  0  0  0  0  0  0  0  0
    5.4377   -0.7284    8.5959 H   0  0  0  0  0  0  0  0  0  0  0  0
    6.0359   -2.2899    8.0852 H   0  0  0  0  0  0  0  0  0  0  0  0
    5.4277   -0.7351    6.1457 H   0  0  0  0  0  0  0  0  0  0  0  0
    4.7701   -2.3438    6.1287 H   0  0  0  0  0  0  0  0  0  0  0  0
    3.6846   -1.3847    4.4535 H   0  0  0  0  0  0  0  0  0  0  0  0
    0.7381   -0.4489    2.6998 H   0  0  0  0  0  0  0  0  0  0  0  0
    0.7351   -2.7089    3.1156 H   0  0  0  0  0  0  0  0  0  0  0  0
    2.5053   -2.8089    3.1946 H   0  0  0  0  0  0  0  0  0  0  0  0
    1.6994   -2.4225    1.6962 H   0  0  0  0  0  0  0  0  0  0  0  0
    3.0446    0.8457    2.1162 H   0  0  0  0  0  0  0  0  0  0  0  0
    2.5387   -0.3934    1.0467 H   0  0  0  0  0  0  0  0  0  0  0  0
    3.7868   -0.7416    2.2239 H   0  0  0  0  0  0  0  0  0  0  0  0
    4.0317    0.6731    7.6997 H   0  0  0  0  0  0  0  0  0  0  0  0
    3.8926    1.1685    6.1013 H   0  0  0  0  0  0  0  0  0  0  0  0
    3.0849    3.9559    8.0477 H   0  0  0  0  0  0  0  0  0  0  0  0
    5.4212    2.3912    7.1276 H   0  0  0  0  0  0  0  0  0  0  0  0
    4.9049    2.5848    8.8107 H   0  0  0  0  0  0  0  0  0  0  0  0
    5.2919    3.9831    7.8335 H   0  0  0  0  0  0  0  0  0  0  0  0
    2.5141    4.5985    6.0800 H   0  0  0  0  0  0  0  0  0  0  0  0
    3.9914    4.6182    4.5395 H   0  0  0  0  0  0  0  0  0  0  0  0
    1.9687    3.6391    4.1228 H   0  0  0  0  0  0  0  0  0  0  0  0
    3.6241    2.7328    3.5463 H   0  0  0  0  0  0  0  0  0  0  0  0
    1.0259    1.2665    2.0035 H   0  0  0  0  0  0  0  0  0  0  0  0
    1.3648    2.9484    2.0102 H   0  0  0  0  0  0  0  0  0  0  0  0
   -0.1251    2.2563    1.3728 H   0  0  0  0  0  0  0  0  0  0  0  0
   -1.5710    0.8528    2.9779 H   0  0  0  0  0  0  0  0  0  0  0  0
   -2.1062    2.4190    2.6260 H   0  0  0  0  0  0  0  0  0  0  0  0
   -2.1904    1.8794    4.2773 H   0  0  0  0  0  0  0  0  0  0  0  0
   -0.1987    3.9816    2.4158 H   0  0  0  0  0  0  0  0  0  0  0  0
  1  2  1  0
  1 45  1  0
  1 46  1  0
  1 47  1  0
  3  2  1  1
  3 40  1  0
  3  4  1  0
  3  5  1  0
  4 48  1  0
  4 49  1  0
  4 50  1  0
  5 33  1  0
  5  6  1  0
  5 51  1  1
  6  7  1  0
  7  8  1  0
  7  9  1  0
  7 10  1  0
  8 52  1  0
  8 53  1  0
  8 54  1  0
  9 55  1  0
  9 56  1  0
  9 57  1  0
 10 33  1  0
 10 11  1  0
 10 58  1  1
 11 12  1  0
 12 13  2  0
 12 14  1  0
 14 28  1  0
 14 40  1  0
 14 15  1  6
 15 16  2  0
 15 17  1  0
 17 18  1  0
 18 19  1  0
 18 20  2  3
 19 59  1  0
 19 60  1  0
 19 61  1  0
 20 26  1  0
 20 21  1  0
 21 22  2  0
 21 62  1  0
 22 23  1  0
 22 24  1  0
 23 63  1  0
 23 64  1  0
 23 65  1  0
 24 25  1  0
 24 66  1  0
 24 67  1  0
 26 25  1  6
 25 68  1  0
 25 69  1  0
 26 27  1  0
 26 32  1  0
 27 28  2  3
 27 70  1  0
 28 29  1  0
 29 30  1  0
 29 31  1  0
 29 71  1  0
 30 72  1  0
 30 73  1  0
 30 74  1  0
 31 75  1  0
 31 76  1  0
 31 77  1  0
 33 32  1  6
 32 78  1  0
 32 79  1  0
 33 34  1  0
 34 35  1  0
 34 36  1  0
 34 80  1  1
 35 81  1  0
 35 82  1  0
 35 83  1  0
 36 37  1  0
 36 38  1  0
 36 84  1  1
 37 85  1  0
 38 39  1  0
 38 40  1  0
 38 86  1  6
 39 87  1  0
 40 41  1  6
 41 42  1  0
 41 43  1  0
 41 44  1  0
 42 88  1  0
 42 89  1  0
 42 90  1  0
 43 91  1  0
 43 92  1  0
 43 93  1  0
 44 94  1  0
M  END
>  <i_m_ct_stereo_status>  (153) 
1

>  <s_m_source_file>  (153) 
/var/tmp/pbs.5076255.sched01/tmpy176o0g7/39stoh4b52.sdf

>  <i_m_source_file_index>  (153) 
30

>  <i_lp_mmshare_version>  (153) 
48012

>  <i_f3d_flags>  (153) 
2

>  <s_epik_input>  (153) 
W0NIM11DKFtDSDNdKShbT0hdKVtDQF0xKEMyMzQpW0NAQF0oW0NIM10pKE9bQ0gzXSlbQ0BASF01W0NAXShbQ0BASF0oQyhPNSkoW0NIM10pW0NIM10pT0MyPU8pKFtDQEBIXShbQ0gzXSlbQ0BASF0oW09IXSlbQ0BIXTFbT0hdKVtDSDJdW0NAQF02KC9bQ0hdPUNcNFtDSF0oW0NIM10pW0NIM10pQyg9QyhbQ0gzXSlcT0MzPU8pL1tDSF09QyhbQ0gzXSlbQ0gyXVtDSDJdNg==

>  <s_epik_cmdline>  (153) 
J2VwaWtfcHl0aG9uJywgJy1waHQnLCAnMi4wJywgJy1waCcsICc3LjAnLCAnLXRuJywgJzgnLCAnLW1hJywgJzIwMCcsICctaW1hZScsICc8aW5maWxlLm1hZT4nLCAnLW9tYWUnLCAnPG91dGZpbGUubWFlPic=

>  <r_lp_tautomer_probability>  (153) 
1

>  <r_epik_Ionization_Penalty>  (153) 
8.13673e-07

>  <r_epik_Ionization_Penalty_Charging>  (153) 
0

>  <r_epik_Ionization_Penalty_Neutral>  (153) 
8.13673e-07

>  <r_epik_State_Penalty>  (153) 
-0

>  <r_epik_Charging_Adjusted_Penalty>  (153) 
0

>  <i_epik_Tot_Q>  (153) 
0

>  <i_epik_Tot_abs_Q>  (153) 
0

>  <s_epik_Chemistry_Notes>  (153) 
This compound has an ester and may undergo hydrolysis at high or low pH.

>  <s_lp_Force_Field>  (153) 
OPLS3e

>  <r_lp_Energy>  (153) 
395.666

>  <b_lp_Chiralities_Consistent>  (153) 
0

>  <s_lp_Variant>  (153) 
54:0-1

>  <s_i_glide_gridfile>  (153) 
pfpi4k_grid

>  <i_i_glide_lignum>  (153) 
30

>  <i_i_glide_rotatable_bonds>  (153) 
6

>  <r_i_docking_score>  (153) 
-2.54609

>  <r_i_glide_ligand_efficiency>  (153) 
-0.0578658

>  <r_i_glide_ligand_efficiency_sa>  (153) 
-0.204286

>  <r_i_glide_ligand_efficiency_ln>  (153) 
-0.532189

>  <r_i_glide_gscore>  (153) 
-2.54609

>  <r_i_glide_lipo>  (153) 
-0.0981811

>  <r_i_glide_hbond>  (153) 
-0.102199

>  <r_i_glide_metal>  (153) 
-0

>  <r_i_glide_rewards>  (153) 
0

>  <r_i_glide_evdw>  (153) 
-19.9618

>  <r_i_glide_ecoul>  (153) 
-9.09451

>  <r_i_glide_erotb>  (153) 
0.0557561

>  <r_i_glide_esite>  (153) 
-0.0392012

>  <r_i_glide_emodel>  (153) 
-31.7619

>  <r_i_glide_energy>  (153) 
-29.0563

>  <r_i_glide_einternal>  (153) 
1.89642

>  <r_i_glide_intrahb_reward>  (153) 
-0

>  <i_i_glide_confnum>  (153) 
2

>  <i_i_glide_posenum>  (153) 
27

>  <r_i_glide_eff_state_penalty>  (153) 
0

>  <ligand_id>  (153) 
54

>  <original_smiles>  (153) 
COC1(C)C2OC(C)(C)C3OC(=O)C45C(=O)OC(C)=C6C=C(C)CCC6(C=C4C(C)C)CC32C(C)C(O)C(O)C51C(C)(C)O

>  <smiles>  (153) 
[H]OC1([H])C([H])(O[H])C2(C(O[H])(C([H])([H])[H])C([H])([H])[H])C34C(=O)OC(C([H])([H])[H])=C5C([H])=C(C([H])([H])[H])C([H])([H])C([H])([H])C5(C([H])=C3C([H])(C([H])([H])[H])C([H])([H])[H])C([H])([H])C3(C([H])(OC4=O)C(C([H])([H])[H])(C([H])([H])[H])OC3([H])C2(OC([H])([H])[H])C([H])([H])[H])C1([H])C([H])([H])[H]

$$$$
54:0:1
     RDKit          3D

 94 99  0  0  1  0  0  0  0  0999 V2000
   -2.4016    3.2151    7.0785 C   0  0  0  0  0  0  0  0  0  0  0  0
   -1.3565    2.5212    6.3924 O   0  0  0  0  0  0  0  0  0  0  0  0
   -0.0451    3.0811    6.1616 C   0  0  1  0  0  0  0  0  0  0  0  0
   -0.3156    4.6178    5.8928 C   0  0  0  0  0  0  0  0  0  0  0  0
    0.8596    2.9959    7.4523 C   0  0  1  0  0  0  0  0  0  0  0  0
    0.0566    2.8043    8.6224 O   0  0  0  0  0  0  0  0  0  0  0  0
    0.8411    2.2659    9.6638 C   0  0  0  0  0  0  0  0  0  0  0  0
    1.4823    3.3889   10.5017 C   0  0  0  0  0  0  0  0  0  0  0  0
   -0.0403    1.4136   10.6042 C   0  0  0  0  0  0  0  0  0  0  0  0
    1.8313    1.4496    8.8295 C   0  0  1  0  0  0  0  0  0  0  0  0
    1.1252    0.3315    8.2189 O   0  0  0  0  0  0  0  0  0  0  0  0
    0.2574    0.3430    7.0977 C   0  0  0  0  0  0  0  0  0  0  0  0
   -0.9393    0.2057    7.4023 O   0  0  0  0  0  0  0  0  0  0  0  0
    0.7566    0.5531    5.5092 C   0  0  2  0  0  0  0  0  0  0  0  0
   -0.0761   -0.7378    5.2131 C   0  0  0  0  0  0  0  0  0  0  0  0
   -1.1700   -0.7103    4.6651 O   0  0  0  0  0  0  0  0  0  0  0  0
    0.4834   -2.0131    5.6661 O   0  0  0  0  0  0  0  0  0  0  0  0
    1.3008   -2.3200    6.7721 C   0  0  0  0  0  0  0  0  0  0  0  0
    0.6302   -3.5064    7.4508 C   0  0  0  0  0  0  0  0  0  0  0  0
    2.4542   -1.7081    7.2768 C   0  0  0  0  0  0  0  0  0  0  0  0
    2.9510   -2.1847    8.5690 C   0  0  0  0  0  0  0  0  0  0  0  0
    4.2050   -1.9735    9.0237 C   0  0  0  0  0  0  0  0  0  0  0  0
    4.6458   -2.4118   10.4026 C   0  0  0  0  0  0  0  0  0  0  0  0
    5.2499   -1.2644    8.1891 C   0  0  0  0  0  0  0  0  0  0  0  0
    4.7885   -1.0456    6.7384 C   0  0  0  0  0  0  0  0  0  0  0  0
    3.3072   -0.5650    6.6074 C   0  0  1  0  0  0  0  0  0  0  0  0
    3.0298   -0.6311    5.1747 C   0  0  0  0  0  0  0  0  0  0  0  0
    1.9146   -0.1627    4.6431 C   0  0  0  0  0  0  0  0  0  0  0  0
    1.7489   -0.5984    3.1378 C   0  0  0  0  0  0  0  0  0  0  0  0
    1.6716   -2.1329    2.9032 C   0  0  0  0  0  0  0  0  0  0  0  0
    2.8793   -0.1225    2.1765 C   0  0  0  0  0  0  0  0  0  0  0  0
    3.2893    1.0226    6.9556 C   0  0  0  0  0  0  0  0  0  0  0  0
    2.2997    2.1810    7.6038 C   0  0  1  0  0  0  0  0  0  0  0  0
    3.2160    3.4188    7.3954 C   0  0  1  0  0  0  0  0  0  0  0  0
    4.7142    3.3612    7.8112 C   0  0  0  0  0  0  0  0  0  0  0  0
    2.8940    3.9023    5.9198 C   0  0  1  0  0  0  0  0  0  0  0  0
    4.0633    4.4452    5.3302 O   0  0  0  0  0  0  0  0  0  0  0  0
    2.0671    3.0157    4.8334 C   0  0  1  0  0  0  0  0  0  0  0  0
    3.0285    2.3478    4.0647 O   0  0  0  0  0  0  0  0  0  0  0  0
    0.6236    2.2059    4.9916 C   0  0  2  0  0  0  0  0  0  0  0  0
   -0.2187    2.4760    3.5804 C   0  0  0  0  0  0  0  0  0  0  0  0
    0.5124    2.2623    2.2250 C   0  0  0  0  0  0  0  0  0  0  0  0
   -1.6368    1.8826    3.4445 C   0  0  0  0  0  0  0  0  0  0  0  0
   -0.4479    3.8288    3.2912 O   0  0  0  0  0  0  0  0  0  0  0  0
   -3.1174    2.4780    7.4341 H   0  0  0  0  0  0  0  0  0  0  0  0
   -2.9534    3.8530    6.3909 H   0  0  0  0  0  0  0  0  0  0  0  0
   -2.0665    3.8010    7.9342 H   0  0  0  0  0  0  0  0  0  0  0  0
    0.4432    5.1196    5.3023 H   0  0  0  0  0  0  0  0  0  0  0  0
   -0.4101    5.1954    6.8095 H   0  0  0  0  0  0  0  0  0  0  0  0
   -1.2442    4.7851    5.3477 H   0  0  0  0  0  0  0  0  0  0  0  0
    1.0237    4.0336    7.7190 H   0  0  0  0  0  0  0  0  0  0  0  0
    2.1474    2.9847   11.2658 H   0  0  0  0  0  0  0  0  0  0  0  0
    0.7175    3.9675   11.0198 H   0  0  0  0  0  0  0  0  0  0  0  0
    2.0592    4.0985    9.9191 H   0  0  0  0  0  0  0  0  0  0  0  0
    0.5583    0.9190   11.3696 H   0  0  0  0  0  0  0  0  0  0  0  0
   -0.5948    0.6412   10.0769 H   0  0  0  0  0  0  0  0  0  0  0  0
   -0.7713    2.0307   11.1264 H   0  0  0  0  0  0  0  0  0  0  0  0
    2.6499    1.0827    9.4483 H   0  0  0  0  0  0  0  0  0  0  0  0
    1.2951   -4.1321    8.0510 H   0  0  0  0  0  0  0  0  0  0  0  0
    0.1977   -4.1639    6.7019 H   0  0  0  0  0  0  0  0  0  0  0  0
   -0.1837   -3.1612    8.0895 H   0  0  0  0  0  0  0  0  0  0  0  0
    2.2698   -2.6677    9.2557 H   0  0  0  0  0  0  0  0  0  0  0  0
    5.0074   -1.5619   10.9821 H   0  0  0  0  0  0  0  0  0  0  0  0
    5.4542   -3.1412   10.3287 H   0  0  0  0  0  0  0  0  0  0  0  0
    3.8278   -2.8731   10.9524 H   0  0  0  0  0  0  0  0  0  0  0  0
    5.4958   -0.3174    8.6691 H   0  0  0  0  0  0  0  0  0  0  0  0
    6.1612   -1.8628    8.1879 H   0  0  0  0  0  0  0  0  0  0  0  0
    5.4799   -0.3755    6.2186 H   0  0  0  0  0  0  0  0  0  0  0  0
    4.8904   -2.0095    6.2409 H   0  0  0  0  0  0  0  0  0  0  0  0
    3.7454   -1.1429    4.5535 H   0  0  0  0  0  0  0  0  0  0  0  0
    0.7758   -0.2968    2.7934 H   0  0  0  0  0  0  0  0  0  0  0  0
    0.7240   -2.5629    3.2366 H   0  0  0  0  0  0  0  0  0  0  0  0
    2.4924   -2.6879    3.3594 H   0  0  0  0  0  0  0  0  0  0  0  0
    1.7191   -2.3222    1.8370 H   0  0  0  0  0  0  0  0  0  0  0  0
    3.1055    0.9321    2.1905 H   0  0  0  0  0  0  0  0  0  0  0  0
    2.5807   -0.3128    1.1494 H   0  0  0  0  0  0  0  0  0  0  0  0
    3.8321   -0.6384    2.3389 H   0  0  0  0  0  0  0  0  0  0  0  0
    4.0257    1.0041    7.7489 H   0  0  0  0  0  0  0  0  0  0  0  0
    3.8542    1.4602    6.1401 H   0  0  0  0  0  0  0  0  0  0  0  0
    2.9357    4.2488    8.0378 H   0  0  0  0  0  0  0  0  0  0  0  0
    5.3381    2.7684    7.1420 H   0  0  0  0  0  0  0  0  0  0  0  0
    4.8211    2.9736    8.8220 H   0  0  0  0  0  0  0  0  0  0  0  0
    5.1411    4.3630    7.8171 H   0  0  0  0  0  0  0  0  0  0  0  0
    2.3292    4.8159    6.0625 H   0  0  0  0  0  0  0  0  0  0  0  0
    3.8207    4.7807    4.4806 H   0  0  0  0  0  0  0  0  0  0  0  0
    1.8209    3.8116    4.1414 H   0  0  0  0  0  0  0  0  0  0  0  0
    2.7409    2.3671    3.1644 H   0  0  0  0  0  0  0  0  0  0  0  0
    0.9797    1.3054    2.0743 H   0  0  0  0  0  0  0  0  0  0  0  0
    1.2811    3.0079    2.0392 H   0  0  0  0  0  0  0  0  0  0  0  0
   -0.1987    2.2388    1.3947 H   0  0  0  0  0  0  0  0  0  0  0  0
   -1.6439    0.8541    3.0866 H   0  0  0  0  0  0  0  0  0  0  0  0
   -2.2027    2.4056    2.6736 H   0  0  0  0  0  0  0  0  0  0  0  0
   -2.2624    1.9323    4.3428 H   0  0  0  0  0  0  0  0  0  0  0  0
   -0.2651    3.9894    2.3369 H   0  0  0  0  0  0  0  0  0  0  0  0
  1  2  1  0
  1 45  1  0
  1 46  1  0
  1 47  1  0
  3  2  1  1
  3 40  1  0
  3  4  1  0
  3  5  1  0
  4 48  1  0
  4 49  1  0
  4 50  1  0
  5 33  1  0
  5  6  1  0
  5 51  1  1
  6  7  1  0
  7  8  1  0
  7  9  1  0
  7 10  1  0
  8 52  1  0
  8 53  1  0
  8 54  1  0
  9 55  1  0
  9 56  1  0
  9 57  1  0
 10 33  1  0
 10 11  1  0
 10 58  1  1
 11 12  1  0
 12 13  2  0
 12 14  1  0
 14 28  1  0
 14 40  1  0
 14 15  1  6
 15 16  2  0
 15 17  1  0
 17 18  1  0
 18 19  1  0
 18 20  2  3
 19 59  1  0
 19 60  1  0
 19 61  1  0
 20 26  1  0
 20 21  1  0
 21 22  2  0
 21 62  1  0
 22 23  1  0
 22 24  1  0
 23 63  1  0
 23 64  1  0
 23 65  1  0
 24 25  1  0
 24 66  1  0
 24 67  1  0
 26 25  1  6
 25 68  1  0
 25 69  1  0
 26 27  1  0
 26 32  1  0
 27 28  2  3
 27 70  1  0
 28 29  1  0
 29 30  1  0
 29 31  1  0
 29 71  1  0
 30 72  1  0
 30 73  1  0
 30 74  1  0
 31 75  1  0
 31 76  1  0
 31 77  1  0
 33 32  1  6
 32 78  1  0
 32 79  1  0
 33 34  1  0
 34 35  1  0
 34 36  1  0
 34 80  1  1
 35 81  1  0
 35 82  1  0
 35 83  1  0
 36 37  1  0
 36 38  1  0
 36 84  1  1
 37 85  1  0
 38 39  1  0
 38 40  1  0
 38 86  1  6
 39 87  1  0
 40 41  1  6
 41 42  1  0
 41 43  1  0
 41 44  1  0
 42 88  1  0
 42 89  1  0
 42 90  1  0
 43 91  1  0
 43 92  1  0
 43 93  1  0
 44 94  1  0
M  END
>  <i_m_ct_stereo_status>  (154) 
1

>  <s_m_source_file>  (154) 
/var/tmp/pbs.5076255.sched01/tmpy176o0g7/39stoh4b52.sdf

>  <i_m_source_file_index>  (154) 
30

>  <i_lp_mmshare_version>  (154) 
48012

>  <i_f3d_flags>  (154) 
2

>  <s_epik_input>  (154) 
W0NIM11DKFtDSDNdKShbT0hdKVtDQF0xKEMyMzQpW0NAQF0oW0NIM10pKE9bQ0gzXSlbQ0BASF01W0NAXShbQ0BASF0oQyhPNSkoW0NIM10pW0NIM10pT0MyPU8pKFtDQEBIXShbQ0gzXSlbQ0BASF0oW09IXSlbQ0BIXTFbT0hdKVtDSDJdW0NAQF02KC9bQ0hdPUNcNFtDSF0oW0NIM10pW0NIM10pQyg9QyhbQ0gzXSlcT0MzPU8pL1tDSF09QyhbQ0gzXSlbQ0gyXVtDSDJdNg==

>  <s_epik_cmdline>  (154) 
J2VwaWtfcHl0aG9uJywgJy1waHQnLCAnMi4wJywgJy1waCcsICc3LjAnLCAnLXRuJywgJzgnLCAnLW1hJywgJzIwMCcsICctaW1hZScsICc8aW5maWxlLm1hZT4nLCAnLW9tYWUnLCAnPG91dGZpbGUubWFlPic=

>  <r_lp_tautomer_probability>  (154) 
1

>  <r_epik_Ionization_Penalty>  (154) 
8.13673e-07

>  <r_epik_Ionization_Penalty_Charging>  (154) 
0

>  <r_epik_Ionization_Penalty_Neutral>  (154) 
8.13673e-07

>  <r_epik_State_Penalty>  (154) 
-0

>  <r_epik_Charging_Adjusted_Penalty>  (154) 
0

>  <i_epik_Tot_Q>  (154) 
0

>  <i_epik_Tot_abs_Q>  (154) 
0

>  <s_epik_Chemistry_Notes>  (154) 
This compound has an ester and may undergo hydrolysis at high or low pH.

>  <s_lp_Force_Field>  (154) 
OPLS3e

>  <r_lp_Energy>  (154) 
395.666

>  <b_lp_Chiralities_Consistent>  (154) 
0

>  <s_lp_Variant>  (154) 
54:0-1

>  <s_i_glide_gridfile>  (154) 
pfpi4k_grid

>  <i_i_glide_lignum>  (154) 
30

>  <i_i_glide_rotatable_bonds>  (154) 
6

>  <r_i_docking_score>  (154) 
-2.49369

>  <r_i_glide_ligand_efficiency>  (154) 
-0.0566748

>  <r_i_glide_ligand_efficiency_sa>  (154) 
-0.200082

>  <r_i_glide_ligand_efficiency_ln>  (154) 
-0.521236

>  <r_i_glide_gscore>  (154) 
-2.49369

>  <r_i_glide_lipo>  (154) 
-0.110704

>  <r_i_glide_hbond>  (154) 
-0.0978573

>  <r_i_glide_metal>  (154) 
-0

>  <r_i_glide_rewards>  (154) 
0

>  <r_i_glide_evdw>  (154) 
-19.181

>  <r_i_glide_ecoul>  (154) 
-8.97062

>  <r_i_glide_erotb>  (154) 
0.0557561

>  <r_i_glide_esite>  (154) 
-0.0362437

>  <r_i_glide_emodel>  (154) 
-30.1819

>  <r_i_glide_energy>  (154) 
-28.1516

>  <r_i_glide_einternal>  (154) 
2.09893

>  <r_i_glide_intrahb_reward>  (154) 
-0

>  <i_i_glide_confnum>  (154) 
2

>  <i_i_glide_posenum>  (154) 
2

>  <r_i_glide_eff_state_penalty>  (154) 
0

>  <ligand_id>  (154) 
54

>  <original_smiles>  (154) 
COC1(C)C2OC(C)(C)C3OC(=O)C45C(=O)OC(C)=C6C=C(C)CCC6(C=C4C(C)C)CC32C(C)C(O)C(O)C51C(C)(C)O

>  <smiles>  (154) 
[H]OC1([H])C([H])(O[H])C2(C(O[H])(C([H])([H])[H])C([H])([H])[H])C34C(=O)OC(C([H])([H])[H])=C5C([H])=C(C([H])([H])[H])C([H])([H])C([H])([H])C5(C([H])=C3C([H])(C([H])([H])[H])C([H])([H])[H])C([H])([H])C3(C([H])(OC4=O)C(C([H])([H])[H])(C([H])([H])[H])OC3([H])C2(OC([H])([H])[H])C([H])([H])[H])C1([H])C([H])([H])[H]

$$$$
54:0:2
     RDKit          3D

 94 99  0  0  1  0  0  0  0  0999 V2000
   -1.7705   -4.8690    7.3533 C   0  0  0  0  0  0  0  0  0  0  0  0
   -0.5163   -4.3787    6.8673 O   0  0  0  0  0  0  0  0  0  0  0  0
    0.7143   -4.5236    7.6222 C   0  0  1  0  0  0  0  0  0  0  0  0
    0.2824   -4.2935    9.1286 C   0  0  0  0  0  0  0  0  0  0  0  0
    1.2956   -5.9908    7.5517 C   0  0  1  0  0  0  0  0  0  0  0  0
    0.2763   -6.9241    7.1679 O   0  0  0  0  0  0  0  0  0  0  0  0
    0.8739   -8.0921    6.6519 C   0  0  0  0  0  0  0  0  0  0  0  0
    1.1276   -9.1120    7.7757 C   0  0  0  0  0  0  0  0  0  0  0  0
   -0.0666   -8.7446    5.6130 C   0  0  0  0  0  0  0  0  0  0  0  0
    2.1466   -7.4895    6.0494 C   0  0  1  0  0  0  0  0  0  0  0  0
    1.7813   -6.6903    4.8966 O   0  0  0  0  0  0  0  0  0  0  0  0
    1.2017   -5.3987    4.8778 C   0  0  0  0  0  0  0  0  0  0  0  0
    0.0141   -5.4170    4.5214 O   0  0  0  0  0  0  0  0  0  0  0  0
    2.0251   -3.9875    5.2975 C   0  0  2  0  0  0  0  0  0  0  0  0
    1.4973   -3.4293    3.9322 C   0  0  0  0  0  0  0  0  0  0  0  0
    0.5981   -2.6048    3.8743 O   0  0  0  0  0  0  0  0  0  0  0  0
    2.1249   -3.9303    2.7188 O   0  0  0  0  0  0  0  0  0  0  0  0
    2.6849   -5.1843    2.4199 C   0  0  0  0  0  0  0  0  0  0  0  0
    2.0604   -5.6197    1.1094 C   0  0  0  0  0  0  0  0  0  0  0  0
    3.5832   -5.9789    3.1400 C   0  0  0  0  0  0  0  0  0  0  0  0
    3.8149   -7.3337    2.6236 C   0  0  0  0  0  0  0  0  0  0  0  0
    4.8856   -8.0845    2.9644 C   0  0  0  0  0  0  0  0  0  0  0  0
    5.0577   -9.5101    2.4731 C   0  0  0  0  0  0  0  0  0  0  0  0
    5.9754   -7.5623    3.8702 C   0  0  0  0  0  0  0  0  0  0  0  0
    5.8395   -6.0553    4.1507 C   0  0  0  0  0  0  0  0  0  0  0  0
    4.3761   -5.5935    4.4327 C   0  0  1  0  0  0  0  0  0  0  0  0
    4.4696   -4.1358    4.4683 C   0  0  0  0  0  0  0  0  0  0  0  0
    3.4406   -3.3744    4.8262 C   0  0  0  0  0  0  0  0  0  0  0  0
    3.6956   -1.8498    4.5002 C   0  0  0  0  0  0  0  0  0  0  0  0
    3.9824   -1.5591    3.0083 C   0  0  0  0  0  0  0  0  0  0  0  0
    4.8710   -1.1919    5.2475 C   0  0  0  0  0  0  0  0  0  0  0  0
    4.0408   -6.0059    5.9743 C   0  0  0  0  0  0  0  0  0  0  0  0
    2.7655   -6.4496    6.9344 C   0  0  1  0  0  0  0  0  0  0  0  0
    3.5078   -6.5286    8.2904 C   0  0  1  0  0  0  0  0  0  0  0  0
    4.8608   -7.2843    8.3949 C   0  0  0  0  0  0  0  0  0  0  0  0
    3.4666   -5.0486    8.8590 C   0  0  1  0  0  0  0  0  0  0  0  0
    4.6460   -4.7984    9.5950 O   0  0  0  0  0  0  0  0  0  0  0  0
    3.0601   -3.7459    7.9656 C   0  0  1  0  0  0  0  0  0  0  0  0
    4.2657   -3.2034    7.4954 O   0  0  0  0  0  0  0  0  0  0  0  0
    1.7557   -3.5218    6.9528 C   0  0  2  0  0  0  0  0  0  0  0  0
    1.2324   -1.9686    7.1993 C   0  0  0  0  0  0  0  0  0  0  0  0
    2.2718   -0.8161    7.3095 C   0  0  0  0  0  0  0  0  0  0  0  0
    0.0339   -1.4305    6.3835 C   0  0  0  0  0  0  0  0  0  0  0  0
    0.7414   -1.7233    8.4959 O   0  0  0  0  0  0  0  0  0  0  0  0
   -2.4281   -5.0190    6.5042 H   0  0  0  0  0  0  0  0  0  0  0  0
   -2.2566   -4.1433    8.0041 H   0  0  0  0  0  0  0  0  0  0  0  0
   -1.6910   -5.8087    7.8941 H   0  0  0  0  0  0  0  0  0  0  0  0
    1.0738   -3.9282    9.7693 H   0  0  0  0  0  0  0  0  0  0  0  0
   -0.1206   -5.1847    9.6077 H   0  0  0  0  0  0  0  0  0  0  0  0
   -0.5140   -3.5629    9.2194 H   0  0  0  0  0  0  0  0  0  0  0  0
    1.2439   -6.3258    8.5794 H   0  0  0  0  0  0  0  0  0  0  0  0
    1.6535   -9.9788    7.3854 H   0  0  0  0  0  0  0  0  0  0  0  0
    0.1856   -9.4625    8.1935 H   0  0  0  0  0  0  0  0  0  0  0  0
    1.7118   -8.7223    8.5986 H   0  0  0  0  0  0  0  0  0  0  0  0
    0.4117   -9.6043    5.1487 H   0  0  0  0  0  0  0  0  0  0  0  0
   -0.3617   -8.0622    4.8158 H   0  0  0  0  0  0  0  0  0  0  0  0
   -0.9865   -9.1052    6.0775 H   0  0  0  0  0  0  0  0  0  0  0  0
    2.8379   -8.2719    5.7579 H   0  0  0  0  0  0  0  0  0  0  0  0
    2.6570   -6.3257    0.5194 H   0  0  0  0  0  0  0  0  0  0  0  0
    1.9105   -4.7541    0.4542 H   0  0  0  0  0  0  0  0  0  0  0  0
    1.0817   -6.0799    1.2927 H   0  0  0  0  0  0  0  0  0  0  0  0
    3.0776   -7.8068    2.0000 H   0  0  0  0  0  0  0  0  0  0  0  0
    5.1407  -10.1924    3.3181 H   0  0  0  0  0  0  0  0  0  0  0  0
    5.9621   -9.5891    1.8726 H   0  0  0  0  0  0  0  0  0  0  0  0
    4.2126   -9.8216    1.8616 H   0  0  0  0  0  0  0  0  0  0  0  0
    5.9592   -8.1366    4.7976 H   0  0  0  0  0  0  0  0  0  0  0  0
    6.9357   -7.7457    3.3944 H   0  0  0  0  0  0  0  0  0  0  0  0
    6.5231   -5.7556    4.9513 H   0  0  0  0  0  0  0  0  0  0  0  0
    6.2004   -5.5495    3.2539 H   0  0  0  0  0  0  0  0  0  0  0  0
    5.3747   -3.6841    4.0973 H   0  0  0  0  0  0  0  0  0  0  0  0
    2.7816   -1.2763    4.6530 H   0  0  0  0  0  0  0  0  0  0  0  0
    3.1102   -1.6724    2.3651 H   0  0  0  0  0  0  0  0  0  0  0  0
    4.8046   -2.1509    2.5753 H   0  0  0  0  0  0  0  0  0  0  0  0
    4.2909   -0.5134    2.8919 H   0  0  0  0  0  0  0  0  0  0  0  0
    4.8608   -1.2925    6.3356 H   0  0  0  0  0  0  0  0  0  0  0  0
    4.9027   -0.1212    5.0514 H   0  0  0  0  0  0  0  0  0  0  0  0
    5.8015   -1.5900    4.8357 H   0  0  0  0  0  0  0  0  0  0  0  0
    4.5634   -6.9514    5.9832 H   0  0  0  0  0  0  0  0  0  0  0  0
    4.7133   -5.3702    6.5469 H   0  0  0  0  0  0  0  0  0  0  0  0
    2.9712   -7.1298    9.0121 H   0  0  0  0  0  0  0  0  0  0  0  0
    5.7066   -6.7570    7.9482 H   0  0  0  0  0  0  0  0  0  0  0  0
    4.7881   -8.2757    7.9420 H   0  0  0  0  0  0  0  0  0  0  0  0
    5.1175   -7.4397    9.4450 H   0  0  0  0  0  0  0  0  0  0  0  0
    2.7510   -5.1041    9.6685 H   0  0  0  0  0  0  0  0  0  0  0  0
    4.5453   -3.9561   10.0107 H   0  0  0  0  0  0  0  0  0  0  0  0
    2.8513   -3.0514    8.7703 H   0  0  0  0  0  0  0  0  0  0  0  0
    4.1026   -2.3156    7.2136 H   0  0  0  0  0  0  0  0  0  0  0  0
    2.9503   -0.7082    6.4830 H   0  0  0  0  0  0  0  0  0  0  0  0
    2.8812   -0.8586    8.2317 H   0  0  0  0  0  0  0  0  0  0  0  0
    1.7398    0.1561    7.4036 H   0  0  0  0  0  0  0  0  0  0  0  0
    0.3712   -0.9821    5.4524 H   0  0  0  0  0  0  0  0  0  0  0  0
   -0.4335   -0.5786    6.8728 H   0  0  0  0  0  0  0  0  0  0  0  0
   -0.7542   -2.1423    6.1711 H   0  0  0  0  0  0  0  0  0  0  0  0
    0.9320   -0.8268    8.7376 H   0  0  0  0  0  0  0  0  0  0  0  0
  1  2  1  0
  1 45  1  0
  1 46  1  0
  1 47  1  0
  3  2  1  6
  3 40  1  0
  3  4  1  0
  3  5  1  0
  4 48  1  0
  4 49  1  0
  4 50  1  0
  5 33  1  0
  5  6  1  0
  5 51  1  1
  6  7  1  0
  7  8  1  0
  7  9  1  0
  7 10  1  0
  8 52  1  0
  8 53  1  0
  8 54  1  0
  9 55  1  0
  9 56  1  0
  9 57  1  0
 10 33  1  0
 10 11  1  0
 10 58  1  6
 11 12  1  0
 12 13  2  0
 12 14  1  0
 14 28  1  0
 14 40  1  0
 14 15  1  6
 15 16  2  0
 15 17  1  0
 17 18  1  0
 18 19  1  0
 18 20  2  3
 19 59  1  0
 19 60  1  0
 19 61  1  0
 20 26  1  0
 20 21  1  0
 21 22  2  0
 21 62  1  0
 22 23  1  0
 22 24  1  0
 23 63  1  0
 23 64  1  0
 23 65  1  0
 24 25  1  0
 24 66  1  0
 24 67  1  0
 26 25  1  6
 25 68  1  0
 25 69  1  0
 26 27  1  0
 26 32  1  0
 27 28  2  3
 27 70  1  0
 28 29  1  0
 29 30  1  0
 29 31  1  0
 29 71  1  0
 30 72  1  0
 30 73  1  0
 30 74  1  0
 31 75  1  0
 31 76  1  0
 31 77  1  0
 33 32  1  6
 32 78  1  0
 32 79  1  0
 33 34  1  0
 34 35  1  0
 34 36  1  0
 34 80  1  1
 35 81  1  0
 35 82  1  0
 35 83  1  0
 36 37  1  0
 36 38  1  0
 36 84  1  1
 37 85  1  0
 38 39  1  0
 38 40  1  0
 38 86  1  1
 39 87  1  0
 40 41  1  6
 41 42  1  0
 41 43  1  0
 41 44  1  0
 42 88  1  0
 42 89  1  0
 42 90  1  0
 43 91  1  0
 43 92  1  0
 43 93  1  0
 44 94  1  0
M  END
>  <i_m_ct_stereo_status>  (155) 
1

>  <s_m_source_file>  (155) 
/var/tmp/pbs.5076255.sched01/tmpy176o0g7/39stoh4b52.sdf

>  <i_m_source_file_index>  (155) 
30

>  <i_lp_mmshare_version>  (155) 
48012

>  <i_f3d_flags>  (155) 
2

>  <s_epik_input>  (155) 
W0NIM11DKFtDSDNdKShbT0hdKVtDQF0xKEMyMzQpW0NAQF0oW0NIM10pKE9bQ0gzXSlbQ0BASF01W0NAXShbQ0BASF0oQyhPNSkoW0NIM10pW0NIM10pT0MyPU8pKFtDQEBIXShbQ0gzXSlbQ0BASF0oW09IXSlbQ0BIXTFbT0hdKVtDSDJdW0NAQF02KC9bQ0hdPUNcNFtDSF0oW0NIM10pW0NIM10pQyg9QyhbQ0gzXSlcT0MzPU8pL1tDSF09QyhbQ0gzXSlbQ0gyXVtDSDJdNg==

>  <s_epik_cmdline>  (155) 
J2VwaWtfcHl0aG9uJywgJy1waHQnLCAnMi4wJywgJy1waCcsICc3LjAnLCAnLXRuJywgJzgnLCAnLW1hJywgJzIwMCcsICctaW1hZScsICc8aW5maWxlLm1hZT4nLCAnLW9tYWUnLCAnPG91dGZpbGUubWFlPic=

>  <r_lp_tautomer_probability>  (155) 
1

>  <r_epik_Ionization_Penalty>  (155) 
8.13673e-07

>  <r_epik_Ionization_Penalty_Charging>  (155) 
0

>  <r_epik_Ionization_Penalty_Neutral>  (155) 
8.13673e-07

>  <r_epik_State_Penalty>  (155) 
-0

>  <r_epik_Charging_Adjusted_Penalty>  (155) 
0

>  <i_epik_Tot_Q>  (155) 
0

>  <i_epik_Tot_abs_Q>  (155) 
0

>  <s_epik_Chemistry_Notes>  (155) 
This compound has an ester and may undergo hydrolysis at high or low pH.

>  <s_lp_Force_Field>  (155) 
OPLS3e

>  <r_lp_Energy>  (155) 
395.666

>  <b_lp_Chiralities_Consistent>  (155) 
0

>  <s_lp_Variant>  (155) 
54:0-1

>  <s_i_glide_gridfile>  (155) 
pfpi4k_grid

>  <i_i_glide_lignum>  (155) 
30

>  <i_i_glide_rotatable_bonds>  (155) 
6

>  <r_i_docking_score>  (155) 
-1.14097

>  <r_i_glide_ligand_efficiency>  (155) 
-0.0259312

>  <r_i_glide_ligand_efficiency_sa>  (155) 
-0.0915462

>  <r_i_glide_ligand_efficiency_ln>  (155) 
-0.238488

>  <r_i_glide_gscore>  (155) 
-1.14097

>  <r_i_glide_lipo>  (155) 
-0.0985239

>  <r_i_glide_hbond>  (155) 
0

>  <r_i_glide_metal>  (155) 
-0

>  <r_i_glide_rewards>  (155) 
-0.0304891

>  <r_i_glide_evdw>  (155) 
-21.7314

>  <r_i_glide_ecoul>  (155) 
0.141123

>  <r_i_glide_erotb>  (155) 
0.0557561

>  <r_i_glide_esite>  (155) 
-0.00231489

>  <r_i_glide_emodel>  (155) 
-22.0552

>  <r_i_glide_energy>  (155) 
-21.5903

>  <r_i_glide_einternal>  (155) 
1.43509

>  <r_i_glide_intrahb_reward>  (155) 
-0

>  <i_i_glide_confnum>  (155) 
2

>  <i_i_glide_posenum>  (155) 
11

>  <r_i_glide_eff_state_penalty>  (155) 
0

>  <ligand_id>  (155) 
54

>  <original_smiles>  (155) 
COC1(C)C2OC(C)(C)C3OC(=O)C45C(=O)OC(C)=C6C=C(C)CCC6(C=C4C(C)C)CC32C(C)C(O)C(O)C51C(C)(C)O

>  <smiles>  (155) 
[H]OC1([H])C([H])(O[H])C2(C(O[H])(C([H])([H])[H])C([H])([H])[H])C34C(=O)OC(C([H])([H])[H])=C5C([H])=C(C([H])([H])[H])C([H])([H])C([H])([H])C5(C([H])=C3C([H])(C([H])([H])[H])C([H])([H])[H])C([H])([H])C3(C([H])(OC4=O)C(C([H])([H])[H])(C([H])([H])[H])OC3([H])C2(OC([H])([H])[H])C([H])([H])[H])C1([H])C([H])([H])[H]

$$$$
54:1:0
     RDKit          3D

 94 99  0  0  1  0  0  0  0  0999 V2000
   -2.2771    3.1545    7.0909 C   0  0  0  0  0  0  0  0  0  0  0  0
   -1.2791    2.4695    6.3310 O   0  0  0  0  0  0  0  0  0  0  0  0
    0.0639    2.9614    6.1413 C   0  0  1  0  0  0  0  0  0  0  0  0
   -0.1434    4.5160    5.9245 C   0  0  0  0  0  0  0  0  0  0  0  0
    0.9579    2.8077    7.4331 C   0  0  1  0  0  0  0  0  0  0  0  0
    0.1444    2.6253    8.5979 O   0  0  0  0  0  0  0  0  0  0  0  0
    0.8994    2.0324    9.6265 C   0  0  0  0  0  0  0  0  0  0  0  0
    1.5840    3.1140   10.4885 C   0  0  0  0  0  0  0  0  0  0  0  0
   -0.0258    1.2039   10.5426 C   0  0  0  0  0  0  0  0  0  0  0  0
    1.8531    1.1888    8.7743 C   0  0  1  0  0  0  0  0  0  0  0  0
    1.0937    0.1219    8.1383 O   0  0  0  0  0  0  0  0  0  0  0  0
    0.2337    0.1997    7.0084 C   0  0  0  0  0  0  0  0  0  0  0  0
   -0.9729    0.1410    7.2989 O   0  0  0  0  0  0  0  0  0  0  0  0
    0.7585    0.4098    5.4337 C   0  0  2  0  0  0  0  0  0  0  0  0
   -0.1298   -0.8423    5.1104 C   0  0  0  0  0  0  0  0  0  0  0  0
   -1.2237   -0.7606    4.5586 O   0  0  0  0  0  0  0  0  0  0  0  0
    0.3801   -2.1409    5.5271 O   0  0  0  0  0  0  0  0  0  0  0  0
    1.1724   -2.5046    6.6399 C   0  0  0  0  0  0  0  0  0  0  0  0
    0.4413   -3.6739    7.2918 C   0  0  0  0  0  0  0  0  0  0  0  0
    2.3407   -1.9528    7.1595 C   0  0  0  0  0  0  0  0  0  0  0  0
    2.8126   -2.4783    8.4474 C   0  0  0  0  0  0  0  0  0  0  0  0
    4.0683   -2.3280    8.9093 C   0  0  0  0  0  0  0  0  0  0  0  0
    4.4883   -2.8175   10.2840 C   0  0  0  0  0  0  0  0  0  0  0  0
    5.1523   -1.6534    8.0950 C   0  0  0  0  0  0  0  0  0  0  0  0
    4.7054   -1.3851    6.6471 C   0  0  0  0  0  0  0  0  0  0  0  0
    3.2491   -0.8362    6.5210 C   0  0  1  0  0  0  0  0  0  0  0  0
    2.9841   -0.8573    5.0828 C   0  0  0  0  0  0  0  0  0  0  0  0
    1.8882   -0.3367    4.5550 C   0  0  0  0  0  0  0  0  0  0  0  0
    1.7232   -0.7352    3.0407 C   0  0  0  0  0  0  0  0  0  0  0  0
    1.6640   -2.2527    2.7724 C   0  0  0  0  0  0  0  0  0  0  0  0
    2.8412   -0.2214    2.0815 C   0  0  0  0  0  0  0  0  0  0  0  0
    3.2999    0.7423    6.9046 C   0  0  0  0  0  0  0  0  0  0  0  0
    2.3585    1.9310    7.5676 C   0  0  1  0  0  0  0  0  0  0  0  0
    3.3279    3.1327    7.3840 C   0  0  1  0  0  0  0  0  0  0  0  0
    4.8192    2.9998    7.8036 C   0  0  0  0  0  0  0  0  0  0  0  0
    3.0320    3.6605    5.9131 C   0  0  1  0  0  0  0  0  0  0  0  0
    4.2259    4.1361    5.3224 O   0  0  0  0  0  0  0  0  0  0  0  0
    2.1719    2.8238    4.8099 C   0  0  1  0  0  0  0  0  0  0  0  0
    3.0980    2.1146    4.0383 O   0  0  0  0  0  0  0  0  0  0  0  0
    0.6944    2.0785    4.9599 C   0  0  2  0  0  0  0  0  0  0  0  0
   -0.1262    2.3931    3.5571 C   0  0  0  0  0  0  0  0  0  0  0  0
    0.5874    2.2006    2.1988 C   0  0  0  0  0  0  0  0  0  0  0  0
   -1.5650    1.8566    3.3888 C   0  0  0  0  0  0  0  0  0  0  0  0
   -0.3501    3.7666    3.3545 O   0  0  0  0  0  0  0  0  0  0  0  0
   -3.0183    2.4245    7.4089 H   0  0  0  0  0  0  0  0  0  0  0  0
   -2.8021    3.8715    6.4645 H   0  0  0  0  0  0  0  0  0  0  0  0
   -1.9066    3.6627    7.9792 H   0  0  0  0  0  0  0  0  0  0  0  0
    0.6324    4.9939    5.3387 H   0  0  0  0  0  0  0  0  0  0  0  0
   -0.2219    5.0841    6.8537 H   0  0  0  0  0  0  0  0  0  0  0  0
   -1.0682    4.7342    5.3966 H   0  0  0  0  0  0  0  0  0  0  0  0
    1.1655    3.8329    7.7186 H   0  0  0  0  0  0  0  0  0  0  0  0
    2.2251    2.6646   11.2452 H   0  0  0  0  0  0  0  0  0  0  0  0
    0.8383    3.7137   11.0116 H   0  0  0  0  0  0  0  0  0  0  0  0
    2.1909    3.8087    9.9200 H   0  0  0  0  0  0  0  0  0  0  0  0
    0.5448    0.6691   11.2992 H   0  0  0  0  0  0  0  0  0  0  0  0
   -0.6106    0.4696    9.9929 H   0  0  0  0  0  0  0  0  0  0  0  0
   -0.7340    1.8437   11.0712 H   0  0  0  0  0  0  0  0  0  0  0  0
    2.6512    0.7760    9.3892 H   0  0  0  0  0  0  0  0  0  0  0  0
    1.0769   -4.3401    7.8788 H   0  0  0  0  0  0  0  0  0  0  0  0
   -0.0181   -4.2996    6.5248 H   0  0  0  0  0  0  0  0  0  0  0  0
   -0.3592   -3.3053    7.9365 H   0  0  0  0  0  0  0  0  0  0  0  0
    2.1092   -2.9443    9.1200 H   0  0  0  0  0  0  0  0  0  0  0  0
    4.8819   -1.9934   10.8791 H   0  0  0  0  0  0  0  0  0  0  0  0
    5.2633   -3.5786   10.1951 H   0  0  0  0  0  0  0  0  0  0  0  0
    3.6456   -3.2532   10.8206 H   0  0  0  0  0  0  0  0  0  0  0  0
    5.4377   -0.7284    8.5959 H   0  0  0  0  0  0  0  0  0  0  0  0
    6.0359   -2.2899    8.0852 H   0  0  0  0  0  0  0  0  0  0  0  0
    5.4277   -0.7351    6.1457 H   0  0  0  0  0  0  0  0  0  0  0  0
    4.7701   -2.3438    6.1287 H   0  0  0  0  0  0  0  0  0  0  0  0
    3.6846   -1.3847    4.4535 H   0  0  0  0  0  0  0  0  0  0  0  0
    0.7381   -0.4489    2.6998 H   0  0  0  0  0  0  0  0  0  0  0  0
    0.7351   -2.7089    3.1156 H   0  0  0  0  0  0  0  0  0  0  0  0
    2.5053   -2.8089    3.1946 H   0  0  0  0  0  0  0  0  0  0  0  0
    1.6994   -2.4225    1.6962 H   0  0  0  0  0  0  0  0  0  0  0  0
    3.0446    0.8457    2.1162 H   0  0  0  0  0  0  0  0  0  0  0  0
    2.5387   -0.3934    1.0467 H   0  0  0  0  0  0  0  0  0  0  0  0
    3.7868   -0.7416    2.2239 H   0  0  0  0  0  0  0  0  0  0  0  0
    4.0317    0.6731    7.6997 H   0  0  0  0  0  0  0  0  0  0  0  0
    3.8926    1.1685    6.1013 H   0  0  0  0  0  0  0  0  0  0  0  0
    3.0849    3.9559    8.0477 H   0  0  0  0  0  0  0  0  0  0  0  0
    5.4212    2.3912    7.1276 H   0  0  0  0  0  0  0  0  0  0  0  0
    4.9049    2.5848    8.8107 H   0  0  0  0  0  0  0  0  0  0  0  0
    5.2919    3.9831    7.8335 H   0  0  0  0  0  0  0  0  0  0  0  0
    2.5141    4.5985    6.0800 H   0  0  0  0  0  0  0  0  0  0  0  0
    3.9914    4.6182    4.5395 H   0  0  0  0  0  0  0  0  0  0  0  0
    1.9687    3.6391    4.1228 H   0  0  0  0  0  0  0  0  0  0  0  0
    3.6241    2.7328    3.5463 H   0  0  0  0  0  0  0  0  0  0  0  0
    1.0259    1.2665    2.0035 H   0  0  0  0  0  0  0  0  0  0  0  0
    1.3648    2.9484    2.0102 H   0  0  0  0  0  0  0  0  0  0  0  0
   -0.1251    2.2563    1.3728 H   0  0  0  0  0  0  0  0  0  0  0  0
   -1.5710    0.8528    2.9779 H   0  0  0  0  0  0  0  0  0  0  0  0
   -2.1062    2.4190    2.6260 H   0  0  0  0  0  0  0  0  0  0  0  0
   -2.1904    1.8794    4.2773 H   0  0  0  0  0  0  0  0  0  0  0  0
   -0.1987    3.9816    2.4158 H   0  0  0  0  0  0  0  0  0  0  0  0
  1  2  1  0
  1 45  1  0
  1 46  1  0
  1 47  1  0
  3  2  1  1
  3 40  1  0
  3  4  1  0
  3  5  1  0
  4 48  1  0
  4 49  1  0
  4 50  1  0
  5 33  1  0
  5  6  1  0
  5 51  1  1
  6  7  1  0
  7  8  1  0
  7  9  1  0
  7 10  1  0
  8 52  1  0
  8 53  1  0
  8 54  1  0
  9 55  1  0
  9 56  1  0
  9 57  1  0
 10 33  1  0
 10 11  1  0
 10 58  1  1
 11 12  1  0
 12 13  2  0
 12 14  1  0
 14 28  1  0
 14 40  1  0
 14 15  1  6
 15 16  2  0
 15 17  1  0
 17 18  1  0
 18 19  1  0
 18 20  2  3
 19 59  1  0
 19 60  1  0
 19 61  1  0
 20 26  1  0
 20 21  1  0
 21 22  2  0
 21 62  1  0
 22 23  1  0
 22 24  1  0
 23 63  1  0
 23 64  1  0
 23 65  1  0
 24 25  1  0
 24 66  1  0
 24 67  1  0
 26 25  1  6
 25 68  1  0
 25 69  1  0
 26 27  1  0
 26 32  1  0
 27 28  2  3
 27 70  1  0
 28 29  1  0
 29 30  1  0
 29 31  1  0
 29 71  1  0
 30 72  1  0
 30 73  1  0
 30 74  1  0
 31 75  1  0
 31 76  1  0
 31 77  1  0
 33 32  1  6
 32 78  1  0
 32 79  1  0
 33 34  1  0
 34 35  1  0
 34 36  1  0
 34 80  1  1
 35 81  1  0
 35 82  1  0
 35 83  1  0
 36 37  1  0
 36 38  1  0
 36 84  1  1
 37 85  1  0
 38 39  1  0
 38 40  1  0
 38 86  1  6
 39 87  1  0
 40 41  1  6
 41 42  1  0
 41 43  1  0
 41 44  1  0
 42 88  1  0
 42 89  1  0
 42 90  1  0
 43 91  1  0
 43 92  1  0
 43 93  1  0
 44 94  1  0
M  END
>  <i_m_ct_stereo_status>  (156) 
1

>  <s_m_source_file>  (156) 
/var/tmp/pbs.5076255.sched01/tmpy176o0g7/39stoh4b52.sdf

>  <i_m_source_file_index>  (156) 
31

>  <i_lp_mmshare_version>  (156) 
48012

>  <i_f3d_flags>  (156) 
3

>  <s_epik_input>  (156) 
W0NIM11DKFtDSDNdKShbT0hdKVtDQF0xKEMyMzQpW0NAQF0oW0NIM10pKE9bQ0gzXSlbQ0BASF01W0NAXShbQ0BASF0oQyhPNSkoW0NIM10pW0NIM10pT0MyPU8pKFtDQEBIXShbQ0gzXSlbQ0BASF0oW09IXSlbQ0BIXTFbT0hdKVtDSDJdW0NAQF02KC9bQ0hdPUNcNFtDSF0oW0NIM10pW0NIM10pQyg9QyhbQ0gzXSlcT0MzPU8pL1tDSF09QyhbQ0gzXSlbQ0gyXVtDSDJdNg==

>  <s_epik_cmdline>  (156) 
J2VwaWtfcHl0aG9uJywgJy1waHQnLCAnMi4wJywgJy1waCcsICc3LjAnLCAnLXRuJywgJzgnLCAnLW1hJywgJzIwMCcsICctaW1hZScsICc8aW5maWxlLm1hZT4nLCAnLW9tYWUnLCAnPG91dGZpbGUubWFlPic=

>  <r_lp_tautomer_probability>  (156) 
1

>  <r_epik_Ionization_Penalty>  (156) 
8.13673e-07

>  <r_epik_Ionization_Penalty_Charging>  (156) 
0

>  <r_epik_Ionization_Penalty_Neutral>  (156) 
8.13673e-07

>  <r_epik_State_Penalty>  (156) 
-0

>  <r_epik_Charging_Adjusted_Penalty>  (156) 
0

>  <i_epik_Tot_Q>  (156) 
0

>  <i_epik_Tot_abs_Q>  (156) 
0

>  <s_epik_Chemistry_Notes>  (156) 
This compound has an ester and may undergo hydrolysis at high or low pH.

>  <s_lp_Force_Field>  (156) 
OPLS3e

>  <r_lp_Energy>  (156) 
395.666

>  <b_lp_Chiralities_Consistent>  (156) 
0

>  <s_lp_Variant>  (156) 
54:0-2

>  <s_i_glide_gridfile>  (156) 
pfpi4k_grid

>  <i_i_glide_lignum>  (156) 
31

>  <i_i_glide_rotatable_bonds>  (156) 
6

>  <r_i_docking_score>  (156) 
-2.54609

>  <r_i_glide_ligand_efficiency>  (156) 
-0.0578658

>  <r_i_glide_ligand_efficiency_sa>  (156) 
-0.204286

>  <r_i_glide_ligand_efficiency_ln>  (156) 
-0.532189

>  <r_i_glide_gscore>  (156) 
-2.54609

>  <r_i_glide_lipo>  (156) 
-0.0981811

>  <r_i_glide_hbond>  (156) 
-0.102199

>  <r_i_glide_metal>  (156) 
-0

>  <r_i_glide_rewards>  (156) 
0

>  <r_i_glide_evdw>  (156) 
-19.9618

>  <r_i_glide_ecoul>  (156) 
-9.09451

>  <r_i_glide_erotb>  (156) 
0.0557561

>  <r_i_glide_esite>  (156) 
-0.0392012

>  <r_i_glide_emodel>  (156) 
-31.7619

>  <r_i_glide_energy>  (156) 
-29.0563

>  <r_i_glide_einternal>  (156) 
1.89642

>  <r_i_glide_intrahb_reward>  (156) 
-0

>  <i_i_glide_confnum>  (156) 
2

>  <i_i_glide_posenum>  (156) 
27

>  <r_i_glide_eff_state_penalty>  (156) 
0

>  <ligand_id>  (156) 
54

>  <original_smiles>  (156) 
COC1(C)C2OC(C)(C)C3OC(=O)C45C(=O)OC(C)=C6C=C(C)CCC6(C=C4C(C)C)CC32C(C)C(O)C(O)C51C(C)(C)O

>  <smiles>  (156) 
[H]OC1([H])C([H])(O[H])C2(C(O[H])(C([H])([H])[H])C([H])([H])[H])C34C(=O)OC(C([H])([H])[H])=C5C([H])=C(C([H])([H])[H])C([H])([H])C([H])([H])C5(C([H])=C3C([H])(C([H])([H])[H])C([H])([H])[H])C([H])([H])C3(C([H])(OC4=O)C(C([H])([H])[H])(C([H])([H])[H])OC3([H])C2(OC([H])([H])[H])C([H])([H])[H])C1([H])C([H])([H])[H]

$$$$
54:1:1
     RDKit          3D

 94 99  0  0  1  0  0  0  0  0999 V2000
   -2.4016    3.2151    7.0785 C   0  0  0  0  0  0  0  0  0  0  0  0
   -1.3565    2.5212    6.3924 O   0  0  0  0  0  0  0  0  0  0  0  0
   -0.0451    3.0811    6.1616 C   0  0  1  0  0  0  0  0  0  0  0  0
   -0.3156    4.6178    5.8928 C   0  0  0  0  0  0  0  0  0  0  0  0
    0.8596    2.9959    7.4523 C   0  0  1  0  0  0  0  0  0  0  0  0
    0.0566    2.8043    8.6224 O   0  0  0  0  0  0  0  0  0  0  0  0
    0.8411    2.2659    9.6638 C   0  0  0  0  0  0  0  0  0  0  0  0
    1.4823    3.3889   10.5017 C   0  0  0  0  0  0  0  0  0  0  0  0
   -0.0403    1.4136   10.6042 C   0  0  0  0  0  0  0  0  0  0  0  0
    1.8313    1.4496    8.8295 C   0  0  1  0  0  0  0  0  0  0  0  0
    1.1252    0.3315    8.2189 O   0  0  0  0  0  0  0  0  0  0  0  0
    0.2574    0.3430    7.0977 C   0  0  0  0  0  0  0  0  0  0  0  0
   -0.9393    0.2057    7.4023 O   0  0  0  0  0  0  0  0  0  0  0  0
    0.7566    0.5531    5.5092 C   0  0  2  0  0  0  0  0  0  0  0  0
   -0.0761   -0.7378    5.2131 C   0  0  0  0  0  0  0  0  0  0  0  0
   -1.1700   -0.7103    4.6651 O   0  0  0  0  0  0  0  0  0  0  0  0
    0.4834   -2.0131    5.6661 O   0  0  0  0  0  0  0  0  0  0  0  0
    1.3008   -2.3200    6.7721 C   0  0  0  0  0  0  0  0  0  0  0  0
    0.6302   -3.5064    7.4508 C   0  0  0  0  0  0  0  0  0  0  0  0
    2.4542   -1.7081    7.2768 C   0  0  0  0  0  0  0  0  0  0  0  0
    2.9510   -2.1847    8.5690 C   0  0  0  0  0  0  0  0  0  0  0  0
    4.2050   -1.9735    9.0237 C   0  0  0  0  0  0  0  0  0  0  0  0
    4.6458   -2.4118   10.4026 C   0  0  0  0  0  0  0  0  0  0  0  0
    5.2499   -1.2644    8.1891 C   0  0  0  0  0  0  0  0  0  0  0  0
    4.7885   -1.0456    6.7384 C   0  0  0  0  0  0  0  0  0  0  0  0
    3.3072   -0.5650    6.6074 C   0  0  1  0  0  0  0  0  0  0  0  0
    3.0298   -0.6311    5.1747 C   0  0  0  0  0  0  0  0  0  0  0  0
    1.9146   -0.1627    4.6431 C   0  0  0  0  0  0  0  0  0  0  0  0
    1.7489   -0.5984    3.1378 C   0  0  0  0  0  0  0  0  0  0  0  0
    1.6716   -2.1329    2.9032 C   0  0  0  0  0  0  0  0  0  0  0  0
    2.8793   -0.1225    2.1765 C   0  0  0  0  0  0  0  0  0  0  0  0
    3.2893    1.0226    6.9556 C   0  0  0  0  0  0  0  0  0  0  0  0
    2.2997    2.1810    7.6038 C   0  0  1  0  0  0  0  0  0  0  0  0
    3.2160    3.4188    7.3954 C   0  0  1  0  0  0  0  0  0  0  0  0
    4.7142    3.3612    7.8112 C   0  0  0  0  0  0  0  0  0  0  0  0
    2.8940    3.9023    5.9198 C   0  0  1  0  0  0  0  0  0  0  0  0
    4.0633    4.4452    5.3302 O   0  0  0  0  0  0  0  0  0  0  0  0
    2.0671    3.0157    4.8334 C   0  0  1  0  0  0  0  0  0  0  0  0
    3.0285    2.3478    4.0647 O   0  0  0  0  0  0  0  0  0  0  0  0
    0.6236    2.2059    4.9916 C   0  0  2  0  0  0  0  0  0  0  0  0
   -0.2187    2.4760    3.5804 C   0  0  0  0  0  0  0  0  0  0  0  0
    0.5124    2.2623    2.2250 C   0  0  0  0  0  0  0  0  0  0  0  0
   -1.6368    1.8826    3.4445 C   0  0  0  0  0  0  0  0  0  0  0  0
   -0.4479    3.8288    3.2912 O   0  0  0  0  0  0  0  0  0  0  0  0
   -3.1174    2.4780    7.4341 H   0  0  0  0  0  0  0  0  0  0  0  0
   -2.9534    3.8530    6.3909 H   0  0  0  0  0  0  0  0  0  0  0  0
   -2.0665    3.8010    7.9342 H   0  0  0  0  0  0  0  0  0  0  0  0
    0.4432    5.1196    5.3023 H   0  0  0  0  0  0  0  0  0  0  0  0
   -0.4101    5.1954    6.8095 H   0  0  0  0  0  0  0  0  0  0  0  0
   -1.2442    4.7851    5.3477 H   0  0  0  0  0  0  0  0  0  0  0  0
    1.0237    4.0336    7.7190 H   0  0  0  0  0  0  0  0  0  0  0  0
    2.1474    2.9847   11.2658 H   0  0  0  0  0  0  0  0  0  0  0  0
    0.7175    3.9675   11.0198 H   0  0  0  0  0  0  0  0  0  0  0  0
    2.0592    4.0985    9.9191 H   0  0  0  0  0  0  0  0  0  0  0  0
    0.5583    0.9190   11.3696 H   0  0  0  0  0  0  0  0  0  0  0  0
   -0.5948    0.6412   10.0769 H   0  0  0  0  0  0  0  0  0  0  0  0
   -0.7713    2.0307   11.1264 H   0  0  0  0  0  0  0  0  0  0  0  0
    2.6499    1.0827    9.4483 H   0  0  0  0  0  0  0  0  0  0  0  0
    1.2951   -4.1321    8.0510 H   0  0  0  0  0  0  0  0  0  0  0  0
    0.1977   -4.1639    6.7019 H   0  0  0  0  0  0  0  0  0  0  0  0
   -0.1837   -3.1612    8.0895 H   0  0  0  0  0  0  0  0  0  0  0  0
    2.2698   -2.6677    9.2557 H   0  0  0  0  0  0  0  0  0  0  0  0
    5.0074   -1.5619   10.9821 H   0  0  0  0  0  0  0  0  0  0  0  0
    5.4542   -3.1412   10.3287 H   0  0  0  0  0  0  0  0  0  0  0  0
    3.8278   -2.8731   10.9524 H   0  0  0  0  0  0  0  0  0  0  0  0
    5.4958   -0.3174    8.6691 H   0  0  0  0  0  0  0  0  0  0  0  0
    6.1612   -1.8628    8.1879 H   0  0  0  0  0  0  0  0  0  0  0  0
    5.4799   -0.3755    6.2186 H   0  0  0  0  0  0  0  0  0  0  0  0
    4.8904   -2.0095    6.2409 H   0  0  0  0  0  0  0  0  0  0  0  0
    3.7454   -1.1429    4.5535 H   0  0  0  0  0  0  0  0  0  0  0  0
    0.7758   -0.2968    2.7934 H   0  0  0  0  0  0  0  0  0  0  0  0
    0.7240   -2.5629    3.2366 H   0  0  0  0  0  0  0  0  0  0  0  0
    2.4924   -2.6879    3.3594 H   0  0  0  0  0  0  0  0  0  0  0  0
    1.7191   -2.3222    1.8370 H   0  0  0  0  0  0  0  0  0  0  0  0
    3.1055    0.9321    2.1905 H   0  0  0  0  0  0  0  0  0  0  0  0
    2.5807   -0.3128    1.1494 H   0  0  0  0  0  0  0  0  0  0  0  0
    3.8321   -0.6384    2.3389 H   0  0  0  0  0  0  0  0  0  0  0  0
    4.0257    1.0041    7.7489 H   0  0  0  0  0  0  0  0  0  0  0  0
    3.8542    1.4602    6.1401 H   0  0  0  0  0  0  0  0  0  0  0  0
    2.9357    4.2488    8.0378 H   0  0  0  0  0  0  0  0  0  0  0  0
    5.3381    2.7684    7.1420 H   0  0  0  0  0  0  0  0  0  0  0  0
    4.8211    2.9736    8.8220 H   0  0  0  0  0  0  0  0  0  0  0  0
    5.1411    4.3630    7.8171 H   0  0  0  0  0  0  0  0  0  0  0  0
    2.3292    4.8159    6.0625 H   0  0  0  0  0  0  0  0  0  0  0  0
    3.8207    4.7807    4.4806 H   0  0  0  0  0  0  0  0  0  0  0  0
    1.8209    3.8116    4.1414 H   0  0  0  0  0  0  0  0  0  0  0  0
    2.7409    2.3671    3.1644 H   0  0  0  0  0  0  0  0  0  0  0  0
    0.9797    1.3054    2.0743 H   0  0  0  0  0  0  0  0  0  0  0  0
    1.2811    3.0079    2.0392 H   0  0  0  0  0  0  0  0  0  0  0  0
   -0.1987    2.2388    1.3947 H   0  0  0  0  0  0  0  0  0  0  0  0
   -1.6439    0.8541    3.0866 H   0  0  0  0  0  0  0  0  0  0  0  0
   -2.2027    2.4056    2.6736 H   0  0  0  0  0  0  0  0  0  0  0  0
   -2.2624    1.9323    4.3428 H   0  0  0  0  0  0  0  0  0  0  0  0
   -0.2651    3.9894    2.3369 H   0  0  0  0  0  0  0  0  0  0  0  0
  1  2  1  0
  1 45  1  0
  1 46  1  0
  1 47  1  0
  3  2  1  1
  3 40  1  0
  3  4  1  0
  3  5  1  0
  4 48  1  0
  4 49  1  0
  4 50  1  0
  5 33  1  0
  5  6  1  0
  5 51  1  1
  6  7  1  0
  7  8  1  0
  7  9  1  0
  7 10  1  0
  8 52  1  0
  8 53  1  0
  8 54  1  0
  9 55  1  0
  9 56  1  0
  9 57  1  0
 10 33  1  0
 10 11  1  0
 10 58  1  1
 11 12  1  0
 12 13  2  0
 12 14  1  0
 14 28  1  0
 14 40  1  0
 14 15  1  6
 15 16  2  0
 15 17  1  0
 17 18  1  0
 18 19  1  0
 18 20  2  3
 19 59  1  0
 19 60  1  0
 19 61  1  0
 20 26  1  0
 20 21  1  0
 21 22  2  0
 21 62  1  0
 22 23  1  0
 22 24  1  0
 23 63  1  0
 23 64  1  0
 23 65  1  0
 24 25  1  0
 24 66  1  0
 24 67  1  0
 26 25  1  6
 25 68  1  0
 25 69  1  0
 26 27  1  0
 26 32  1  0
 27 28  2  3
 27 70  1  0
 28 29  1  0
 29 30  1  0
 29 31  1  0
 29 71  1  0
 30 72  1  0
 30 73  1  0
 30 74  1  0
 31 75  1  0
 31 76  1  0
 31 77  1  0
 33 32  1  6
 32 78  1  0
 32 79  1  0
 33 34  1  0
 34 35  1  0
 34 36  1  0
 34 80  1  1
 35 81  1  0
 35 82  1  0
 35 83  1  0
 36 37  1  0
 36 38  1  0
 36 84  1  1
 37 85  1  0
 38 39  1  0
 38 40  1  0
 38 86  1  6
 39 87  1  0
 40 41  1  6
 41 42  1  0
 41 43  1  0
 41 44  1  0
 42 88  1  0
 42 89  1  0
 42 90  1  0
 43 91  1  0
 43 92  1  0
 43 93  1  0
 44 94  1  0
M  END
>  <i_m_ct_stereo_status>  (157) 
1

>  <s_m_source_file>  (157) 
/var/tmp/pbs.5076255.sched01/tmpy176o0g7/39stoh4b52.sdf

>  <i_m_source_file_index>  (157) 
31

>  <i_lp_mmshare_version>  (157) 
48012

>  <i_f3d_flags>  (157) 
3

>  <s_epik_input>  (157) 
W0NIM11DKFtDSDNdKShbT0hdKVtDQF0xKEMyMzQpW0NAQF0oW0NIM10pKE9bQ0gzXSlbQ0BASF01W0NAXShbQ0BASF0oQyhPNSkoW0NIM10pW0NIM10pT0MyPU8pKFtDQEBIXShbQ0gzXSlbQ0BASF0oW09IXSlbQ0BIXTFbT0hdKVtDSDJdW0NAQF02KC9bQ0hdPUNcNFtDSF0oW0NIM10pW0NIM10pQyg9QyhbQ0gzXSlcT0MzPU8pL1tDSF09QyhbQ0gzXSlbQ0gyXVtDSDJdNg==

>  <s_epik_cmdline>  (157) 
J2VwaWtfcHl0aG9uJywgJy1waHQnLCAnMi4wJywgJy1waCcsICc3LjAnLCAnLXRuJywgJzgnLCAnLW1hJywgJzIwMCcsICctaW1hZScsICc8aW5maWxlLm1hZT4nLCAnLW9tYWUnLCAnPG91dGZpbGUubWFlPic=

>  <r_lp_tautomer_probability>  (157) 
1

>  <r_epik_Ionization_Penalty>  (157) 
8.13673e-07

>  <r_epik_Ionization_Penalty_Charging>  (157) 
0

>  <r_epik_Ionization_Penalty_Neutral>  (157) 
8.13673e-07

>  <r_epik_State_Penalty>  (157) 
-0

>  <r_epik_Charging_Adjusted_Penalty>  (157) 
0

>  <i_epik_Tot_Q>  (157) 
0

>  <i_epik_Tot_abs_Q>  (157) 
0

>  <s_epik_Chemistry_Notes>  (157) 
This compound has an ester and may undergo hydrolysis at high or low pH.

>  <s_lp_Force_Field>  (157) 
OPLS3e

>  <r_lp_Energy>  (157) 
395.666

>  <b_lp_Chiralities_Consistent>  (157) 
0

>  <s_lp_Variant>  (157) 
54:0-2

>  <s_i_glide_gridfile>  (157) 
pfpi4k_grid

>  <i_i_glide_lignum>  (157) 
31

>  <i_i_glide_rotatable_bonds>  (157) 
6

>  <r_i_docking_score>  (157) 
-2.49369

>  <r_i_glide_ligand_efficiency>  (157) 
-0.0566748

>  <r_i_glide_ligand_efficiency_sa>  (157) 
-0.200082

>  <r_i_glide_ligand_efficiency_ln>  (157) 
-0.521236

>  <r_i_glide_gscore>  (157) 
-2.49369

>  <r_i_glide_lipo>  (157) 
-0.110704

>  <r_i_glide_hbond>  (157) 
-0.0978573

>  <r_i_glide_metal>  (157) 
-0

>  <r_i_glide_rewards>  (157) 
0

>  <r_i_glide_evdw>  (157) 
-19.181

>  <r_i_glide_ecoul>  (157) 
-8.97062

>  <r_i_glide_erotb>  (157) 
0.0557561

>  <r_i_glide_esite>  (157) 
-0.0362437

>  <r_i_glide_emodel>  (157) 
-30.1819

>  <r_i_glide_energy>  (157) 
-28.1516

>  <r_i_glide_einternal>  (157) 
2.09893

>  <r_i_glide_intrahb_reward>  (157) 
-0

>  <i_i_glide_confnum>  (157) 
2

>  <i_i_glide_posenum>  (157) 
2

>  <r_i_glide_eff_state_penalty>  (157) 
0

>  <ligand_id>  (157) 
54

>  <original_smiles>  (157) 
COC1(C)C2OC(C)(C)C3OC(=O)C45C(=O)OC(C)=C6C=C(C)CCC6(C=C4C(C)C)CC32C(C)C(O)C(O)C51C(C)(C)O

>  <smiles>  (157) 
[H]OC1([H])C([H])(O[H])C2(C(O[H])(C([H])([H])[H])C([H])([H])[H])C34C(=O)OC(C([H])([H])[H])=C5C([H])=C(C([H])([H])[H])C([H])([H])C([H])([H])C5(C([H])=C3C([H])(C([H])([H])[H])C([H])([H])[H])C([H])([H])C3(C([H])(OC4=O)C(C([H])([H])[H])(C([H])([H])[H])OC3([H])C2(OC([H])([H])[H])C([H])([H])[H])C1([H])C([H])([H])[H]

$$$$
54:1:2
     RDKit          3D

 94 99  0  0  1  0  0  0  0  0999 V2000
   -1.7705   -4.8690    7.3533 C   0  0  0  0  0  0  0  0  0  0  0  0
   -0.5163   -4.3787    6.8673 O   0  0  0  0  0  0  0  0  0  0  0  0
    0.7143   -4.5236    7.6222 C   0  0  1  0  0  0  0  0  0  0  0  0
    0.2824   -4.2935    9.1286 C   0  0  0  0  0  0  0  0  0  0  0  0
    1.2956   -5.9908    7.5517 C   0  0  1  0  0  0  0  0  0  0  0  0
    0.2763   -6.9241    7.1679 O   0  0  0  0  0  0  0  0  0  0  0  0
    0.8739   -8.0921    6.6519 C   0  0  0  0  0  0  0  0  0  0  0  0
    1.1276   -9.1120    7.7757 C   0  0  0  0  0  0  0  0  0  0  0  0
   -0.0666   -8.7446    5.6130 C   0  0  0  0  0  0  0  0  0  0  0  0
    2.1466   -7.4895    6.0494 C   0  0  1  0  0  0  0  0  0  0  0  0
    1.7813   -6.6903    4.8966 O   0  0  0  0  0  0  0  0  0  0  0  0
    1.2017   -5.3987    4.8778 C   0  0  0  0  0  0  0  0  0  0  0  0
    0.0141   -5.4170    4.5214 O   0  0  0  0  0  0  0  0  0  0  0  0
    2.0251   -3.9875    5.2975 C   0  0  2  0  0  0  0  0  0  0  0  0
    1.4973   -3.4293    3.9322 C   0  0  0  0  0  0  0  0  0  0  0  0
    0.5981   -2.6048    3.8743 O   0  0  0  0  0  0  0  0  0  0  0  0
    2.1249   -3.9303    2.7188 O   0  0  0  0  0  0  0  0  0  0  0  0
    2.6849   -5.1843    2.4199 C   0  0  0  0  0  0  0  0  0  0  0  0
    2.0604   -5.6197    1.1094 C   0  0  0  0  0  0  0  0  0  0  0  0
    3.5832   -5.9789    3.1400 C   0  0  0  0  0  0  0  0  0  0  0  0
    3.8149   -7.3337    2.6236 C   0  0  0  0  0  0  0  0  0  0  0  0
    4.8856   -8.0845    2.9644 C   0  0  0  0  0  0  0  0  0  0  0  0
    5.0577   -9.5101    2.4731 C   0  0  0  0  0  0  0  0  0  0  0  0
    5.9754   -7.5623    3.8702 C   0  0  0  0  0  0  0  0  0  0  0  0
    5.8395   -6.0553    4.1507 C   0  0  0  0  0  0  0  0  0  0  0  0
    4.3761   -5.5935    4.4327 C   0  0  1  0  0  0  0  0  0  0  0  0
    4.4696   -4.1358    4.4683 C   0  0  0  0  0  0  0  0  0  0  0  0
    3.4406   -3.3744    4.8262 C   0  0  0  0  0  0  0  0  0  0  0  0
    3.6956   -1.8498    4.5002 C   0  0  0  0  0  0  0  0  0  0  0  0
    3.9824   -1.5591    3.0083 C   0  0  0  0  0  0  0  0  0  0  0  0
    4.8710   -1.1919    5.2475 C   0  0  0  0  0  0  0  0  0  0  0  0
    4.0408   -6.0059    5.9743 C   0  0  0  0  0  0  0  0  0  0  0  0
    2.7655   -6.4496    6.9344 C   0  0  1  0  0  0  0  0  0  0  0  0
    3.5078   -6.5286    8.2904 C   0  0  1  0  0  0  0  0  0  0  0  0
    4.8608   -7.2843    8.3949 C   0  0  0  0  0  0  0  0  0  0  0  0
    3.4666   -5.0486    8.8590 C   0  0  1  0  0  0  0  0  0  0  0  0
    4.6460   -4.7984    9.5950 O   0  0  0  0  0  0  0  0  0  0  0  0
    3.0601   -3.7459    7.9656 C   0  0  1  0  0  0  0  0  0  0  0  0
    4.2657   -3.2034    7.4954 O   0  0  0  0  0  0  0  0  0  0  0  0
    1.7557   -3.5218    6.9528 C   0  0  2  0  0  0  0  0  0  0  0  0
    1.2324   -1.9686    7.1993 C   0  0  0  0  0  0  0  0  0  0  0  0
    2.2718   -0.8161    7.3095 C   0  0  0  0  0  0  0  0  0  0  0  0
    0.0339   -1.4305    6.3835 C   0  0  0  0  0  0  0  0  0  0  0  0
    0.7414   -1.7233    8.4959 O   0  0  0  0  0  0  0  0  0  0  0  0
   -2.4281   -5.0190    6.5042 H   0  0  0  0  0  0  0  0  0  0  0  0
   -2.2566   -4.1433    8.0041 H   0  0  0  0  0  0  0  0  0  0  0  0
   -1.6910   -5.8087    7.8941 H   0  0  0  0  0  0  0  0  0  0  0  0
    1.0738   -3.9282    9.7693 H   0  0  0  0  0  0  0  0  0  0  0  0
   -0.1206   -5.1847    9.6077 H   0  0  0  0  0  0  0  0  0  0  0  0
   -0.5140   -3.5629    9.2194 H   0  0  0  0  0  0  0  0  0  0  0  0
    1.2439   -6.3258    8.5794 H   0  0  0  0  0  0  0  0  0  0  0  0
    1.6535   -9.9788    7.3854 H   0  0  0  0  0  0  0  0  0  0  0  0
    0.1856   -9.4625    8.1935 H   0  0  0  0  0  0  0  0  0  0  0  0
    1.7118   -8.7223    8.5986 H   0  0  0  0  0  0  0  0  0  0  0  0
    0.4117   -9.6043    5.1487 H   0  0  0  0  0  0  0  0  0  0  0  0
   -0.3617   -8.0622    4.8158 H   0  0  0  0  0  0  0  0  0  0  0  0
   -0.9865   -9.1052    6.0775 H   0  0  0  0  0  0  0  0  0  0  0  0
    2.8379   -8.2719    5.7579 H   0  0  0  0  0  0  0  0  0  0  0  0
    2.6570   -6.3257    0.5194 H   0  0  0  0  0  0  0  0  0  0  0  0
    1.9105   -4.7541    0.4542 H   0  0  0  0  0  0  0  0  0  0  0  0
    1.0817   -6.0799    1.2927 H   0  0  0  0  0  0  0  0  0  0  0  0
    3.0776   -7.8068    2.0000 H   0  0  0  0  0  0  0  0  0  0  0  0
    5.1407  -10.1924    3.3181 H   0  0  0  0  0  0  0  0  0  0  0  0
    5.9621   -9.5891    1.8726 H   0  0  0  0  0  0  0  0  0  0  0  0
    4.2126   -9.8216    1.8616 H   0  0  0  0  0  0  0  0  0  0  0  0
    5.9592   -8.1366    4.7976 H   0  0  0  0  0  0  0  0  0  0  0  0
    6.9357   -7.7457    3.3944 H   0  0  0  0  0  0  0  0  0  0  0  0
    6.5231   -5.7556    4.9513 H   0  0  0  0  0  0  0  0  0  0  0  0
    6.2004   -5.5495    3.2539 H   0  0  0  0  0  0  0  0  0  0  0  0
    5.3747   -3.6841    4.0973 H   0  0  0  0  0  0  0  0  0  0  0  0
    2.7816   -1.2763    4.6530 H   0  0  0  0  0  0  0  0  0  0  0  0
    3.1102   -1.6724    2.3651 H   0  0  0  0  0  0  0  0  0  0  0  0
    4.8046   -2.1509    2.5753 H   0  0  0  0  0  0  0  0  0  0  0  0
    4.2909   -0.5134    2.8919 H   0  0  0  0  0  0  0  0  0  0  0  0
    4.8608   -1.2925    6.3356 H   0  0  0  0  0  0  0  0  0  0  0  0
    4.9027   -0.1212    5.0514 H   0  0  0  0  0  0  0  0  0  0  0  0
    5.8015   -1.5900    4.8357 H   0  0  0  0  0  0  0  0  0  0  0  0
    4.5634   -6.9514    5.9832 H   0  0  0  0  0  0  0  0  0  0  0  0
    4.7133   -5.3702    6.5469 H   0  0  0  0  0  0  0  0  0  0  0  0
    2.9712   -7.1298    9.0121 H   0  0  0  0  0  0  0  0  0  0  0  0
    5.7066   -6.7570    7.9482 H   0  0  0  0  0  0  0  0  0  0  0  0
    4.7881   -8.2757    7.9420 H   0  0  0  0  0  0  0  0  0  0  0  0
    5.1175   -7.4397    9.4450 H   0  0  0  0  0  0  0  0  0  0  0  0
    2.7510   -5.1041    9.6685 H   0  0  0  0  0  0  0  0  0  0  0  0
    4.5453   -3.9561   10.0107 H   0  0  0  0  0  0  0  0  0  0  0  0
    2.8513   -3.0514    8.7703 H   0  0  0  0  0  0  0  0  0  0  0  0
    4.1026   -2.3156    7.2136 H   0  0  0  0  0  0  0  0  0  0  0  0
    2.9503   -0.7082    6.4830 H   0  0  0  0  0  0  0  0  0  0  0  0
    2.8812   -0.8586    8.2317 H   0  0  0  0  0  0  0  0  0  0  0  0
    1.7398    0.1561    7.4036 H   0  0  0  0  0  0  0  0  0  0  0  0
    0.3712   -0.9821    5.4524 H   0  0  0  0  0  0  0  0  0  0  0  0
   -0.4335   -0.5786    6.8728 H   0  0  0  0  0  0  0  0  0  0  0  0
   -0.7542   -2.1423    6.1711 H   0  0  0  0  0  0  0  0  0  0  0  0
    0.9320   -0.8268    8.7376 H   0  0  0  0  0  0  0  0  0  0  0  0
  1  2  1  0
  1 45  1  0
  1 46  1  0
  1 47  1  0
  3  2  1  6
  3 40  1  0
  3  4  1  0
  3  5  1  0
  4 48  1  0
  4 49  1  0
  4 50  1  0
  5 33  1  0
  5  6  1  0
  5 51  1  1
  6  7  1  0
  7  8  1  0
  7  9  1  0
  7 10  1  0
  8 52  1  0
  8 53  1  0
  8 54  1  0
  9 55  1  0
  9 56  1  0
  9 57  1  0
 10 33  1  0
 10 11  1  0
 10 58  1  6
 11 12  1  0
 12 13  2  0
 12 14  1  0
 14 28  1  0
 14 40  1  0
 14 15  1  6
 15 16  2  0
 15 17  1  0
 17 18  1  0
 18 19  1  0
 18 20  2  3
 19 59  1  0
 19 60  1  0
 19 61  1  0
 20 26  1  0
 20 21  1  0
 21 22  2  0
 21 62  1  0
 22 23  1  0
 22 24  1  0
 23 63  1  0
 23 64  1  0
 23 65  1  0
 24 25  1  0
 24 66  1  0
 24 67  1  0
 26 25  1  6
 25 68  1  0
 25 69  1  0
 26 27  1  0
 26 32  1  0
 27 28  2  3
 27 70  1  0
 28 29  1  0
 29 30  1  0
 29 31  1  0
 29 71  1  0
 30 72  1  0
 30 73  1  0
 30 74  1  0
 31 75  1  0
 31 76  1  0
 31 77  1  0
 33 32  1  6
 32 78  1  0
 32 79  1  0
 33 34  1  0
 34 35  1  0
 34 36  1  0
 34 80  1  1
 35 81  1  0
 35 82  1  0
 35 83  1  0
 36 37  1  0
 36 38  1  0
 36 84  1  1
 37 85  1  0
 38 39  1  0
 38 40  1  0
 38 86  1  1
 39 87  1  0
 40 41  1  6
 41 42  1  0
 41 43  1  0
 41 44  1  0
 42 88  1  0
 42 89  1  0
 42 90  1  0
 43 91  1  0
 43 92  1  0
 43 93  1  0
 44 94  1  0
M  END
>  <i_m_ct_stereo_status>  (158) 
1

>  <s_m_source_file>  (158) 
/var/tmp/pbs.5076255.sched01/tmpy176o0g7/39stoh4b52.sdf

>  <i_m_source_file_index>  (158) 
31

>  <i_lp_mmshare_version>  (158) 
48012

>  <i_f3d_flags>  (158) 
3

>  <s_epik_input>  (158) 
W0NIM11DKFtDSDNdKShbT0hdKVtDQF0xKEMyMzQpW0NAQF0oW0NIM10pKE9bQ0gzXSlbQ0BASF01W0NAXShbQ0BASF0oQyhPNSkoW0NIM10pW0NIM10pT0MyPU8pKFtDQEBIXShbQ0gzXSlbQ0BASF0oW09IXSlbQ0BIXTFbT0hdKVtDSDJdW0NAQF02KC9bQ0hdPUNcNFtDSF0oW0NIM10pW0NIM10pQyg9QyhbQ0gzXSlcT0MzPU8pL1tDSF09QyhbQ0gzXSlbQ0gyXVtDSDJdNg==

>  <s_epik_cmdline>  (158) 
J2VwaWtfcHl0aG9uJywgJy1waHQnLCAnMi4wJywgJy1waCcsICc3LjAnLCAnLXRuJywgJzgnLCAnLW1hJywgJzIwMCcsICctaW1hZScsICc8aW5maWxlLm1hZT4nLCAnLW9tYWUnLCAnPG91dGZpbGUubWFlPic=

>  <r_lp_tautomer_probability>  (158) 
1

>  <r_epik_Ionization_Penalty>  (158) 
8.13673e-07

>  <r_epik_Ionization_Penalty_Charging>  (158) 
0

>  <r_epik_Ionization_Penalty_Neutral>  (158) 
8.13673e-07

>  <r_epik_State_Penalty>  (158) 
-0

>  <r_epik_Charging_Adjusted_Penalty>  (158) 
0

>  <i_epik_Tot_Q>  (158) 
0

>  <i_epik_Tot_abs_Q>  (158) 
0

>  <s_epik_Chemistry_Notes>  (158) 
This compound has an ester and may undergo hydrolysis at high or low pH.

>  <s_lp_Force_Field>  (158) 
OPLS3e

>  <r_lp_Energy>  (158) 
395.666

>  <b_lp_Chiralities_Consistent>  (158) 
0

>  <s_lp_Variant>  (158) 
54:0-2

>  <s_i_glide_gridfile>  (158) 
pfpi4k_grid

>  <i_i_glide_lignum>  (158) 
31

>  <i_i_glide_rotatable_bonds>  (158) 
6

>  <r_i_docking_score>  (158) 
-1.14097

>  <r_i_glide_ligand_efficiency>  (158) 
-0.0259312

>  <r_i_glide_ligand_efficiency_sa>  (158) 
-0.0915462

>  <r_i_glide_ligand_efficiency_ln>  (158) 
-0.238488

>  <r_i_glide_gscore>  (158) 
-1.14097

>  <r_i_glide_lipo>  (158) 
-0.0985239

>  <r_i_glide_hbond>  (158) 
0

>  <r_i_glide_metal>  (158) 
-0

>  <r_i_glide_rewards>  (158) 
-0.0304891

>  <r_i_glide_evdw>  (158) 
-21.7314

>  <r_i_glide_ecoul>  (158) 
0.141123

>  <r_i_glide_erotb>  (158) 
0.0557561

>  <r_i_glide_esite>  (158) 
-0.00231489

>  <r_i_glide_emodel>  (158) 
-22.0552

>  <r_i_glide_energy>  (158) 
-21.5903

>  <r_i_glide_einternal>  (158) 
1.43509

>  <r_i_glide_intrahb_reward>  (158) 
-0

>  <i_i_glide_confnum>  (158) 
2

>  <i_i_glide_posenum>  (158) 
11

>  <r_i_glide_eff_state_penalty>  (158) 
0

>  <ligand_id>  (158) 
54

>  <original_smiles>  (158) 
COC1(C)C2OC(C)(C)C3OC(=O)C45C(=O)OC(C)=C6C=C(C)CCC6(C=C4C(C)C)CC32C(C)C(O)C(O)C51C(C)(C)O

>  <smiles>  (158) 
[H]OC1([H])C([H])(O[H])C2(C(O[H])(C([H])([H])[H])C([H])([H])[H])C34C(=O)OC(C([H])([H])[H])=C5C([H])=C(C([H])([H])[H])C([H])([H])C([H])([H])C5(C([H])=C3C([H])(C([H])([H])[H])C([H])([H])[H])C([H])([H])C3(C([H])(OC4=O)C(C([H])([H])[H])(C([H])([H])[H])OC3([H])C2(OC([H])([H])[H])C([H])([H])[H])C1([H])C([H])([H])[H]

$$$$
54:2:0
     RDKit          3D

 94 99  0  0  1  0  0  0  0  0999 V2000
   -2.2771    3.1545    7.0909 C   0  0  0  0  0  0  0  0  0  0  0  0
   -1.2791    2.4695    6.3310 O   0  0  0  0  0  0  0  0  0  0  0  0
    0.0639    2.9614    6.1413 C   0  0  1  0  0  0  0  0  0  0  0  0
   -0.1434    4.5160    5.9245 C   0  0  0  0  0  0  0  0  0  0  0  0
    0.9579    2.8077    7.4331 C   0  0  1  0  0  0  0  0  0  0  0  0
    0.1444    2.6253    8.5979 O   0  0  0  0  0  0  0  0  0  0  0  0
    0.8994    2.0324    9.6265 C   0  0  0  0  0  0  0  0  0  0  0  0
    1.5840    3.1140   10.4885 C   0  0  0  0  0  0  0  0  0  0  0  0
   -0.0258    1.2039   10.5426 C   0  0  0  0  0  0  0  0  0  0  0  0
    1.8531    1.1888    8.7743 C   0  0  1  0  0  0  0  0  0  0  0  0
    1.0937    0.1219    8.1383 O   0  0  0  0  0  0  0  0  0  0  0  0
    0.2337    0.1997    7.0084 C   0  0  0  0  0  0  0  0  0  0  0  0
   -0.9729    0.1410    7.2989 O   0  0  0  0  0  0  0  0  0  0  0  0
    0.7585    0.4098    5.4337 C   0  0  2  0  0  0  0  0  0  0  0  0
   -0.1298   -0.8423    5.1104 C   0  0  0  0  0  0  0  0  0  0  0  0
   -1.2237   -0.7606    4.5586 O   0  0  0  0  0  0  0  0  0  0  0  0
    0.3801   -2.1409    5.5271 O   0  0  0  0  0  0  0  0  0  0  0  0
    1.1724   -2.5046    6.6399 C   0  0  0  0  0  0  0  0  0  0  0  0
    0.4413   -3.6739    7.2918 C   0  0  0  0  0  0  0  0  0  0  0  0
    2.3407   -1.9528    7.1595 C   0  0  0  0  0  0  0  0  0  0  0  0
    2.8126   -2.4783    8.4474 C   0  0  0  0  0  0  0  0  0  0  0  0
    4.0683   -2.3280    8.9093 C   0  0  0  0  0  0  0  0  0  0  0  0
    4.4883   -2.8175   10.2840 C   0  0  0  0  0  0  0  0  0  0  0  0
    5.1523   -1.6534    8.0950 C   0  0  0  0  0  0  0  0  0  0  0  0
    4.7054   -1.3851    6.6471 C   0  0  0  0  0  0  0  0  0  0  0  0
    3.2491   -0.8362    6.5210 C   0  0  1  0  0  0  0  0  0  0  0  0
    2.9841   -0.8573    5.0828 C   0  0  0  0  0  0  0  0  0  0  0  0
    1.8882   -0.3367    4.5550 C   0  0  0  0  0  0  0  0  0  0  0  0
    1.7232   -0.7352    3.0407 C   0  0  0  0  0  0  0  0  0  0  0  0
    1.6640   -2.2527    2.7724 C   0  0  0  0  0  0  0  0  0  0  0  0
    2.8412   -0.2214    2.0815 C   0  0  0  0  0  0  0  0  0  0  0  0
    3.2999    0.7423    6.9046 C   0  0  0  0  0  0  0  0  0  0  0  0
    2.3585    1.9310    7.5676 C   0  0  1  0  0  0  0  0  0  0  0  0
    3.3279    3.1327    7.3840 C   0  0  1  0  0  0  0  0  0  0  0  0
    4.8192    2.9998    7.8036 C   0  0  0  0  0  0  0  0  0  0  0  0
    3.0320    3.6605    5.9131 C   0  0  1  0  0  0  0  0  0  0  0  0
    4.2259    4.1361    5.3224 O   0  0  0  0  0  0  0  0  0  0  0  0
    2.1719    2.8238    4.8099 C   0  0  1  0  0  0  0  0  0  0  0  0
    3.0980    2.1146    4.0383 O   0  0  0  0  0  0  0  0  0  0  0  0
    0.6944    2.0785    4.9599 C   0  0  2  0  0  0  0  0  0  0  0  0
   -0.1262    2.3931    3.5571 C   0  0  0  0  0  0  0  0  0  0  0  0
    0.5874    2.2006    2.1988 C   0  0  0  0  0  0  0  0  0  0  0  0
   -1.5650    1.8566    3.3888 C   0  0  0  0  0  0  0  0  0  0  0  0
   -0.3501    3.7666    3.3545 O   0  0  0  0  0  0  0  0  0  0  0  0
   -3.0183    2.4245    7.4089 H   0  0  0  0  0  0  0  0  0  0  0  0
   -2.8021    3.8715    6.4645 H   0  0  0  0  0  0  0  0  0  0  0  0
   -1.9066    3.6627    7.9792 H   0  0  0  0  0  0  0  0  0  0  0  0
    0.6324    4.9939    5.3387 H   0  0  0  0  0  0  0  0  0  0  0  0
   -0.2219    5.0841    6.8537 H   0  0  0  0  0  0  0  0  0  0  0  0
   -1.0682    4.7342    5.3966 H   0  0  0  0  0  0  0  0  0  0  0  0
    1.1655    3.8329    7.7186 H   0  0  0  0  0  0  0  0  0  0  0  0
    2.2251    2.6646   11.2452 H   0  0  0  0  0  0  0  0  0  0  0  0
    0.8383    3.7137   11.0116 H   0  0  0  0  0  0  0  0  0  0  0  0
    2.1909    3.8087    9.9200 H   0  0  0  0  0  0  0  0  0  0  0  0
    0.5448    0.6691   11.2992 H   0  0  0  0  0  0  0  0  0  0  0  0
   -0.6106    0.4696    9.9929 H   0  0  0  0  0  0  0  0  0  0  0  0
   -0.7340    1.8437   11.0712 H   0  0  0  0  0  0  0  0  0  0  0  0
    2.6512    0.7760    9.3892 H   0  0  0  0  0  0  0  0  0  0  0  0
    1.0769   -4.3401    7.8788 H   0  0  0  0  0  0  0  0  0  0  0  0
   -0.0181   -4.2996    6.5248 H   0  0  0  0  0  0  0  0  0  0  0  0
   -0.3592   -3.3053    7.9365 H   0  0  0  0  0  0  0  0  0  0  0  0
    2.1092   -2.9443    9.1200 H   0  0  0  0  0  0  0  0  0  0  0  0
    4.8819   -1.9934   10.8791 H   0  0  0  0  0  0  0  0  0  0  0  0
    5.2633   -3.5786   10.1951 H   0  0  0  0  0  0  0  0  0  0  0  0
    3.6456   -3.2532   10.8206 H   0  0  0  0  0  0  0  0  0  0  0  0
    5.4377   -0.7284    8.5959 H   0  0  0  0  0  0  0  0  0  0  0  0
    6.0359   -2.2899    8.0852 H   0  0  0  0  0  0  0  0  0  0  0  0
    5.4277   -0.7351    6.1457 H   0  0  0  0  0  0  0  0  0  0  0  0
    4.7701   -2.3438    6.1287 H   0  0  0  0  0  0  0  0  0  0  0  0
    3.6846   -1.3847    4.4535 H   0  0  0  0  0  0  0  0  0  0  0  0
    0.7381   -0.4489    2.6998 H   0  0  0  0  0  0  0  0  0  0  0  0
    0.7351   -2.7089    3.1156 H   0  0  0  0  0  0  0  0  0  0  0  0
    2.5053   -2.8089    3.1946 H   0  0  0  0  0  0  0  0  0  0  0  0
    1.6994   -2.4225    1.6962 H   0  0  0  0  0  0  0  0  0  0  0  0
    3.0446    0.8457    2.1162 H   0  0  0  0  0  0  0  0  0  0  0  0
    2.5387   -0.3934    1.0467 H   0  0  0  0  0  0  0  0  0  0  0  0
    3.7868   -0.7416    2.2239 H   0  0  0  0  0  0  0  0  0  0  0  0
    4.0317    0.6731    7.6997 H   0  0  0  0  0  0  0  0  0  0  0  0
    3.8926    1.1685    6.1013 H   0  0  0  0  0  0  0  0  0  0  0  0
    3.0849    3.9559    8.0477 H   0  0  0  0  0  0  0  0  0  0  0  0
    5.4212    2.3912    7.1276 H   0  0  0  0  0  0  0  0  0  0  0  0
    4.9049    2.5848    8.8107 H   0  0  0  0  0  0  0  0  0  0  0  0
    5.2919    3.9831    7.8335 H   0  0  0  0  0  0  0  0  0  0  0  0
    2.5141    4.5985    6.0800 H   0  0  0  0  0  0  0  0  0  0  0  0
    3.9914    4.6182    4.5395 H   0  0  0  0  0  0  0  0  0  0  0  0
    1.9687    3.6391    4.1228 H   0  0  0  0  0  0  0  0  0  0  0  0
    3.6241    2.7328    3.5463 H   0  0  0  0  0  0  0  0  0  0  0  0
    1.0259    1.2665    2.0035 H   0  0  0  0  0  0  0  0  0  0  0  0
    1.3648    2.9484    2.0102 H   0  0  0  0  0  0  0  0  0  0  0  0
   -0.1251    2.2563    1.3728 H   0  0  0  0  0  0  0  0  0  0  0  0
   -1.5710    0.8528    2.9779 H   0  0  0  0  0  0  0  0  0  0  0  0
   -2.1062    2.4190    2.6260 H   0  0  0  0  0  0  0  0  0  0  0  0
   -2.1904    1.8794    4.2773 H   0  0  0  0  0  0  0  0  0  0  0  0
   -0.1987    3.9816    2.4158 H   0  0  0  0  0  0  0  0  0  0  0  0
  1  2  1  0
  1 45  1  0
  1 46  1  0
  1 47  1  0
  3  2  1  1
  3 40  1  0
  3  4  1  0
  3  5  1  0
  4 48  1  0
  4 49  1  0
  4 50  1  0
  5 33  1  0
  5  6  1  0
  5 51  1  1
  6  7  1  0
  7  8  1  0
  7  9  1  0
  7 10  1  0
  8 52  1  0
  8 53  1  0
  8 54  1  0
  9 55  1  0
  9 56  1  0
  9 57  1  0
 10 33  1  0
 10 11  1  0
 10 58  1  1
 11 12  1  0
 12 13  2  0
 12 14  1  0
 14 28  1  0
 14 40  1  0
 14 15  1  6
 15 16  2  0
 15 17  1  0
 17 18  1  0
 18 19  1  0
 18 20  2  3
 19 59  1  0
 19 60  1  0
 19 61  1  0
 20 26  1  0
 20 21  1  0
 21 22  2  0
 21 62  1  0
 22 23  1  0
 22 24  1  0
 23 63  1  0
 23 64  1  0
 23 65  1  0
 24 25  1  0
 24 66  1  0
 24 67  1  0
 26 25  1  6
 25 68  1  0
 25 69  1  0
 26 27  1  0
 26 32  1  0
 27 28  2  3
 27 70  1  0
 28 29  1  0
 29 30  1  0
 29 31  1  0
 29 71  1  0
 30 72  1  0
 30 73  1  0
 30 74  1  0
 31 75  1  0
 31 76  1  0
 31 77  1  0
 33 32  1  6
 32 78  1  0
 32 79  1  0
 33 34  1  0
 34 35  1  0
 34 36  1  0
 34 80  1  1
 35 81  1  0
 35 82  1  0
 35 83  1  0
 36 37  1  0
 36 38  1  0
 36 84  1  1
 37 85  1  0
 38 39  1  0
 38 40  1  0
 38 86  1  6
 39 87  1  0
 40 41  1  6
 41 42  1  0
 41 43  1  0
 41 44  1  0
 42 88  1  0
 42 89  1  0
 42 90  1  0
 43 91  1  0
 43 92  1  0
 43 93  1  0
 44 94  1  0
M  END
>  <i_m_ct_stereo_status>  (159) 
1

>  <s_m_source_file>  (159) 
/var/tmp/pbs.5076255.sched01/tmpy176o0g7/39stoh4b52.sdf

>  <i_m_source_file_index>  (159) 
32

>  <i_lp_mmshare_version>  (159) 
48012

>  <i_f3d_flags>  (159) 
3

>  <s_epik_input>  (159) 
W0NIM11DKFtDSDNdKShbT0hdKVtDQF0xKEMyMzQpW0NAQF0oW0NIM10pKE9bQ0gzXSlbQ0BASF01W0NAXShbQ0BASF0oQyhPNSkoW0NIM10pW0NIM10pT0MyPU8pKFtDQEBIXShbQ0gzXSlbQ0BASF0oW09IXSlbQ0BIXTFbT0hdKVtDSDJdW0NAQF02KC9bQ0hdPUNcNFtDSF0oW0NIM10pW0NIM10pQyg9QyhbQ0gzXSlcT0MzPU8pL1tDSF09QyhbQ0gzXSlbQ0gyXVtDSDJdNg==

>  <s_epik_cmdline>  (159) 
J2VwaWtfcHl0aG9uJywgJy1waHQnLCAnMi4wJywgJy1waCcsICc3LjAnLCAnLXRuJywgJzgnLCAnLW1hJywgJzIwMCcsICctaW1hZScsICc8aW5maWxlLm1hZT4nLCAnLW9tYWUnLCAnPG91dGZpbGUubWFlPic=

>  <r_lp_tautomer_probability>  (159) 
1

>  <r_epik_Ionization_Penalty>  (159) 
8.13673e-07

>  <r_epik_Ionization_Penalty_Charging>  (159) 
0

>  <r_epik_Ionization_Penalty_Neutral>  (159) 
8.13673e-07

>  <r_epik_State_Penalty>  (159) 
-0

>  <r_epik_Charging_Adjusted_Penalty>  (159) 
0

>  <i_epik_Tot_Q>  (159) 
0

>  <i_epik_Tot_abs_Q>  (159) 
0

>  <s_epik_Chemistry_Notes>  (159) 
This compound has an ester and may undergo hydrolysis at high or low pH.

>  <s_lp_Force_Field>  (159) 
OPLS3e

>  <r_lp_Energy>  (159) 
395.666

>  <b_lp_Chiralities_Consistent>  (159) 
0

>  <s_lp_Variant>  (159) 
54:0-3

>  <s_i_glide_gridfile>  (159) 
pfpi4k_grid

>  <i_i_glide_lignum>  (159) 
32

>  <i_i_glide_rotatable_bonds>  (159) 
6

>  <r_i_docking_score>  (159) 
-2.54609

>  <r_i_glide_ligand_efficiency>  (159) 
-0.0578658

>  <r_i_glide_ligand_efficiency_sa>  (159) 
-0.204286

>  <r_i_glide_ligand_efficiency_ln>  (159) 
-0.532189

>  <r_i_glide_gscore>  (159) 
-2.54609

>  <r_i_glide_lipo>  (159) 
-0.0981811

>  <r_i_glide_hbond>  (159) 
-0.102199

>  <r_i_glide_metal>  (159) 
-0

>  <r_i_glide_rewards>  (159) 
0

>  <r_i_glide_evdw>  (159) 
-19.9618

>  <r_i_glide_ecoul>  (159) 
-9.09451

>  <r_i_glide_erotb>  (159) 
0.0557561

>  <r_i_glide_esite>  (159) 
-0.0392012

>  <r_i_glide_emodel>  (159) 
-31.7619

>  <r_i_glide_energy>  (159) 
-29.0563

>  <r_i_glide_einternal>  (159) 
1.89642

>  <r_i_glide_intrahb_reward>  (159) 
-0

>  <i_i_glide_confnum>  (159) 
2

>  <i_i_glide_posenum>  (159) 
27

>  <r_i_glide_eff_state_penalty>  (159) 
0

>  <ligand_id>  (159) 
54

>  <original_smiles>  (159) 
COC1(C)C2OC(C)(C)C3OC(=O)C45C(=O)OC(C)=C6C=C(C)CCC6(C=C4C(C)C)CC32C(C)C(O)C(O)C51C(C)(C)O

>  <smiles>  (159) 
[H]OC1([H])C([H])(O[H])C2(C(O[H])(C([H])([H])[H])C([H])([H])[H])C34C(=O)OC(C([H])([H])[H])=C5C([H])=C(C([H])([H])[H])C([H])([H])C([H])([H])C5(C([H])=C3C([H])(C([H])([H])[H])C([H])([H])[H])C([H])([H])C3(C([H])(OC4=O)C(C([H])([H])[H])(C([H])([H])[H])OC3([H])C2(OC([H])([H])[H])C([H])([H])[H])C1([H])C([H])([H])[H]

$$$$
54:2:1
     RDKit          3D

 94 99  0  0  1  0  0  0  0  0999 V2000
   -2.4016    3.2151    7.0785 C   0  0  0  0  0  0  0  0  0  0  0  0
   -1.3565    2.5212    6.3924 O   0  0  0  0  0  0  0  0  0  0  0  0
   -0.0451    3.0811    6.1616 C   0  0  1  0  0  0  0  0  0  0  0  0
   -0.3156    4.6178    5.8928 C   0  0  0  0  0  0  0  0  0  0  0  0
    0.8596    2.9959    7.4523 C   0  0  1  0  0  0  0  0  0  0  0  0
    0.0566    2.8043    8.6224 O   0  0  0  0  0  0  0  0  0  0  0  0
    0.8411    2.2659    9.6638 C   0  0  0  0  0  0  0  0  0  0  0  0
    1.4823    3.3889   10.5017 C   0  0  0  0  0  0  0  0  0  0  0  0
   -0.0403    1.4136   10.6042 C   0  0  0  0  0  0  0  0  0  0  0  0
    1.8313    1.4496    8.8295 C   0  0  1  0  0  0  0  0  0  0  0  0
    1.1252    0.3315    8.2189 O   0  0  0  0  0  0  0  0  0  0  0  0
    0.2574    0.3430    7.0977 C   0  0  0  0  0  0  0  0  0  0  0  0
   -0.9393    0.2057    7.4023 O   0  0  0  0  0  0  0  0  0  0  0  0
    0.7566    0.5531    5.5092 C   0  0  2  0  0  0  0  0  0  0  0  0
   -0.0761   -0.7378    5.2131 C   0  0  0  0  0  0  0  0  0  0  0  0
   -1.1700   -0.7103    4.6651 O   0  0  0  0  0  0  0  0  0  0  0  0
    0.4834   -2.0131    5.6661 O   0  0  0  0  0  0  0  0  0  0  0  0
    1.3008   -2.3200    6.7721 C   0  0  0  0  0  0  0  0  0  0  0  0
    0.6302   -3.5064    7.4508 C   0  0  0  0  0  0  0  0  0  0  0  0
    2.4542   -1.7081    7.2768 C   0  0  0  0  0  0  0  0  0  0  0  0
    2.9510   -2.1847    8.5690 C   0  0  0  0  0  0  0  0  0  0  0  0
    4.2050   -1.9735    9.0237 C   0  0  0  0  0  0  0  0  0  0  0  0
    4.6458   -2.4118   10.4026 C   0  0  0  0  0  0  0  0  0  0  0  0
    5.2499   -1.2644    8.1891 C   0  0  0  0  0  0  0  0  0  0  0  0
    4.7885   -1.0456    6.7384 C   0  0  0  0  0  0  0  0  0  0  0  0
    3.3072   -0.5650    6.6074 C   0  0  1  0  0  0  0  0  0  0  0  0
    3.0298   -0.6311    5.1747 C   0  0  0  0  0  0  0  0  0  0  0  0
    1.9146   -0.1627    4.6431 C   0  0  0  0  0  0  0  0  0  0  0  0
    1.7489   -0.5984    3.1378 C   0  0  0  0  0  0  0  0  0  0  0  0
    1.6716   -2.1329    2.9032 C   0  0  0  0  0  0  0  0  0  0  0  0
    2.8793   -0.1225    2.1765 C   0  0  0  0  0  0  0  0  0  0  0  0
    3.2893    1.0226    6.9556 C   0  0  0  0  0  0  0  0  0  0  0  0
    2.2997    2.1810    7.6038 C   0  0  1  0  0  0  0  0  0  0  0  0
    3.2160    3.4188    7.3954 C   0  0  1  0  0  0  0  0  0  0  0  0
    4.7142    3.3612    7.8112 C   0  0  0  0  0  0  0  0  0  0  0  0
    2.8940    3.9023    5.9198 C   0  0  1  0  0  0  0  0  0  0  0  0
    4.0633    4.4452    5.3302 O   0  0  0  0  0  0  0  0  0  0  0  0
    2.0671    3.0157    4.8334 C   0  0  1  0  0  0  0  0  0  0  0  0
    3.0285    2.3478    4.0647 O   0  0  0  0  0  0  0  0  0  0  0  0
    0.6236    2.2059    4.9916 C   0  0  2  0  0  0  0  0  0  0  0  0
   -0.2187    2.4760    3.5804 C   0  0  0  0  0  0  0  0  0  0  0  0
    0.5124    2.2623    2.2250 C   0  0  0  0  0  0  0  0  0  0  0  0
   -1.6368    1.8826    3.4445 C   0  0  0  0  0  0  0  0  0  0  0  0
   -0.4479    3.8288    3.2912 O   0  0  0  0  0  0  0  0  0  0  0  0
   -3.1174    2.4780    7.4341 H   0  0  0  0  0  0  0  0  0  0  0  0
   -2.9534    3.8530    6.3909 H   0  0  0  0  0  0  0  0  0  0  0  0
   -2.0665    3.8010    7.9342 H   0  0  0  0  0  0  0  0  0  0  0  0
    0.4432    5.1196    5.3023 H   0  0  0  0  0  0  0  0  0  0  0  0
   -0.4101    5.1954    6.8095 H   0  0  0  0  0  0  0  0  0  0  0  0
   -1.2442    4.7851    5.3477 H   0  0  0  0  0  0  0  0  0  0  0  0
    1.0237    4.0336    7.7190 H   0  0  0  0  0  0  0  0  0  0  0  0
    2.1474    2.9847   11.2658 H   0  0  0  0  0  0  0  0  0  0  0  0
    0.7175    3.9675   11.0198 H   0  0  0  0  0  0  0  0  0  0  0  0
    2.0592    4.0985    9.9191 H   0  0  0  0  0  0  0  0  0  0  0  0
    0.5583    0.9190   11.3696 H   0  0  0  0  0  0  0  0  0  0  0  0
   -0.5948    0.6412   10.0769 H   0  0  0  0  0  0  0  0  0  0  0  0
   -0.7713    2.0307   11.1264 H   0  0  0  0  0  0  0  0  0  0  0  0
    2.6499    1.0827    9.4483 H   0  0  0  0  0  0  0  0  0  0  0  0
    1.2951   -4.1321    8.0510 H   0  0  0  0  0  0  0  0  0  0  0  0
    0.1977   -4.1639    6.7019 H   0  0  0  0  0  0  0  0  0  0  0  0
   -0.1837   -3.1612    8.0895 H   0  0  0  0  0  0  0  0  0  0  0  0
    2.2698   -2.6677    9.2557 H   0  0  0  0  0  0  0  0  0  0  0  0
    5.0074   -1.5619   10.9821 H   0  0  0  0  0  0  0  0  0  0  0  0
    5.4542   -3.1412   10.3287 H   0  0  0  0  0  0  0  0  0  0  0  0
    3.8278   -2.8731   10.9524 H   0  0  0  0  0  0  0  0  0  0  0  0
    5.4958   -0.3174    8.6691 H   0  0  0  0  0  0  0  0  0  0  0  0
    6.1612   -1.8628    8.1879 H   0  0  0  0  0  0  0  0  0  0  0  0
    5.4799   -0.3755    6.2186 H   0  0  0  0  0  0  0  0  0  0  0  0
    4.8904   -2.0095    6.2409 H   0  0  0  0  0  0  0  0  0  0  0  0
    3.7454   -1.1429    4.5535 H   0  0  0  0  0  0  0  0  0  0  0  0
    0.7758   -0.2968    2.7934 H   0  0  0  0  0  0  0  0  0  0  0  0
    0.7240   -2.5629    3.2366 H   0  0  0  0  0  0  0  0  0  0  0  0
    2.4924   -2.6879    3.3594 H   0  0  0  0  0  0  0  0  0  0  0  0
    1.7191   -2.3222    1.8370 H   0  0  0  0  0  0  0  0  0  0  0  0
    3.1055    0.9321    2.1905 H   0  0  0  0  0  0  0  0  0  0  0  0
    2.5807   -0.3128    1.1494 H   0  0  0  0  0  0  0  0  0  0  0  0
    3.8321   -0.6384    2.3389 H   0  0  0  0  0  0  0  0  0  0  0  0
    4.0257    1.0041    7.7489 H   0  0  0  0  0  0  0  0  0  0  0  0
    3.8542    1.4602    6.1401 H   0  0  0  0  0  0  0  0  0  0  0  0
    2.9357    4.2488    8.0378 H   0  0  0  0  0  0  0  0  0  0  0  0
    5.3381    2.7684    7.1420 H   0  0  0  0  0  0  0  0  0  0  0  0
    4.8211    2.9736    8.8220 H   0  0  0  0  0  0  0  0  0  0  0  0
    5.1411    4.3630    7.8171 H   0  0  0  0  0  0  0  0  0  0  0  0
    2.3292    4.8159    6.0625 H   0  0  0  0  0  0  0  0  0  0  0  0
    3.8207    4.7807    4.4806 H   0  0  0  0  0  0  0  0  0  0  0  0
    1.8209    3.8116    4.1414 H   0  0  0  0  0  0  0  0  0  0  0  0
    2.7409    2.3671    3.1644 H   0  0  0  0  0  0  0  0  0  0  0  0
    0.9797    1.3054    2.0743 H   0  0  0  0  0  0  0  0  0  0  0  0
    1.2811    3.0079    2.0392 H   0  0  0  0  0  0  0  0  0  0  0  0
   -0.1987    2.2388    1.3947 H   0  0  0  0  0  0  0  0  0  0  0  0
   -1.6439    0.8541    3.0866 H   0  0  0  0  0  0  0  0  0  0  0  0
   -2.2027    2.4056    2.6736 H   0  0  0  0  0  0  0  0  0  0  0  0
   -2.2624    1.9323    4.3428 H   0  0  0  0  0  0  0  0  0  0  0  0
   -0.2651    3.9894    2.3369 H   0  0  0  0  0  0  0  0  0  0  0  0
  1  2  1  0
  1 45  1  0
  1 46  1  0
  1 47  1  0
  3  2  1  1
  3 40  1  0
  3  4  1  0
  3  5  1  0
  4 48  1  0
  4 49  1  0
  4 50  1  0
  5 33  1  0
  5  6  1  0
  5 51  1  1
  6  7  1  0
  7  8  1  0
  7  9  1  0
  7 10  1  0
  8 52  1  0
  8 53  1  0
  8 54  1  0
  9 55  1  0
  9 56  1  0
  9 57  1  0
 10 33  1  0
 10 11  1  0
 10 58  1  1
 11 12  1  0
 12 13  2  0
 12 14  1  0
 14 28  1  0
 14 40  1  0
 14 15  1  6
 15 16  2  0
 15 17  1  0
 17 18  1  0
 18 19  1  0
 18 20  2  3
 19 59  1  0
 19 60  1  0
 19 61  1  0
 20 26  1  0
 20 21  1  0
 21 22  2  0
 21 62  1  0
 22 23  1  0
 22 24  1  0
 23 63  1  0
 23 64  1  0
 23 65  1  0
 24 25  1  0
 24 66  1  0
 24 67  1  0
 26 25  1  6
 25 68  1  0
 25 69  1  0
 26 27  1  0
 26 32  1  0
 27 28  2  3
 27 70  1  0
 28 29  1  0
 29 30  1  0
 29 31  1  0
 29 71  1  0
 30 72  1  0
 30 73  1  0
 30 74  1  0
 31 75  1  0
 31 76  1  0
 31 77  1  0
 33 32  1  6
 32 78  1  0
 32 79  1  0
 33 34  1  0
 34 35  1  0
 34 36  1  0
 34 80  1  1
 35 81  1  0
 35 82  1  0
 35 83  1  0
 36 37  1  0
 36 38  1  0
 36 84  1  1
 37 85  1  0
 38 39  1  0
 38 40  1  0
 38 86  1  6
 39 87  1  0
 40 41  1  6
 41 42  1  0
 41 43  1  0
 41 44  1  0
 42 88  1  0
 42 89  1  0
 42 90  1  0
 43 91  1  0
 43 92  1  0
 43 93  1  0
 44 94  1  0
M  END
>  <i_m_ct_stereo_status>  (160) 
1

>  <s_m_source_file>  (160) 
/var/tmp/pbs.5076255.sched01/tmpy176o0g7/39stoh4b52.sdf

>  <i_m_source_file_index>  (160) 
32

>  <i_lp_mmshare_version>  (160) 
48012

>  <i_f3d_flags>  (160) 
3

>  <s_epik_input>  (160) 
W0NIM11DKFtDSDNdKShbT0hdKVtDQF0xKEMyMzQpW0NAQF0oW0NIM10pKE9bQ0gzXSlbQ0BASF01W0NAXShbQ0BASF0oQyhPNSkoW0NIM10pW0NIM10pT0MyPU8pKFtDQEBIXShbQ0gzXSlbQ0BASF0oW09IXSlbQ0BIXTFbT0hdKVtDSDJdW0NAQF02KC9bQ0hdPUNcNFtDSF0oW0NIM10pW0NIM10pQyg9QyhbQ0gzXSlcT0MzPU8pL1tDSF09QyhbQ0gzXSlbQ0gyXVtDSDJdNg==

>  <s_epik_cmdline>  (160) 
J2VwaWtfcHl0aG9uJywgJy1waHQnLCAnMi4wJywgJy1waCcsICc3LjAnLCAnLXRuJywgJzgnLCAnLW1hJywgJzIwMCcsICctaW1hZScsICc8aW5maWxlLm1hZT4nLCAnLW9tYWUnLCAnPG91dGZpbGUubWFlPic=

>  <r_lp_tautomer_probability>  (160) 
1

>  <r_epik_Ionization_Penalty>  (160) 
8.13673e-07

>  <r_epik_Ionization_Penalty_Charging>  (160) 
0

>  <r_epik_Ionization_Penalty_Neutral>  (160) 
8.13673e-07

>  <r_epik_State_Penalty>  (160) 
-0

>  <r_epik_Charging_Adjusted_Penalty>  (160) 
0

>  <i_epik_Tot_Q>  (160) 
0

>  <i_epik_Tot_abs_Q>  (160) 
0

>  <s_epik_Chemistry_Notes>  (160) 
This compound has an ester and may undergo hydrolysis at high or low pH.

>  <s_lp_Force_Field>  (160) 
OPLS3e

>  <r_lp_Energy>  (160) 
395.666

>  <b_lp_Chiralities_Consistent>  (160) 
0

>  <s_lp_Variant>  (160) 
54:0-3

>  <s_i_glide_gridfile>  (160) 
pfpi4k_grid

>  <i_i_glide_lignum>  (160) 
32

>  <i_i_glide_rotatable_bonds>  (160) 
6

>  <r_i_docking_score>  (160) 
-2.49369

>  <r_i_glide_ligand_efficiency>  (160) 
-0.0566748

>  <r_i_glide_ligand_efficiency_sa>  (160) 
-0.200082

>  <r_i_glide_ligand_efficiency_ln>  (160) 
-0.521236

>  <r_i_glide_gscore>  (160) 
-2.49369

>  <r_i_glide_lipo>  (160) 
-0.110704

>  <r_i_glide_hbond>  (160) 
-0.0978573

>  <r_i_glide_metal>  (160) 
-0

>  <r_i_glide_rewards>  (160) 
0

>  <r_i_glide_evdw>  (160) 
-19.181

>  <r_i_glide_ecoul>  (160) 
-8.97062

>  <r_i_glide_erotb>  (160) 
0.0557561

>  <r_i_glide_esite>  (160) 
-0.0362437

>  <r_i_glide_emodel>  (160) 
-30.1819

>  <r_i_glide_energy>  (160) 
-28.1516

>  <r_i_glide_einternal>  (160) 
2.09893

>  <r_i_glide_intrahb_reward>  (160) 
-0

>  <i_i_glide_confnum>  (160) 
2

>  <i_i_glide_posenum>  (160) 
2

>  <r_i_glide_eff_state_penalty>  (160) 
0

>  <ligand_id>  (160) 
54

>  <original_smiles>  (160) 
COC1(C)C2OC(C)(C)C3OC(=O)C45C(=O)OC(C)=C6C=C(C)CCC6(C=C4C(C)C)CC32C(C)C(O)C(O)C51C(C)(C)O

>  <smiles>  (160) 
[H]OC1([H])C([H])(O[H])C2(C(O[H])(C([H])([H])[H])C([H])([H])[H])C34C(=O)OC(C([H])([H])[H])=C5C([H])=C(C([H])([H])[H])C([H])([H])C([H])([H])C5(C([H])=C3C([H])(C([H])([H])[H])C([H])([H])[H])C([H])([H])C3(C([H])(OC4=O)C(C([H])([H])[H])(C([H])([H])[H])OC3([H])C2(OC([H])([H])[H])C([H])([H])[H])C1([H])C([H])([H])[H]

$$$$
54:2:2
     RDKit          3D

 94 99  0  0  1  0  0  0  0  0999 V2000
   -1.7705   -4.8690    7.3533 C   0  0  0  0  0  0  0  0  0  0  0  0
   -0.5163   -4.3787    6.8673 O   0  0  0  0  0  0  0  0  0  0  0  0
    0.7143   -4.5236    7.6222 C   0  0  1  0  0  0  0  0  0  0  0  0
    0.2824   -4.2935    9.1286 C   0  0  0  0  0  0  0  0  0  0  0  0
    1.2956   -5.9908    7.5517 C   0  0  1  0  0  0  0  0  0  0  0  0
    0.2763   -6.9241    7.1679 O   0  0  0  0  0  0  0  0  0  0  0  0
    0.8739   -8.0921    6.6519 C   0  0  0  0  0  0  0  0  0  0  0  0
    1.1276   -9.1120    7.7757 C   0  0  0  0  0  0  0  0  0  0  0  0
   -0.0666   -8.7446    5.6130 C   0  0  0  0  0  0  0  0  0  0  0  0
    2.1466   -7.4895    6.0494 C   0  0  1  0  0  0  0  0  0  0  0  0
    1.7813   -6.6903    4.8966 O   0  0  0  0  0  0  0  0  0  0  0  0
    1.2017   -5.3987    4.8778 C   0  0  0  0  0  0  0  0  0  0  0  0
    0.0141   -5.4170    4.5214 O   0  0  0  0  0  0  0  0  0  0  0  0
    2.0251   -3.9875    5.2975 C   0  0  2  0  0  0  0  0  0  0  0  0
    1.4973   -3.4293    3.9322 C   0  0  0  0  0  0  0  0  0  0  0  0
    0.5981   -2.6048    3.8743 O   0  0  0  0  0  0  0  0  0  0  0  0
    2.1249   -3.9303    2.7188 O   0  0  0  0  0  0  0  0  0  0  0  0
    2.6849   -5.1843    2.4199 C   0  0  0  0  0  0  0  0  0  0  0  0
    2.0604   -5.6197    1.1094 C   0  0  0  0  0  0  0  0  0  0  0  0
    3.5832   -5.9789    3.1400 C   0  0  0  0  0  0  0  0  0  0  0  0
    3.8149   -7.3337    2.6236 C   0  0  0  0  0  0  0  0  0  0  0  0
    4.8856   -8.0845    2.9644 C   0  0  0  0  0  0  0  0  0  0  0  0
    5.0577   -9.5101    2.4731 C   0  0  0  0  0  0  0  0  0  0  0  0
    5.9754   -7.5623    3.8702 C   0  0  0  0  0  0  0  0  0  0  0  0
    5.8395   -6.0553    4.1507 C   0  0  0  0  0  0  0  0  0  0  0  0
    4.3761   -5.5935    4.4327 C   0  0  1  0  0  0  0  0  0  0  0  0
    4.4696   -4.1358    4.4683 C   0  0  0  0  0  0  0  0  0  0  0  0
    3.4406   -3.3744    4.8262 C   0  0  0  0  0  0  0  0  0  0  0  0
    3.6956   -1.8498    4.5002 C   0  0  0  0  0  0  0  0  0  0  0  0
    3.9824   -1.5591    3.0083 C   0  0  0  0  0  0  0  0  0  0  0  0
    4.8710   -1.1919    5.2475 C   0  0  0  0  0  0  0  0  0  0  0  0
    4.0408   -6.0059    5.9743 C   0  0  0  0  0  0  0  0  0  0  0  0
    2.7655   -6.4496    6.9344 C   0  0  1  0  0  0  0  0  0  0  0  0
    3.5078   -6.5286    8.2904 C   0  0  1  0  0  0  0  0  0  0  0  0
    4.8608   -7.2843    8.3949 C   0  0  0  0  0  0  0  0  0  0  0  0
    3.4666   -5.0486    8.8590 C   0  0  1  0  0  0  0  0  0  0  0  0
    4.6460   -4.7984    9.5950 O   0  0  0  0  0  0  0  0  0  0  0  0
    3.0601   -3.7459    7.9656 C   0  0  1  0  0  0  0  0  0  0  0  0
    4.2657   -3.2034    7.4954 O   0  0  0  0  0  0  0  0  0  0  0  0
    1.7557   -3.5218    6.9528 C   0  0  2  0  0  0  0  0  0  0  0  0
    1.2324   -1.9686    7.1993 C   0  0  0  0  0  0  0  0  0  0  0  0
    2.2718   -0.8161    7.3095 C   0  0  0  0  0  0  0  0  0  0  0  0
    0.0339   -1.4305    6.3835 C   0  0  0  0  0  0  0  0  0  0  0  0
    0.7414   -1.7233    8.4959 O   0  0  0  0  0  0  0  0  0  0  0  0
   -2.4281   -5.0190    6.5042 H   0  0  0  0  0  0  0  0  0  0  0  0
   -2.2566   -4.1433    8.0041 H   0  0  0  0  0  0  0  0  0  0  0  0
   -1.6910   -5.8087    7.8941 H   0  0  0  0  0  0  0  0  0  0  0  0
    1.0738   -3.9282    9.7693 H   0  0  0  0  0  0  0  0  0  0  0  0
   -0.1206   -5.1847    9.6077 H   0  0  0  0  0  0  0  0  0  0  0  0
   -0.5140   -3.5629    9.2194 H   0  0  0  0  0  0  0  0  0  0  0  0
    1.2439   -6.3258    8.5794 H   0  0  0  0  0  0  0  0  0  0  0  0
    1.6535   -9.9788    7.3854 H   0  0  0  0  0  0  0  0  0  0  0  0
    0.1856   -9.4625    8.1935 H   0  0  0  0  0  0  0  0  0  0  0  0
    1.7118   -8.7223    8.5986 H   0  0  0  0  0  0  0  0  0  0  0  0
    0.4117   -9.6043    5.1487 H   0  0  0  0  0  0  0  0  0  0  0  0
   -0.3617   -8.0622    4.8158 H   0  0  0  0  0  0  0  0  0  0  0  0
   -0.9865   -9.1052    6.0775 H   0  0  0  0  0  0  0  0  0  0  0  0
    2.8379   -8.2719    5.7579 H   0  0  0  0  0  0  0  0  0  0  0  0
    2.6570   -6.3257    0.5194 H   0  0  0  0  0  0  0  0  0  0  0  0
    1.9105   -4.7541    0.4542 H   0  0  0  0  0  0  0  0  0  0  0  0
    1.0817   -6.0799    1.2927 H   0  0  0  0  0  0  0  0  0  0  0  0
    3.0776   -7.8068    2.0000 H   0  0  0  0  0  0  0  0  0  0  0  0
    5.1407  -10.1924    3.3181 H   0  0  0  0  0  0  0  0  0  0  0  0
    5.9621   -9.5891    1.8726 H   0  0  0  0  0  0  0  0  0  0  0  0
    4.2126   -9.8216    1.8616 H   0  0  0  0  0  0  0  0  0  0  0  0
    5.9592   -8.1366    4.7976 H   0  0  0  0  0  0  0  0  0  0  0  0
    6.9357   -7.7457    3.3944 H   0  0  0  0  0  0  0  0  0  0  0  0
    6.5231   -5.7556    4.9513 H   0  0  0  0  0  0  0  0  0  0  0  0
    6.2004   -5.5495    3.2539 H   0  0  0  0  0  0  0  0  0  0  0  0
    5.3747   -3.6841    4.0973 H   0  0  0  0  0  0  0  0  0  0  0  0
    2.7816   -1.2763    4.6530 H   0  0  0  0  0  0  0  0  0  0  0  0
    3.1102   -1.6724    2.3651 H   0  0  0  0  0  0  0  0  0  0  0  0
    4.8046   -2.1509    2.5753 H   0  0  0  0  0  0  0  0  0  0  0  0
    4.2909   -0.5134    2.8919 H   0  0  0  0  0  0  0  0  0  0  0  0
    4.8608   -1.2925    6.3356 H   0  0  0  0  0  0  0  0  0  0  0  0
    4.9027   -0.1212    5.0514 H   0  0  0  0  0  0  0  0  0  0  0  0
    5.8015   -1.5900    4.8357 H   0  0  0  0  0  0  0  0  0  0  0  0
    4.5634   -6.9514    5.9832 H   0  0  0  0  0  0  0  0  0  0  0  0
    4.7133   -5.3702    6.5469 H   0  0  0  0  0  0  0  0  0  0  0  0
    2.9712   -7.1298    9.0121 H   0  0  0  0  0  0  0  0  0  0  0  0
    5.7066   -6.7570    7.9482 H   0  0  0  0  0  0  0  0  0  0  0  0
    4.7881   -8.2757    7.9420 H   0  0  0  0  0  0  0  0  0  0  0  0
    5.1175   -7.4397    9.4450 H   0  0  0  0  0  0  0  0  0  0  0  0
    2.7510   -5.1041    9.6685 H   0  0  0  0  0  0  0  0  0  0  0  0
    4.5453   -3.9561   10.0107 H   0  0  0  0  0  0  0  0  0  0  0  0
    2.8513   -3.0514    8.7703 H   0  0  0  0  0  0  0  0  0  0  0  0
    4.1026   -2.3156    7.2136 H   0  0  0  0  0  0  0  0  0  0  0  0
    2.9503   -0.7082    6.4830 H   0  0  0  0  0  0  0  0  0  0  0  0
    2.8812   -0.8586    8.2317 H   0  0  0  0  0  0  0  0  0  0  0  0
    1.7398    0.1561    7.4036 H   0  0  0  0  0  0  0  0  0  0  0  0
    0.3712   -0.9821    5.4524 H   0  0  0  0  0  0  0  0  0  0  0  0
   -0.4335   -0.5786    6.8728 H   0  0  0  0  0  0  0  0  0  0  0  0
   -0.7542   -2.1423    6.1711 H   0  0  0  0  0  0  0  0  0  0  0  0
    0.9320   -0.8268    8.7376 H   0  0  0  0  0  0  0  0  0  0  0  0
  1  2  1  0
  1 45  1  0
  1 46  1  0
  1 47  1  0
  3  2  1  6
  3 40  1  0
  3  4  1  0
  3  5  1  0
  4 48  1  0
  4 49  1  0
  4 50  1  0
  5 33  1  0
  5  6  1  0
  5 51  1  1
  6  7  1  0
  7  8  1  0
  7  9  1  0
  7 10  1  0
  8 52  1  0
  8 53  1  0
  8 54  1  0
  9 55  1  0
  9 56  1  0
  9 57  1  0
 10 33  1  0
 10 11  1  0
 10 58  1  6
 11 12  1  0
 12 13  2  0
 12 14  1  0
 14 28  1  0
 14 40  1  0
 14 15  1  6
 15 16  2  0
 15 17  1  0
 17 18  1  0
 18 19  1  0
 18 20  2  3
 19 59  1  0
 19 60  1  0
 19 61  1  0
 20 26  1  0
 20 21  1  0
 21 22  2  0
 21 62  1  0
 22 23  1  0
 22 24  1  0
 23 63  1  0
 23 64  1  0
 23 65  1  0
 24 25  1  0
 24 66  1  0
 24 67  1  0
 26 25  1  6
 25 68  1  0
 25 69  1  0
 26 27  1  0
 26 32  1  0
 27 28  2  3
 27 70  1  0
 28 29  1  0
 29 30  1  0
 29 31  1  0
 29 71  1  0
 30 72  1  0
 30 73  1  0
 30 74  1  0
 31 75  1  0
 31 76  1  0
 31 77  1  0
 33 32  1  6
 32 78  1  0
 32 79  1  0
 33 34  1  0
 34 35  1  0
 34 36  1  0
 34 80  1  1
 35 81  1  0
 35 82  1  0
 35 83  1  0
 36 37  1  0
 36 38  1  0
 36 84  1  1
 37 85  1  0
 38 39  1  0
 38 40  1  0
 38 86  1  1
 39 87  1  0
 40 41  1  6
 41 42  1  0
 41 43  1  0
 41 44  1  0
 42 88  1  0
 42 89  1  0
 42 90  1  0
 43 91  1  0
 43 92  1  0
 43 93  1  0
 44 94  1  0
M  END
>  <i_m_ct_stereo_status>  (161) 
1

>  <s_m_source_file>  (161) 
/var/tmp/pbs.5076255.sched01/tmpy176o0g7/39stoh4b52.sdf

>  <i_m_source_file_index>  (161) 
32

>  <i_lp_mmshare_version>  (161) 
48012

>  <i_f3d_flags>  (161) 
3

>  <s_epik_input>  (161) 
W0NIM11DKFtDSDNdKShbT0hdKVtDQF0xKEMyMzQpW0NAQF0oW0NIM10pKE9bQ0gzXSlbQ0BASF01W0NAXShbQ0BASF0oQyhPNSkoW0NIM10pW0NIM10pT0MyPU8pKFtDQEBIXShbQ0gzXSlbQ0BASF0oW09IXSlbQ0BIXTFbT0hdKVtDSDJdW0NAQF02KC9bQ0hdPUNcNFtDSF0oW0NIM10pW0NIM10pQyg9QyhbQ0gzXSlcT0MzPU8pL1tDSF09QyhbQ0gzXSlbQ0gyXVtDSDJdNg==

>  <s_epik_cmdline>  (161) 
J2VwaWtfcHl0aG9uJywgJy1waHQnLCAnMi4wJywgJy1waCcsICc3LjAnLCAnLXRuJywgJzgnLCAnLW1hJywgJzIwMCcsICctaW1hZScsICc8aW5maWxlLm1hZT4nLCAnLW9tYWUnLCAnPG91dGZpbGUubWFlPic=

>  <r_lp_tautomer_probability>  (161) 
1

>  <r_epik_Ionization_Penalty>  (161) 
8.13673e-07

>  <r_epik_Ionization_Penalty_Charging>  (161) 
0

>  <r_epik_Ionization_Penalty_Neutral>  (161) 
8.13673e-07

>  <r_epik_State_Penalty>  (161) 
-0

>  <r_epik_Charging_Adjusted_Penalty>  (161) 
0

>  <i_epik_Tot_Q>  (161) 
0

>  <i_epik_Tot_abs_Q>  (161) 
0

>  <s_epik_Chemistry_Notes>  (161) 
This compound has an ester and may undergo hydrolysis at high or low pH.

>  <s_lp_Force_Field>  (161) 
OPLS3e

>  <r_lp_Energy>  (161) 
395.666

>  <b_lp_Chiralities_Consistent>  (161) 
0

>  <s_lp_Variant>  (161) 
54:0-3

>  <s_i_glide_gridfile>  (161) 
pfpi4k_grid

>  <i_i_glide_lignum>  (161) 
32

>  <i_i_glide_rotatable_bonds>  (161) 
6

>  <r_i_docking_score>  (161) 
-1.14097

>  <r_i_glide_ligand_efficiency>  (161) 
-0.0259312

>  <r_i_glide_ligand_efficiency_sa>  (161) 
-0.0915462

>  <r_i_glide_ligand_efficiency_ln>  (161) 
-0.238488

>  <r_i_glide_gscore>  (161) 
-1.14097

>  <r_i_glide_lipo>  (161) 
-0.0985239

>  <r_i_glide_hbond>  (161) 
0

>  <r_i_glide_metal>  (161) 
-0

>  <r_i_glide_rewards>  (161) 
-0.0304891

>  <r_i_glide_evdw>  (161) 
-21.7314

>  <r_i_glide_ecoul>  (161) 
0.141123

>  <r_i_glide_erotb>  (161) 
0.0557561

>  <r_i_glide_esite>  (161) 
-0.00231489

>  <r_i_glide_emodel>  (161) 
-22.0552

>  <r_i_glide_energy>  (161) 
-21.5903

>  <r_i_glide_einternal>  (161) 
1.43509

>  <r_i_glide_intrahb_reward>  (161) 
-0

>  <i_i_glide_confnum>  (161) 
2

>  <i_i_glide_posenum>  (161) 
11

>  <r_i_glide_eff_state_penalty>  (161) 
0

>  <ligand_id>  (161) 
54

>  <original_smiles>  (161) 
COC1(C)C2OC(C)(C)C3OC(=O)C45C(=O)OC(C)=C6C=C(C)CCC6(C=C4C(C)C)CC32C(C)C(O)C(O)C51C(C)(C)O

>  <smiles>  (161) 
[H]OC1([H])C([H])(O[H])C2(C(O[H])(C([H])([H])[H])C([H])([H])[H])C34C(=O)OC(C([H])([H])[H])=C5C([H])=C(C([H])([H])[H])C([H])([H])C([H])([H])C5(C([H])=C3C([H])(C([H])([H])[H])C([H])([H])[H])C([H])([H])C3(C([H])(OC4=O)C(C([H])([H])[H])(C([H])([H])[H])OC3([H])C2(OC([H])([H])[H])C([H])([H])[H])C1([H])C([H])([H])[H]

$$$$
54:3:0
     RDKit          3D

 94 99  0  0  1  0  0  0  0  0999 V2000
   -2.2771    3.1545    7.0909 C   0  0  0  0  0  0  0  0  0  0  0  0
   -1.2791    2.4695    6.3310 O   0  0  0  0  0  0  0  0  0  0  0  0
    0.0639    2.9614    6.1413 C   0  0  1  0  0  0  0  0  0  0  0  0
   -0.1434    4.5160    5.9245 C   0  0  0  0  0  0  0  0  0  0  0  0
    0.9579    2.8077    7.4331 C   0  0  1  0  0  0  0  0  0  0  0  0
    0.1444    2.6253    8.5979 O   0  0  0  0  0  0  0  0  0  0  0  0
    0.8994    2.0324    9.6265 C   0  0  0  0  0  0  0  0  0  0  0  0
    1.5840    3.1140   10.4885 C   0  0  0  0  0  0  0  0  0  0  0  0
   -0.0258    1.2039   10.5426 C   0  0  0  0  0  0  0  0  0  0  0  0
    1.8531    1.1888    8.7743 C   0  0  1  0  0  0  0  0  0  0  0  0
    1.0937    0.1219    8.1383 O   0  0  0  0  0  0  0  0  0  0  0  0
    0.2337    0.1997    7.0084 C   0  0  0  0  0  0  0  0  0  0  0  0
   -0.9729    0.1410    7.2989 O   0  0  0  0  0  0  0  0  0  0  0  0
    0.7585    0.4098    5.4337 C   0  0  2  0  0  0  0  0  0  0  0  0
   -0.1298   -0.8423    5.1104 C   0  0  0  0  0  0  0  0  0  0  0  0
   -1.2237   -0.7606    4.5586 O   0  0  0  0  0  0  0  0  0  0  0  0
    0.3801   -2.1409    5.5271 O   0  0  0  0  0  0  0  0  0  0  0  0
    1.1724   -2.5046    6.6399 C   0  0  0  0  0  0  0  0  0  0  0  0
    0.4413   -3.6739    7.2918 C   0  0  0  0  0  0  0  0  0  0  0  0
    2.3407   -1.9528    7.1595 C   0  0  0  0  0  0  0  0  0  0  0  0
    2.8126   -2.4783    8.4474 C   0  0  0  0  0  0  0  0  0  0  0  0
    4.0683   -2.3280    8.9093 C   0  0  0  0  0  0  0  0  0  0  0  0
    4.4883   -2.8175   10.2840 C   0  0  0  0  0  0  0  0  0  0  0  0
    5.1523   -1.6534    8.0950 C   0  0  0  0  0  0  0  0  0  0  0  0
    4.7054   -1.3851    6.6471 C   0  0  0  0  0  0  0  0  0  0  0  0
    3.2491   -0.8362    6.5210 C   0  0  1  0  0  0  0  0  0  0  0  0
    2.9841   -0.8573    5.0828 C   0  0  0  0  0  0  0  0  0  0  0  0
    1.8882   -0.3367    4.5550 C   0  0  0  0  0  0  0  0  0  0  0  0
    1.7232   -0.7352    3.0407 C   0  0  0  0  0  0  0  0  0  0  0  0
    1.6640   -2.2527    2.7724 C   0  0  0  0  0  0  0  0  0  0  0  0
    2.8412   -0.2214    2.0815 C   0  0  0  0  0  0  0  0  0  0  0  0
    3.2999    0.7423    6.9046 C   0  0  0  0  0  0  0  0  0  0  0  0
    2.3585    1.9310    7.5676 C   0  0  1  0  0  0  0  0  0  0  0  0
    3.3279    3.1327    7.3840 C   0  0  1  0  0  0  0  0  0  0  0  0
    4.8192    2.9998    7.8036 C   0  0  0  0  0  0  0  0  0  0  0  0
    3.0320    3.6605    5.9131 C   0  0  1  0  0  0  0  0  0  0  0  0
    4.2259    4.1361    5.3224 O   0  0  0  0  0  0  0  0  0  0  0  0
    2.1719    2.8238    4.8099 C   0  0  1  0  0  0  0  0  0  0  0  0
    3.0980    2.1146    4.0383 O   0  0  0  0  0  0  0  0  0  0  0  0
    0.6944    2.0785    4.9599 C   0  0  2  0  0  0  0  0  0  0  0  0
   -0.1262    2.3931    3.5571 C   0  0  0  0  0  0  0  0  0  0  0  0
    0.5874    2.2006    2.1988 C   0  0  0  0  0  0  0  0  0  0  0  0
   -1.5650    1.8566    3.3888 C   0  0  0  0  0  0  0  0  0  0  0  0
   -0.3501    3.7666    3.3545 O   0  0  0  0  0  0  0  0  0  0  0  0
   -3.0183    2.4245    7.4089 H   0  0  0  0  0  0  0  0  0  0  0  0
   -2.8021    3.8715    6.4645 H   0  0  0  0  0  0  0  0  0  0  0  0
   -1.9066    3.6627    7.9792 H   0  0  0  0  0  0  0  0  0  0  0  0
    0.6324    4.9939    5.3387 H   0  0  0  0  0  0  0  0  0  0  0  0
   -0.2219    5.0841    6.8537 H   0  0  0  0  0  0  0  0  0  0  0  0
   -1.0682    4.7342    5.3966 H   0  0  0  0  0  0  0  0  0  0  0  0
    1.1655    3.8329    7.7186 H   0  0  0  0  0  0  0  0  0  0  0  0
    2.2251    2.6646   11.2452 H   0  0  0  0  0  0  0  0  0  0  0  0
    0.8383    3.7137   11.0116 H   0  0  0  0  0  0  0  0  0  0  0  0
    2.1909    3.8087    9.9200 H   0  0  0  0  0  0  0  0  0  0  0  0
    0.5448    0.6691   11.2992 H   0  0  0  0  0  0  0  0  0  0  0  0
   -0.6106    0.4696    9.9929 H   0  0  0  0  0  0  0  0  0  0  0  0
   -0.7340    1.8437   11.0712 H   0  0  0  0  0  0  0  0  0  0  0  0
    2.6512    0.7760    9.3892 H   0  0  0  0  0  0  0  0  0  0  0  0
    1.0769   -4.3401    7.8788 H   0  0  0  0  0  0  0  0  0  0  0  0
   -0.0181   -4.2996    6.5248 H   0  0  0  0  0  0  0  0  0  0  0  0
   -0.3592   -3.3053    7.9365 H   0  0  0  0  0  0  0  0  0  0  0  0
    2.1092   -2.9443    9.1200 H   0  0  0  0  0  0  0  0  0  0  0  0
    4.8819   -1.9934   10.8791 H   0  0  0  0  0  0  0  0  0  0  0  0
    5.2633   -3.5786   10.1951 H   0  0  0  0  0  0  0  0  0  0  0  0
    3.6456   -3.2532   10.8206 H   0  0  0  0  0  0  0  0  0  0  0  0
    5.4377   -0.7284    8.5959 H   0  0  0  0  0  0  0  0  0  0  0  0
    6.0359   -2.2899    8.0852 H   0  0  0  0  0  0  0  0  0  0  0  0
    5.4277   -0.7351    6.1457 H   0  0  0  0  0  0  0  0  0  0  0  0
    4.7701   -2.3438    6.1287 H   0  0  0  0  0  0  0  0  0  0  0  0
    3.6846   -1.3847    4.4535 H   0  0  0  0  0  0  0  0  0  0  0  0
    0.7381   -0.4489    2.6998 H   0  0  0  0  0  0  0  0  0  0  0  0
    0.7351   -2.7089    3.1156 H   0  0  0  0  0  0  0  0  0  0  0  0
    2.5053   -2.8089    3.1946 H   0  0  0  0  0  0  0  0  0  0  0  0
    1.6994   -2.4225    1.6962 H   0  0  0  0  0  0  0  0  0  0  0  0
    3.0446    0.8457    2.1162 H   0  0  0  0  0  0  0  0  0  0  0  0
    2.5387   -0.3934    1.0467 H   0  0  0  0  0  0  0  0  0  0  0  0
    3.7868   -0.7416    2.2239 H   0  0  0  0  0  0  0  0  0  0  0  0
    4.0317    0.6731    7.6997 H   0  0  0  0  0  0  0  0  0  0  0  0
    3.8926    1.1685    6.1013 H   0  0  0  0  0  0  0  0  0  0  0  0
    3.0849    3.9559    8.0477 H   0  0  0  0  0  0  0  0  0  0  0  0
    5.4212    2.3912    7.1276 H   0  0  0  0  0  0  0  0  0  0  0  0
    4.9049    2.5848    8.8107 H   0  0  0  0  0  0  0  0  0  0  0  0
    5.2919    3.9831    7.8335 H   0  0  0  0  0  0  0  0  0  0  0  0
    2.5141    4.5985    6.0800 H   0  0  0  0  0  0  0  0  0  0  0  0
    3.9914    4.6182    4.5395 H   0  0  0  0  0  0  0  0  0  0  0  0
    1.9687    3.6391    4.1228 H   0  0  0  0  0  0  0  0  0  0  0  0
    3.6241    2.7328    3.5463 H   0  0  0  0  0  0  0  0  0  0  0  0
    1.0259    1.2665    2.0035 H   0  0  0  0  0  0  0  0  0  0  0  0
    1.3648    2.9484    2.0102 H   0  0  0  0  0  0  0  0  0  0  0  0
   -0.1251    2.2563    1.3728 H   0  0  0  0  0  0  0  0  0  0  0  0
   -1.5710    0.8528    2.9779 H   0  0  0  0  0  0  0  0  0  0  0  0
   -2.1062    2.4190    2.6260 H   0  0  0  0  0  0  0  0  0  0  0  0
   -2.1904    1.8794    4.2773 H   0  0  0  0  0  0  0  0  0  0  0  0
   -0.1987    3.9816    2.4158 H   0  0  0  0  0  0  0  0  0  0  0  0
  1  2  1  0
  1 45  1  0
  1 46  1  0
  1 47  1  0
  3  2  1  1
  3 40  1  0
  3  4  1  0
  3  5  1  0
  4 48  1  0
  4 49  1  0
  4 50  1  0
  5 33  1  0
  5  6  1  0
  5 51  1  1
  6  7  1  0
  7  8  1  0
  7  9  1  0
  7 10  1  0
  8 52  1  0
  8 53  1  0
  8 54  1  0
  9 55  1  0
  9 56  1  0
  9 57  1  0
 10 33  1  0
 10 11  1  0
 10 58  1  1
 11 12  1  0
 12 13  2  0
 12 14  1  0
 14 28  1  0
 14 40  1  0
 14 15  1  6
 15 16  2  0
 15 17  1  0
 17 18  1  0
 18 19  1  0
 18 20  2  3
 19 59  1  0
 19 60  1  0
 19 61  1  0
 20 26  1  0
 20 21  1  0
 21 22  2  0
 21 62  1  0
 22 23  1  0
 22 24  1  0
 23 63  1  0
 23 64  1  0
 23 65  1  0
 24 25  1  0
 24 66  1  0
 24 67  1  0
 26 25  1  6
 25 68  1  0
 25 69  1  0
 26 27  1  0
 26 32  1  0
 27 28  2  3
 27 70  1  0
 28 29  1  0
 29 30  1  0
 29 31  1  0
 29 71  1  0
 30 72  1  0
 30 73  1  0
 30 74  1  0
 31 75  1  0
 31 76  1  0
 31 77  1  0
 33 32  1  6
 32 78  1  0
 32 79  1  0
 33 34  1  0
 34 35  1  0
 34 36  1  0
 34 80  1  1
 35 81  1  0
 35 82  1  0
 35 83  1  0
 36 37  1  0
 36 38  1  0
 36 84  1  1
 37 85  1  0
 38 39  1  0
 38 40  1  0
 38 86  1  6
 39 87  1  0
 40 41  1  6
 41 42  1  0
 41 43  1  0
 41 44  1  0
 42 88  1  0
 42 89  1  0
 42 90  1  0
 43 91  1  0
 43 92  1  0
 43 93  1  0
 44 94  1  0
M  END
>  <i_m_ct_stereo_status>  (162) 
1

>  <s_m_source_file>  (162) 
/var/tmp/pbs.5076255.sched01/tmpy176o0g7/39stoh4b52.sdf

>  <i_m_source_file_index>  (162) 
33

>  <i_lp_mmshare_version>  (162) 
48012

>  <i_f3d_flags>  (162) 
3

>  <s_epik_input>  (162) 
W0NIM11DKFtDSDNdKShbT0hdKVtDQF0xKEMyMzQpW0NAQF0oW0NIM10pKE9bQ0gzXSlbQ0BASF01W0NAXShbQ0BASF0oQyhPNSkoW0NIM10pW0NIM10pT0MyPU8pKFtDQEBIXShbQ0gzXSlbQ0BASF0oW09IXSlbQ0BIXTFbT0hdKVtDSDJdW0NAQF02KC9bQ0hdPUNcNFtDSF0oW0NIM10pW0NIM10pQyg9QyhbQ0gzXSlcT0MzPU8pL1tDSF09QyhbQ0gzXSlbQ0gyXVtDSDJdNg==

>  <s_epik_cmdline>  (162) 
J2VwaWtfcHl0aG9uJywgJy1waHQnLCAnMi4wJywgJy1waCcsICc3LjAnLCAnLXRuJywgJzgnLCAnLW1hJywgJzIwMCcsICctaW1hZScsICc8aW5maWxlLm1hZT4nLCAnLW9tYWUnLCAnPG91dGZpbGUubWFlPic=

>  <r_lp_tautomer_probability>  (162) 
1

>  <r_epik_Ionization_Penalty>  (162) 
8.13673e-07

>  <r_epik_Ionization_Penalty_Charging>  (162) 
0

>  <r_epik_Ionization_Penalty_Neutral>  (162) 
8.13673e-07

>  <r_epik_State_Penalty>  (162) 
-0

>  <r_epik_Charging_Adjusted_Penalty>  (162) 
0

>  <i_epik_Tot_Q>  (162) 
0

>  <i_epik_Tot_abs_Q>  (162) 
0

>  <s_epik_Chemistry_Notes>  (162) 
This compound has an ester and may undergo hydrolysis at high or low pH.

>  <s_lp_Force_Field>  (162) 
OPLS3e

>  <r_lp_Energy>  (162) 
395.666

>  <b_lp_Chiralities_Consistent>  (162) 
0

>  <s_lp_Variant>  (162) 
54:0-4

>  <s_i_glide_gridfile>  (162) 
pfpi4k_grid

>  <i_i_glide_lignum>  (162) 
33

>  <i_i_glide_rotatable_bonds>  (162) 
6

>  <r_i_docking_score>  (162) 
-2.54609

>  <r_i_glide_ligand_efficiency>  (162) 
-0.0578658

>  <r_i_glide_ligand_efficiency_sa>  (162) 
-0.204286

>  <r_i_glide_ligand_efficiency_ln>  (162) 
-0.532189

>  <r_i_glide_gscore>  (162) 
-2.54609

>  <r_i_glide_lipo>  (162) 
-0.0981811

>  <r_i_glide_hbond>  (162) 
-0.102199

>  <r_i_glide_metal>  (162) 
-0

>  <r_i_glide_rewards>  (162) 
0

>  <r_i_glide_evdw>  (162) 
-19.9618

>  <r_i_glide_ecoul>  (162) 
-9.09451

>  <r_i_glide_erotb>  (162) 
0.0557561

>  <r_i_glide_esite>  (162) 
-0.0392012

>  <r_i_glide_emodel>  (162) 
-31.7619

>  <r_i_glide_energy>  (162) 
-29.0563

>  <r_i_glide_einternal>  (162) 
1.89642

>  <r_i_glide_intrahb_reward>  (162) 
-0

>  <i_i_glide_confnum>  (162) 
2

>  <i_i_glide_posenum>  (162) 
27

>  <r_i_glide_eff_state_penalty>  (162) 
0

>  <ligand_id>  (162) 
54

>  <original_smiles>  (162) 
COC1(C)C2OC(C)(C)C3OC(=O)C45C(=O)OC(C)=C6C=C(C)CCC6(C=C4C(C)C)CC32C(C)C(O)C(O)C51C(C)(C)O

>  <smiles>  (162) 
[H]OC1([H])C([H])(O[H])C2(C(O[H])(C([H])([H])[H])C([H])([H])[H])C34C(=O)OC(C([H])([H])[H])=C5C([H])=C(C([H])([H])[H])C([H])([H])C([H])([H])C5(C([H])=C3C([H])(C([H])([H])[H])C([H])([H])[H])C([H])([H])C3(C([H])(OC4=O)C(C([H])([H])[H])(C([H])([H])[H])OC3([H])C2(OC([H])([H])[H])C([H])([H])[H])C1([H])C([H])([H])[H]

$$$$
54:3:1
     RDKit          3D

 94 99  0  0  1  0  0  0  0  0999 V2000
   -2.4016    3.2151    7.0785 C   0  0  0  0  0  0  0  0  0  0  0  0
   -1.3565    2.5212    6.3924 O   0  0  0  0  0  0  0  0  0  0  0  0
   -0.0451    3.0811    6.1616 C   0  0  1  0  0  0  0  0  0  0  0  0
   -0.3156    4.6178    5.8928 C   0  0  0  0  0  0  0  0  0  0  0  0
    0.8596    2.9959    7.4523 C   0  0  1  0  0  0  0  0  0  0  0  0
    0.0566    2.8043    8.6224 O   0  0  0  0  0  0  0  0  0  0  0  0
    0.8411    2.2659    9.6638 C   0  0  0  0  0  0  0  0  0  0  0  0
    1.4823    3.3889   10.5017 C   0  0  0  0  0  0  0  0  0  0  0  0
   -0.0403    1.4136   10.6042 C   0  0  0  0  0  0  0  0  0  0  0  0
    1.8313    1.4496    8.8295 C   0  0  1  0  0  0  0  0  0  0  0  0
    1.1252    0.3315    8.2189 O   0  0  0  0  0  0  0  0  0  0  0  0
    0.2574    0.3430    7.0977 C   0  0  0  0  0  0  0  0  0  0  0  0
   -0.9393    0.2057    7.4023 O   0  0  0  0  0  0  0  0  0  0  0  0
    0.7566    0.5531    5.5092 C   0  0  2  0  0  0  0  0  0  0  0  0
   -0.0761   -0.7378    5.2131 C   0  0  0  0  0  0  0  0  0  0  0  0
   -1.1700   -0.7103    4.6651 O   0  0  0  0  0  0  0  0  0  0  0  0
    0.4834   -2.0131    5.6661 O   0  0  0  0  0  0  0  0  0  0  0  0
    1.3008   -2.3200    6.7721 C   0  0  0  0  0  0  0  0  0  0  0  0
    0.6302   -3.5064    7.4508 C   0  0  0  0  0  0  0  0  0  0  0  0
    2.4542   -1.7081    7.2768 C   0  0  0  0  0  0  0  0  0  0  0  0
    2.9510   -2.1847    8.5690 C   0  0  0  0  0  0  0  0  0  0  0  0
    4.2050   -1.9735    9.0237 C   0  0  0  0  0  0  0  0  0  0  0  0
    4.6458   -2.4118   10.4026 C   0  0  0  0  0  0  0  0  0  0  0  0
    5.2499   -1.2644    8.1891 C   0  0  0  0  0  0  0  0  0  0  0  0
    4.7885   -1.0456    6.7384 C   0  0  0  0  0  0  0  0  0  0  0  0
    3.3072   -0.5650    6.6074 C   0  0  1  0  0  0  0  0  0  0  0  0
    3.0298   -0.6311    5.1747 C   0  0  0  0  0  0  0  0  0  0  0  0
    1.9146   -0.1627    4.6431 C   0  0  0  0  0  0  0  0  0  0  0  0
    1.7489   -0.5984    3.1378 C   0  0  0  0  0  0  0  0  0  0  0  0
    1.6716   -2.1329    2.9032 C   0  0  0  0  0  0  0  0  0  0  0  0
    2.8793   -0.1225    2.1765 C   0  0  0  0  0  0  0  0  0  0  0  0
    3.2893    1.0226    6.9556 C   0  0  0  0  0  0  0  0  0  0  0  0
    2.2997    2.1810    7.6038 C   0  0  1  0  0  0  0  0  0  0  0  0
    3.2160    3.4188    7.3954 C   0  0  1  0  0  0  0  0  0  0  0  0
    4.7142    3.3612    7.8112 C   0  0  0  0  0  0  0  0  0  0  0  0
    2.8940    3.9023    5.9198 C   0  0  1  0  0  0  0  0  0  0  0  0
    4.0633    4.4452    5.3302 O   0  0  0  0  0  0  0  0  0  0  0  0
    2.0671    3.0157    4.8334 C   0  0  1  0  0  0  0  0  0  0  0  0
    3.0285    2.3478    4.0647 O   0  0  0  0  0  0  0  0  0  0  0  0
    0.6236    2.2059    4.9916 C   0  0  2  0  0  0  0  0  0  0  0  0
   -0.2187    2.4760    3.5804 C   0  0  0  0  0  0  0  0  0  0  0  0
    0.5124    2.2623    2.2250 C   0  0  0  0  0  0  0  0  0  0  0  0
   -1.6368    1.8826    3.4445 C   0  0  0  0  0  0  0  0  0  0  0  0
   -0.4479    3.8288    3.2912 O   0  0  0  0  0  0  0  0  0  0  0  0
   -3.1174    2.4780    7.4341 H   0  0  0  0  0  0  0  0  0  0  0  0
   -2.9534    3.8530    6.3909 H   0  0  0  0  0  0  0  0  0  0  0  0
   -2.0665    3.8010    7.9342 H   0  0  0  0  0  0  0  0  0  0  0  0
    0.4432    5.1196    5.3023 H   0  0  0  0  0  0  0  0  0  0  0  0
   -0.4101    5.1954    6.8095 H   0  0  0  0  0  0  0  0  0  0  0  0
   -1.2442    4.7851    5.3477 H   0  0  0  0  0  0  0  0  0  0  0  0
    1.0237    4.0336    7.7190 H   0  0  0  0  0  0  0  0  0  0  0  0
    2.1474    2.9847   11.2658 H   0  0  0  0  0  0  0  0  0  0  0  0
    0.7175    3.9675   11.0198 H   0  0  0  0  0  0  0  0  0  0  0  0
    2.0592    4.0985    9.9191 H   0  0  0  0  0  0  0  0  0  0  0  0
    0.5583    0.9190   11.3696 H   0  0  0  0  0  0  0  0  0  0  0  0
   -0.5948    0.6412   10.0769 H   0  0  0  0  0  0  0  0  0  0  0  0
   -0.7713    2.0307   11.1264 H   0  0  0  0  0  0  0  0  0  0  0  0
    2.6499    1.0827    9.4483 H   0  0  0  0  0  0  0  0  0  0  0  0
    1.2951   -4.1321    8.0510 H   0  0  0  0  0  0  0  0  0  0  0  0
    0.1977   -4.1639    6.7019 H   0  0  0  0  0  0  0  0  0  0  0  0
   -0.1837   -3.1612    8.0895 H   0  0  0  0  0  0  0  0  0  0  0  0
    2.2698   -2.6677    9.2557 H   0  0  0  0  0  0  0  0  0  0  0  0
    5.0074   -1.5619   10.9821 H   0  0  0  0  0  0  0  0  0  0  0  0
    5.4542   -3.1412   10.3287 H   0  0  0  0  0  0  0  0  0  0  0  0
    3.8278   -2.8731   10.9524 H   0  0  0  0  0  0  0  0  0  0  0  0
    5.4958   -0.3174    8.6691 H   0  0  0  0  0  0  0  0  0  0  0  0
    6.1612   -1.8628    8.1879 H   0  0  0  0  0  0  0  0  0  0  0  0
    5.4799   -0.3755    6.2186 H   0  0  0  0  0  0  0  0  0  0  0  0
    4.8904   -2.0095    6.2409 H   0  0  0  0  0  0  0  0  0  0  0  0
    3.7454   -1.1429    4.5535 H   0  0  0  0  0  0  0  0  0  0  0  0
    0.7758   -0.2968    2.7934 H   0  0  0  0  0  0  0  0  0  0  0  0
    0.7240   -2.5629    3.2366 H   0  0  0  0  0  0  0  0  0  0  0  0
    2.4924   -2.6879    3.3594 H   0  0  0  0  0  0  0  0  0  0  0  0
    1.7191   -2.3222    1.8370 H   0  0  0  0  0  0  0  0  0  0  0  0
    3.1055    0.9321    2.1905 H   0  0  0  0  0  0  0  0  0  0  0  0
    2.5807   -0.3128    1.1494 H   0  0  0  0  0  0  0  0  0  0  0  0
    3.8321   -0.6384    2.3389 H   0  0  0  0  0  0  0  0  0  0  0  0
    4.0257    1.0041    7.7489 H   0  0  0  0  0  0  0  0  0  0  0  0
    3.8542    1.4602    6.1401 H   0  0  0  0  0  0  0  0  0  0  0  0
    2.9357    4.2488    8.0378 H   0  0  0  0  0  0  0  0  0  0  0  0
    5.3381    2.7684    7.1420 H   0  0  0  0  0  0  0  0  0  0  0  0
    4.8211    2.9736    8.8220 H   0  0  0  0  0  0  0  0  0  0  0  0
    5.1411    4.3630    7.8171 H   0  0  0  0  0  0  0  0  0  0  0  0
    2.3292    4.8159    6.0625 H   0  0  0  0  0  0  0  0  0  0  0  0
    3.8207    4.7807    4.4806 H   0  0  0  0  0  0  0  0  0  0  0  0
    1.8209    3.8116    4.1414 H   0  0  0  0  0  0  0  0  0  0  0  0
    2.7409    2.3671    3.1644 H   0  0  0  0  0  0  0  0  0  0  0  0
    0.9797    1.3054    2.0743 H   0  0  0  0  0  0  0  0  0  0  0  0
    1.2811    3.0079    2.0392 H   0  0  0  0  0  0  0  0  0  0  0  0
   -0.1987    2.2388    1.3947 H   0  0  0  0  0  0  0  0  0  0  0  0
   -1.6439    0.8541    3.0866 H   0  0  0  0  0  0  0  0  0  0  0  0
   -2.2027    2.4056    2.6736 H   0  0  0  0  0  0  0  0  0  0  0  0
   -2.2624    1.9323    4.3428 H   0  0  0  0  0  0  0  0  0  0  0  0
   -0.2651    3.9894    2.3369 H   0  0  0  0  0  0  0  0  0  0  0  0
  1  2  1  0
  1 45  1  0
  1 46  1  0
  1 47  1  0
  3  2  1  1
  3 40  1  0
  3  4  1  0
  3  5  1  0
  4 48  1  0
  4 49  1  0
  4 50  1  0
  5 33  1  0
  5  6  1  0
  5 51  1  1
  6  7  1  0
  7  8  1  0
  7  9  1  0
  7 10  1  0
  8 52  1  0
  8 53  1  0
  8 54  1  0
  9 55  1  0
  9 56  1  0
  9 57  1  0
 10 33  1  0
 10 11  1  0
 10 58  1  1
 11 12  1  0
 12 13  2  0
 12 14  1  0
 14 28  1  0
 14 40  1  0
 14 15  1  6
 15 16  2  0
 15 17  1  0
 17 18  1  0
 18 19  1  0
 18 20  2  3
 19 59  1  0
 19 60  1  0
 19 61  1  0
 20 26  1  0
 20 21  1  0
 21 22  2  0
 21 62  1  0
 22 23  1  0
 22 24  1  0
 23 63  1  0
 23 64  1  0
 23 65  1  0
 24 25  1  0
 24 66  1  0
 24 67  1  0
 26 25  1  6
 25 68  1  0
 25 69  1  0
 26 27  1  0
 26 32  1  0
 27 28  2  3
 27 70  1  0
 28 29  1  0
 29 30  1  0
 29 31  1  0
 29 71  1  0
 30 72  1  0
 30 73  1  0
 30 74  1  0
 31 75  1  0
 31 76  1  0
 31 77  1  0
 33 32  1  6
 32 78  1  0
 32 79  1  0
 33 34  1  0
 34 35  1  0
 34 36  1  0
 34 80  1  1
 35 81  1  0
 35 82  1  0
 35 83  1  0
 36 37  1  0
 36 38  1  0
 36 84  1  1
 37 85  1  0
 38 39  1  0
 38 40  1  0
 38 86  1  6
 39 87  1  0
 40 41  1  6
 41 42  1  0
 41 43  1  0
 41 44  1  0
 42 88  1  0
 42 89  1  0
 42 90  1  0
 43 91  1  0
 43 92  1  0
 43 93  1  0
 44 94  1  0
M  END
>  <i_m_ct_stereo_status>  (163) 
1

>  <s_m_source_file>  (163) 
/var/tmp/pbs.5076255.sched01/tmpy176o0g7/39stoh4b52.sdf

>  <i_m_source_file_index>  (163) 
33

>  <i_lp_mmshare_version>  (163) 
48012

>  <i_f3d_flags>  (163) 
3

>  <s_epik_input>  (163) 
W0NIM11DKFtDSDNdKShbT0hdKVtDQF0xKEMyMzQpW0NAQF0oW0NIM10pKE9bQ0gzXSlbQ0BASF01W0NAXShbQ0BASF0oQyhPNSkoW0NIM10pW0NIM10pT0MyPU8pKFtDQEBIXShbQ0gzXSlbQ0BASF0oW09IXSlbQ0BIXTFbT0hdKVtDSDJdW0NAQF02KC9bQ0hdPUNcNFtDSF0oW0NIM10pW0NIM10pQyg9QyhbQ0gzXSlcT0MzPU8pL1tDSF09QyhbQ0gzXSlbQ0gyXVtDSDJdNg==

>  <s_epik_cmdline>  (163) 
J2VwaWtfcHl0aG9uJywgJy1waHQnLCAnMi4wJywgJy1waCcsICc3LjAnLCAnLXRuJywgJzgnLCAnLW1hJywgJzIwMCcsICctaW1hZScsICc8aW5maWxlLm1hZT4nLCAnLW9tYWUnLCAnPG91dGZpbGUubWFlPic=

>  <r_lp_tautomer_probability>  (163) 
1

>  <r_epik_Ionization_Penalty>  (163) 
8.13673e-07

>  <r_epik_Ionization_Penalty_Charging>  (163) 
0

>  <r_epik_Ionization_Penalty_Neutral>  (163) 
8.13673e-07

>  <r_epik_State_Penalty>  (163) 
-0

>  <r_epik_Charging_Adjusted_Penalty>  (163) 
0

>  <i_epik_Tot_Q>  (163) 
0

>  <i_epik_Tot_abs_Q>  (163) 
0

>  <s_epik_Chemistry_Notes>  (163) 
This compound has an ester and may undergo hydrolysis at high or low pH.

>  <s_lp_Force_Field>  (163) 
OPLS3e

>  <r_lp_Energy>  (163) 
395.666

>  <b_lp_Chiralities_Consistent>  (163) 
0

>  <s_lp_Variant>  (163) 
54:0-4

>  <s_i_glide_gridfile>  (163) 
pfpi4k_grid

>  <i_i_glide_lignum>  (163) 
33

>  <i_i_glide_rotatable_bonds>  (163) 
6

>  <r_i_docking_score>  (163) 
-2.49369

>  <r_i_glide_ligand_efficiency>  (163) 
-0.0566748

>  <r_i_glide_ligand_efficiency_sa>  (163) 
-0.200082

>  <r_i_glide_ligand_efficiency_ln>  (163) 
-0.521236

>  <r_i_glide_gscore>  (163) 
-2.49369

>  <r_i_glide_lipo>  (163) 
-0.110704

>  <r_i_glide_hbond>  (163) 
-0.0978573

>  <r_i_glide_metal>  (163) 
-0

>  <r_i_glide_rewards>  (163) 
0

>  <r_i_glide_evdw>  (163) 
-19.181

>  <r_i_glide_ecoul>  (163) 
-8.97062

>  <r_i_glide_erotb>  (163) 
0.0557561

>  <r_i_glide_esite>  (163) 
-0.0362437

>  <r_i_glide_emodel>  (163) 
-30.1819

>  <r_i_glide_energy>  (163) 
-28.1516

>  <r_i_glide_einternal>  (163) 
2.09893

>  <r_i_glide_intrahb_reward>  (163) 
-0

>  <i_i_glide_confnum>  (163) 
2

>  <i_i_glide_posenum>  (163) 
2

>  <r_i_glide_eff_state_penalty>  (163) 
0

>  <ligand_id>  (163) 
54

>  <original_smiles>  (163) 
COC1(C)C2OC(C)(C)C3OC(=O)C45C(=O)OC(C)=C6C=C(C)CCC6(C=C4C(C)C)CC32C(C)C(O)C(O)C51C(C)(C)O

>  <smiles>  (163) 
[H]OC1([H])C([H])(O[H])C2(C(O[H])(C([H])([H])[H])C([H])([H])[H])C34C(=O)OC(C([H])([H])[H])=C5C([H])=C(C([H])([H])[H])C([H])([H])C([H])([H])C5(C([H])=C3C([H])(C([H])([H])[H])C([H])([H])[H])C([H])([H])C3(C([H])(OC4=O)C(C([H])([H])[H])(C([H])([H])[H])OC3([H])C2(OC([H])([H])[H])C([H])([H])[H])C1([H])C([H])([H])[H]

$$$$
54:3:2
     RDKit          3D

 94 99  0  0  1  0  0  0  0  0999 V2000
   -1.7705   -4.8690    7.3533 C   0  0  0  0  0  0  0  0  0  0  0  0
   -0.5163   -4.3787    6.8673 O   0  0  0  0  0  0  0  0  0  0  0  0
    0.7143   -4.5236    7.6222 C   0  0  1  0  0  0  0  0  0  0  0  0
    0.2824   -4.2935    9.1286 C   0  0  0  0  0  0  0  0  0  0  0  0
    1.2956   -5.9908    7.5517 C   0  0  1  0  0  0  0  0  0  0  0  0
    0.2763   -6.9241    7.1679 O   0  0  0  0  0  0  0  0  0  0  0  0
    0.8739   -8.0921    6.6519 C   0  0  0  0  0  0  0  0  0  0  0  0
    1.1276   -9.1120    7.7757 C   0  0  0  0  0  0  0  0  0  0  0  0
   -0.0666   -8.7446    5.6130 C   0  0  0  0  0  0  0  0  0  0  0  0
    2.1466   -7.4895    6.0494 C   0  0  1  0  0  0  0  0  0  0  0  0
    1.7813   -6.6903    4.8966 O   0  0  0  0  0  0  0  0  0  0  0  0
    1.2017   -5.3987    4.8778 C   0  0  0  0  0  0  0  0  0  0  0  0
    0.0141   -5.4170    4.5214 O   0  0  0  0  0  0  0  0  0  0  0  0
    2.0251   -3.9875    5.2975 C   0  0  2  0  0  0  0  0  0  0  0  0
    1.4973   -3.4293    3.9322 C   0  0  0  0  0  0  0  0  0  0  0  0
    0.5981   -2.6048    3.8743 O   0  0  0  0  0  0  0  0  0  0  0  0
    2.1249   -3.9303    2.7188 O   0  0  0  0  0  0  0  0  0  0  0  0
    2.6849   -5.1843    2.4199 C   0  0  0  0  0  0  0  0  0  0  0  0
    2.0604   -5.6197    1.1094 C   0  0  0  0  0  0  0  0  0  0  0  0
    3.5832   -5.9789    3.1400 C   0  0  0  0  0  0  0  0  0  0  0  0
    3.8149   -7.3337    2.6236 C   0  0  0  0  0  0  0  0  0  0  0  0
    4.8856   -8.0845    2.9644 C   0  0  0  0  0  0  0  0  0  0  0  0
    5.0577   -9.5101    2.4731 C   0  0  0  0  0  0  0  0  0  0  0  0
    5.9754   -7.5623    3.8702 C   0  0  0  0  0  0  0  0  0  0  0  0
    5.8395   -6.0553    4.1507 C   0  0  0  0  0  0  0  0  0  0  0  0
    4.3761   -5.5935    4.4327 C   0  0  1  0  0  0  0  0  0  0  0  0
    4.4696   -4.1358    4.4683 C   0  0  0  0  0  0  0  0  0  0  0  0
    3.4406   -3.3744    4.8262 C   0  0  0  0  0  0  0  0  0  0  0  0
    3.6956   -1.8498    4.5002 C   0  0  0  0  0  0  0  0  0  0  0  0
    3.9824   -1.5591    3.0083 C   0  0  0  0  0  0  0  0  0  0  0  0
    4.8710   -1.1919    5.2475 C   0  0  0  0  0  0  0  0  0  0  0  0
    4.0408   -6.0059    5.9743 C   0  0  0  0  0  0  0  0  0  0  0  0
    2.7655   -6.4496    6.9344 C   0  0  1  0  0  0  0  0  0  0  0  0
    3.5078   -6.5286    8.2904 C   0  0  1  0  0  0  0  0  0  0  0  0
    4.8608   -7.2843    8.3949 C   0  0  0  0  0  0  0  0  0  0  0  0
    3.4666   -5.0486    8.8590 C   0  0  1  0  0  0  0  0  0  0  0  0
    4.6460   -4.7984    9.5950 O   0  0  0  0  0  0  0  0  0  0  0  0
    3.0601   -3.7459    7.9656 C   0  0  1  0  0  0  0  0  0  0  0  0
    4.2657   -3.2034    7.4954 O   0  0  0  0  0  0  0  0  0  0  0  0
    1.7557   -3.5218    6.9528 C   0  0  2  0  0  0  0  0  0  0  0  0
    1.2324   -1.9686    7.1993 C   0  0  0  0  0  0  0  0  0  0  0  0
    2.2718   -0.8161    7.3095 C   0  0  0  0  0  0  0  0  0  0  0  0
    0.0339   -1.4305    6.3835 C   0  0  0  0  0  0  0  0  0  0  0  0
    0.7414   -1.7233    8.4959 O   0  0  0  0  0  0  0  0  0  0  0  0
   -2.4281   -5.0190    6.5042 H   0  0  0  0  0  0  0  0  0  0  0  0
   -2.2566   -4.1433    8.0041 H   0  0  0  0  0  0  0  0  0  0  0  0
   -1.6910   -5.8087    7.8941 H   0  0  0  0  0  0  0  0  0  0  0  0
    1.0738   -3.9282    9.7693 H   0  0  0  0  0  0  0  0  0  0  0  0
   -0.1206   -5.1847    9.6077 H   0  0  0  0  0  0  0  0  0  0  0  0
   -0.5140   -3.5629    9.2194 H   0  0  0  0  0  0  0  0  0  0  0  0
    1.2439   -6.3258    8.5794 H   0  0  0  0  0  0  0  0  0  0  0  0
    1.6535   -9.9788    7.3854 H   0  0  0  0  0  0  0  0  0  0  0  0
    0.1856   -9.4625    8.1935 H   0  0  0  0  0  0  0  0  0  0  0  0
    1.7118   -8.7223    8.5986 H   0  0  0  0  0  0  0  0  0  0  0  0
    0.4117   -9.6043    5.1487 H   0  0  0  0  0  0  0  0  0  0  0  0
   -0.3617   -8.0622    4.8158 H   0  0  0  0  0  0  0  0  0  0  0  0
   -0.9865   -9.1052    6.0775 H   0  0  0  0  0  0  0  0  0  0  0  0
    2.8379   -8.2719    5.7579 H   0  0  0  0  0  0  0  0  0  0  0  0
    2.6570   -6.3257    0.5194 H   0  0  0  0  0  0  0  0  0  0  0  0
    1.9105   -4.7541    0.4542 H   0  0  0  0  0  0  0  0  0  0  0  0
    1.0817   -6.0799    1.2927 H   0  0  0  0  0  0  0  0  0  0  0  0
    3.0776   -7.8068    2.0000 H   0  0  0  0  0  0  0  0  0  0  0  0
    5.1407  -10.1924    3.3181 H   0  0  0  0  0  0  0  0  0  0  0  0
    5.9621   -9.5891    1.8726 H   0  0  0  0  0  0  0  0  0  0  0  0
    4.2126   -9.8216    1.8616 H   0  0  0  0  0  0  0  0  0  0  0  0
    5.9592   -8.1366    4.7976 H   0  0  0  0  0  0  0  0  0  0  0  0
    6.9357   -7.7457    3.3944 H   0  0  0  0  0  0  0  0  0  0  0  0
    6.5231   -5.7556    4.9513 H   0  0  0  0  0  0  0  0  0  0  0  0
    6.2004   -5.5495    3.2539 H   0  0  0  0  0  0  0  0  0  0  0  0
    5.3747   -3.6841    4.0973 H   0  0  0  0  0  0  0  0  0  0  0  0
    2.7816   -1.2763    4.6530 H   0  0  0  0  0  0  0  0  0  0  0  0
    3.1102   -1.6724    2.3651 H   0  0  0  0  0  0  0  0  0  0  0  0
    4.8046   -2.1509    2.5753 H   0  0  0  0  0  0  0  0  0  0  0  0
    4.2909   -0.5134    2.8919 H   0  0  0  0  0  0  0  0  0  0  0  0
    4.8608   -1.2925    6.3356 H   0  0  0  0  0  0  0  0  0  0  0  0
    4.9027   -0.1212    5.0514 H   0  0  0  0  0  0  0  0  0  0  0  0
    5.8015   -1.5900    4.8357 H   0  0  0  0  0  0  0  0  0  0  0  0
    4.5634   -6.9514    5.9832 H   0  0  0  0  0  0  0  0  0  0  0  0
    4.7133   -5.3702    6.5469 H   0  0  0  0  0  0  0  0  0  0  0  0
    2.9712   -7.1298    9.0121 H   0  0  0  0  0  0  0  0  0  0  0  0
    5.7066   -6.7570    7.9482 H   0  0  0  0  0  0  0  0  0  0  0  0
    4.7881   -8.2757    7.9420 H   0  0  0  0  0  0  0  0  0  0  0  0
    5.1175   -7.4397    9.4450 H   0  0  0  0  0  0  0  0  0  0  0  0
    2.7510   -5.1041    9.6685 H   0  0  0  0  0  0  0  0  0  0  0  0
    4.5453   -3.9561   10.0107 H   0  0  0  0  0  0  0  0  0  0  0  0
    2.8513   -3.0514    8.7703 H   0  0  0  0  0  0  0  0  0  0  0  0
    4.1026   -2.3156    7.2136 H   0  0  0  0  0  0  0  0  0  0  0  0
    2.9503   -0.7082    6.4830 H   0  0  0  0  0  0  0  0  0  0  0  0
    2.8812   -0.8586    8.2317 H   0  0  0  0  0  0  0  0  0  0  0  0
    1.7398    0.1561    7.4036 H   0  0  0  0  0  0  0  0  0  0  0  0
    0.3712   -0.9821    5.4524 H   0  0  0  0  0  0  0  0  0  0  0  0
   -0.4335   -0.5786    6.8728 H   0  0  0  0  0  0  0  0  0  0  0  0
   -0.7542   -2.1423    6.1711 H   0  0  0  0  0  0  0  0  0  0  0  0
    0.9320   -0.8268    8.7376 H   0  0  0  0  0  0  0  0  0  0  0  0
  1  2  1  0
  1 45  1  0
  1 46  1  0
  1 47  1  0
  3  2  1  6
  3 40  1  0
  3  4  1  0
  3  5  1  0
  4 48  1  0
  4 49  1  0
  4 50  1  0
  5 33  1  0
  5  6  1  0
  5 51  1  1
  6  7  1  0
  7  8  1  0
  7  9  1  0
  7 10  1  0
  8 52  1  0
  8 53  1  0
  8 54  1  0
  9 55  1  0
  9 56  1  0
  9 57  1  0
 10 33  1  0
 10 11  1  0
 10 58  1  6
 11 12  1  0
 12 13  2  0
 12 14  1  0
 14 28  1  0
 14 40  1  0
 14 15  1  6
 15 16  2  0
 15 17  1  0
 17 18  1  0
 18 19  1  0
 18 20  2  3
 19 59  1  0
 19 60  1  0
 19 61  1  0
 20 26  1  0
 20 21  1  0
 21 22  2  0
 21 62  1  0
 22 23  1  0
 22 24  1  0
 23 63  1  0
 23 64  1  0
 23 65  1  0
 24 25  1  0
 24 66  1  0
 24 67  1  0
 26 25  1  6
 25 68  1  0
 25 69  1  0
 26 27  1  0
 26 32  1  0
 27 28  2  3
 27 70  1  0
 28 29  1  0
 29 30  1  0
 29 31  1  0
 29 71  1  0
 30 72  1  0
 30 73  1  0
 30 74  1  0
 31 75  1  0
 31 76  1  0
 31 77  1  0
 33 32  1  6
 32 78  1  0
 32 79  1  0
 33 34  1  0
 34 35  1  0
 34 36  1  0
 34 80  1  1
 35 81  1  0
 35 82  1  0
 35 83  1  0
 36 37  1  0
 36 38  1  0
 36 84  1  1
 37 85  1  0
 38 39  1  0
 38 40  1  0
 38 86  1  1
 39 87  1  0
 40 41  1  6
 41 42  1  0
 41 43  1  0
 41 44  1  0
 42 88  1  0
 42 89  1  0
 42 90  1  0
 43 91  1  0
 43 92  1  0
 43 93  1  0
 44 94  1  0
M  END
>  <i_m_ct_stereo_status>  (164) 
1

>  <s_m_source_file>  (164) 
/var/tmp/pbs.5076255.sched01/tmpy176o0g7/39stoh4b52.sdf

>  <i_m_source_file_index>  (164) 
33

>  <i_lp_mmshare_version>  (164) 
48012

>  <i_f3d_flags>  (164) 
3

>  <s_epik_input>  (164) 
W0NIM11DKFtDSDNdKShbT0hdKVtDQF0xKEMyMzQpW0NAQF0oW0NIM10pKE9bQ0gzXSlbQ0BASF01W0NAXShbQ0BASF0oQyhPNSkoW0NIM10pW0NIM10pT0MyPU8pKFtDQEBIXShbQ0gzXSlbQ0BASF0oW09IXSlbQ0BIXTFbT0hdKVtDSDJdW0NAQF02KC9bQ0hdPUNcNFtDSF0oW0NIM10pW0NIM10pQyg9QyhbQ0gzXSlcT0MzPU8pL1tDSF09QyhbQ0gzXSlbQ0gyXVtDSDJdNg==

>  <s_epik_cmdline>  (164) 
J2VwaWtfcHl0aG9uJywgJy1waHQnLCAnMi4wJywgJy1waCcsICc3LjAnLCAnLXRuJywgJzgnLCAnLW1hJywgJzIwMCcsICctaW1hZScsICc8aW5maWxlLm1hZT4nLCAnLW9tYWUnLCAnPG91dGZpbGUubWFlPic=

>  <r_lp_tautomer_probability>  (164) 
1

>  <r_epik_Ionization_Penalty>  (164) 
8.13673e-07

>  <r_epik_Ionization_Penalty_Charging>  (164) 
0

>  <r_epik_Ionization_Penalty_Neutral>  (164) 
8.13673e-07

>  <r_epik_State_Penalty>  (164) 
-0

>  <r_epik_Charging_Adjusted_Penalty>  (164) 
0

>  <i_epik_Tot_Q>  (164) 
0

>  <i_epik_Tot_abs_Q>  (164) 
0

>  <s_epik_Chemistry_Notes>  (164) 
This compound has an ester and may undergo hydrolysis at high or low pH.

>  <s_lp_Force_Field>  (164) 
OPLS3e

>  <r_lp_Energy>  (164) 
395.666

>  <b_lp_Chiralities_Consistent>  (164) 
0

>  <s_lp_Variant>  (164) 
54:0-4

>  <s_i_glide_gridfile>  (164) 
pfpi4k_grid

>  <i_i_glide_lignum>  (164) 
33

>  <i_i_glide_rotatable_bonds>  (164) 
6

>  <r_i_docking_score>  (164) 
-1.14097

>  <r_i_glide_ligand_efficiency>  (164) 
-0.0259312

>  <r_i_glide_ligand_efficiency_sa>  (164) 
-0.0915462

>  <r_i_glide_ligand_efficiency_ln>  (164) 
-0.238488

>  <r_i_glide_gscore>  (164) 
-1.14097

>  <r_i_glide_lipo>  (164) 
-0.0985239

>  <r_i_glide_hbond>  (164) 
0

>  <r_i_glide_metal>  (164) 
-0

>  <r_i_glide_rewards>  (164) 
-0.0304891

>  <r_i_glide_evdw>  (164) 
-21.7314

>  <r_i_glide_ecoul>  (164) 
0.141123

>  <r_i_glide_erotb>  (164) 
0.0557561

>  <r_i_glide_esite>  (164) 
-0.00231489

>  <r_i_glide_emodel>  (164) 
-22.0552

>  <r_i_glide_energy>  (164) 
-21.5903

>  <r_i_glide_einternal>  (164) 
1.43509

>  <r_i_glide_intrahb_reward>  (164) 
-0

>  <i_i_glide_confnum>  (164) 
2

>  <i_i_glide_posenum>  (164) 
11

>  <r_i_glide_eff_state_penalty>  (164) 
0

>  <ligand_id>  (164) 
54

>  <original_smiles>  (164) 
COC1(C)C2OC(C)(C)C3OC(=O)C45C(=O)OC(C)=C6C=C(C)CCC6(C=C4C(C)C)CC32C(C)C(O)C(O)C51C(C)(C)O

>  <smiles>  (164) 
[H]OC1([H])C([H])(O[H])C2(C(O[H])(C([H])([H])[H])C([H])([H])[H])C34C(=O)OC(C([H])([H])[H])=C5C([H])=C(C([H])([H])[H])C([H])([H])C([H])([H])C5(C([H])=C3C([H])(C([H])([H])[H])C([H])([H])[H])C([H])([H])C3(C([H])(OC4=O)C(C([H])([H])[H])(C([H])([H])[H])OC3([H])C2(OC([H])([H])[H])C([H])([H])[H])C1([H])C([H])([H])[H]

$$$$
55:0:0
     RDKit          3D

 62 68  0  0  1  0  0  0  0  0999 V2000
   -1.9938    2.6685    3.1032 C   0  0  0  0  0  0  0  0  0  0  0  0
   -0.4616    2.4948    3.1759 C   0  0  2  0  0  0  0  0  0  0  0  0
    0.0835    1.5246    2.0806 C   0  0  0  0  0  0  0  0  0  0  0  0
    1.3304    0.6725    2.4455 C   0  0  2  0  0  0  0  0  0  0  0  0
    2.1677    0.6596    1.3090 O   0  0  0  0  0  0  0  0  0  0  0  0
    1.0184   -0.7279    2.9681 C   0  0  1  0  0  0  0  0  0  0  0  0
    1.5042   -1.8104    2.2083 O   0  0  0  0  0  0  0  0  0  0  0  0
    1.6449   -0.4379    4.3775 C   0  0  2  0  0  0  0  0  0  0  0  0
    2.8822   -1.4593    4.5916 C   0  0  0  0  0  0  0  0  0  0  0  0
    3.9871   -1.1796    5.6573 C   0  0  2  0  0  0  0  0  0  0  0  0
    5.2427   -0.5702    5.0698 C   0  0  0  0  0  0  0  0  0  0  0  0
    4.1163   -1.6956    7.1653 C   0  0  1  0  0  0  0  0  0  0  0  0
    3.0100   -1.8286    8.2383 C   0  0  0  0  0  0  0  0  0  0  0  0
    2.0940   -1.2362    7.2120 C   0  0  2  0  0  0  0  0  0  0  0  0
    3.3183   -0.5404    6.7218 C   0  0  2  0  0  0  0  0  0  0  0  0
    0.9525   -0.3106    7.0777 C   0  0  2  0  0  0  0  0  0  0  0  0
    0.6329    0.6997    8.1532 C   0  0  0  0  0  0  0  0  0  0  0  0
   -0.1052   -0.5075    8.0351 O   0  0  0  0  0  0  0  0  0  0  0  0
    0.4856   -0.3429    5.5393 C   0  0  2  0  0  0  0  0  0  0  0  0
   -0.4261   -1.6219    5.4362 C   0  0  0  0  0  0  0  0  0  0  0  0
   -0.4676    0.8751    5.1828 C   0  0  1  0  0  0  0  0  0  0  0  0
   -1.5451    1.0729    6.0892 O   0  0  0  0  0  0  0  0  0  0  0  0
    0.1366    2.2262    4.5977 C   0  0  2  0  0  0  0  0  0  0  0  0
   -0.2547    3.3305    5.4050 O   0  0  0  0  0  0  0  0  0  0  0  0
    1.7078    2.2644    4.4600 C   0  0  0  0  0  0  0  0  0  0  0  0
    2.2478    3.4443    3.5919 C   0  0  0  0  0  0  0  0  0  0  0  0
    2.4438    2.4844    5.7961 C   0  0  0  0  0  0  0  0  0  0  0  0
    2.0833    0.9455    3.7768 C   0  0  2  0  0  0  0  0  0  0  0  0
   -2.5305    1.7480    3.3017 H   0  0  0  0  0  0  0  0  0  0  0  0
   -2.2882    3.0022    2.1047 H   0  0  0  0  0  0  0  0  0  0  0  0
   -2.3542    3.4207    3.8077 H   0  0  0  0  0  0  0  0  0  0  0  0
   -0.1327    3.4901    2.8893 H   0  0  0  0  0  0  0  0  0  0  0  0
   -0.7263    0.8733    1.7538 H   0  0  0  0  0  0  0  0  0  0  0  0
    0.2827    2.1243    1.1936 H   0  0  0  0  0  0  0  0  0  0  0  0
    1.6818    0.2528    0.5867 H   0  0  0  0  0  0  0  0  0  0  0  0
   -0.0578   -0.8351    2.9849 H   0  0  0  0  0  0  0  0  0  0  0  0
    1.4149   -1.5530    1.2961 H   0  0  0  0  0  0  0  0  0  0  0  0
    2.5231   -2.4796    4.7134 H   0  0  0  0  0  0  0  0  0  0  0  0
    3.4378   -1.5102    3.6484 H   0  0  0  0  0  0  0  0  0  0  0  0
    5.8930   -0.2059    5.8701 H   0  0  0  0  0  0  0  0  0  0  0  0
    5.0345    0.2829    4.4210 H   0  0  0  0  0  0  0  0  0  0  0  0
    5.7900   -1.3146    4.4972 H   0  0  0  0  0  0  0  0  0  0  0  0
    5.1250   -1.6319    7.5671 H   0  0  0  0  0  0  0  0  0  0  0  0
    2.7253   -2.8211    8.5780 H   0  0  0  0  0  0  0  0  0  0  0  0
    3.1511   -1.1545    9.0993 H   0  0  0  0  0  0  0  0  0  0  0  0
    1.7846   -2.1683    6.7158 H   0  0  0  0  0  0  0  0  0  0  0  0
    3.6690    0.4101    7.1351 H   0  0  0  0  0  0  0  0  0  0  0  0
    1.3215    0.7526    8.9934 H   0  0  0  0  0  0  0  0  0  0  0  0
    0.0991    1.6140    7.9106 H   0  0  0  0  0  0  0  0  0  0  0  0
   -1.1234   -1.7137    6.2710 H   0  0  0  0  0  0  0  0  0  0  0  0
    0.1511   -2.5461    5.3950 H   0  0  0  0  0  0  0  0  0  0  0  0
   -1.0778   -1.6387    4.5635 H   0  0  0  0  0  0  0  0  0  0  0  0
   -1.0541    0.4977    4.3547 H   0  0  0  0  0  0  0  0  0  0  0  0
   -2.0590    1.7933    5.7584 H   0  0  0  0  0  0  0  0  0  0  0  0
    0.1590    4.1010    5.0562 H   0  0  0  0  0  0  0  0  0  0  0  0
    3.3332    3.5067    3.6449 H   0  0  0  0  0  0  0  0  0  0  0  0
    1.8580    4.4057    3.9245 H   0  0  0  0  0  0  0  0  0  0  0  0
    2.0246    3.3528    2.5290 H   0  0  0  0  0  0  0  0  0  0  0  0
    3.5091    2.2997    5.6891 H   0  0  0  0  0  0  0  0  0  0  0  0
    2.0801    1.8590    6.5820 H   0  0  0  0  0  0  0  0  0  0  0  0
    2.3270    3.5068    6.1510 H   0  0  0  0  0  0  0  0  0  0  0  0
    3.1532    0.9202    3.5739 H   0  0  0  0  0  0  0  0  0  0  0  0
  1  2  1  0
  1 29  1  0
  1 30  1  0
  1 31  1  0
  2 23  1  0
  2  3  1  0
  2 32  1  6
  3  4  1  0
  3 33  1  0
  3 34  1  0
  4 28  1  0
  4  5  1  6
  4  6  1  0
  5 35  1  0
  6  7  1  0
  6  8  1  0
  6 36  1  1
  7 37  1  0
  8 19  1  0
  8 28  1  0
  8  9  1  1
  9 10  1  0
  9 38  1  0
  9 39  1  0
 10 15  1  0
 10 11  1  6
 10 12  1  0
 11 40  1  0
 11 41  1  0
 11 42  1  0
 12 15  1  0
 12 13  1  0
 12 43  1  1
 13 14  1  0
 13 44  1  0
 13 45  1  0
 14 15  1  0
 14 16  1  0
 14 46  1  6
 15 47  1  1
 16 18  1  1
 16 17  1  0
 16 19  1  0
 17 18  1  0
 17 48  1  0
 17 49  1  0
 19 20  1  1
 19 21  1  0
 20 50  1  0
 20 51  1  0
 20 52  1  0
 21 22  1  0
 21 23  1  0
 21 53  1  6
 22 54  1  0
 23 24  1  1
 23 25  1  0
 24 55  1  0
 25 26  1  0
 25 27  1  0
 25 28  1  0
 26 56  1  0
 26 57  1  0
 26 58  1  0
 27 59  1  0
 27 60  1  0
 27 61  1  0
 28 62  1  6
M  END
>  <i_m_ct_stereo_status>  (165) 
1

>  <s_m_source_file>  (165) 
/var/tmp/pbs.5076255.sched01/tmpy176o0g7/39stoh4b52.sdf

>  <i_m_source_file_index>  (165) 
34

>  <i_lp_mmshare_version>  (165) 
48012

>  <i_f3d_flags>  (165) 
0

>  <s_epik_input>  (165) 
W0NIM11DMShbQ0gzXSlbQ0BASF0yW0NAQF0oW09IXSkoW0NASF0zW09IXSlbQ0gyXVtDQEBIXShbQ0gzXSlbQ0BAXTEoW09IXSlbQ0BIXShbT0hdKVtDQF0oW0NAXTIzNCkoW0NIM10pW0NAXTUoW0NIMl1PNSlbQ0BIXTZbQ0BASF03W0NAQF0oW0NIMl00KShbQ0gzXSlbQ0BASF03W0NIMl02

>  <s_epik_cmdline>  (165) 
J2VwaWtfcHl0aG9uJywgJy1waHQnLCAnMi4wJywgJy1waCcsICc3LjAnLCAnLXRuJywgJzgnLCAnLW1hJywgJzIwMCcsICctaW1hZScsICc8aW5maWxlLm1hZT4nLCAnLW9tYWUnLCAnPG91dGZpbGUubWFlPic=

>  <r_lp_tautomer_probability>  (165) 
1

>  <r_epik_Ionization_Penalty>  (165) 
1.52908e-06

>  <r_epik_Ionization_Penalty_Charging>  (165) 
0

>  <r_epik_Ionization_Penalty_Neutral>  (165) 
1.52908e-06

>  <r_epik_State_Penalty>  (165) 
-0

>  <r_epik_Charging_Adjusted_Penalty>  (165) 
0

>  <i_epik_Tot_Q>  (165) 
0

>  <i_epik_Tot_abs_Q>  (165) 
0

>  <s_lp_Force_Field>  (165) 
OPLS3e

>  <r_lp_Energy>  (165) 
159.545

>  <b_lp_Chiralities_Consistent>  (165) 
1

>  <s_lp_Variant>  (165) 
55:0-1

>  <s_i_glide_gridfile>  (165) 
pfpi4k_grid

>  <i_i_glide_lignum>  (165) 
34

>  <i_i_glide_rotatable_bonds>  (165) 
4

>  <r_i_docking_score>  (165) 
-2.89993

>  <r_i_glide_ligand_efficiency>  (165) 
-0.103569

>  <r_i_glide_ligand_efficiency_sa>  (165) 
-0.314496

>  <r_i_glide_ligand_efficiency_ln>  (165) 
-0.669389

>  <r_i_glide_gscore>  (165) 
-2.89993

>  <r_i_glide_lipo>  (165) 
-0.0447568

>  <r_i_glide_hbond>  (165) 
-0.00730956

>  <r_i_glide_metal>  (165) 
-0

>  <r_i_glide_rewards>  (165) 
-0.746502

>  <r_i_glide_evdw>  (165) 
-21.1061

>  <r_i_glide_ecoul>  (165) 
-6.97373

>  <r_i_glide_erotb>  (165) 
0

>  <r_i_glide_esite>  (165) 
0

>  <r_i_glide_emodel>  (165) 
-31.9561

>  <r_i_glide_energy>  (165) 
-28.0798

>  <r_i_glide_einternal>  (165) 
3.08759

>  <r_i_glide_intrahb_reward>  (165) 
-0

>  <i_i_glide_confnum>  (165) 
1

>  <i_i_glide_posenum>  (165) 
27

>  <r_i_glide_eff_state_penalty>  (165) 
0

>  <ligand_id>  (165) 
55

>  <original_smiles>  (165) 
CC1CC2(O)C(O)C34CC5(C)C6CC(C65)C5(CO5)C3(C)C(O)C1(O)C(C)(C)C24

>  <smiles>  (165) 
[H]OC1([H])C2(O[H])C([H])([H])C([H])(C([H])([H])[H])C3(O[H])C([H])(O[H])C4(C([H])([H])[H])C5(OC5([H])[H])C5([H])C([H])([H])C6([H])C5([H])C6(C([H])([H])[H])C([H])([H])C14C2([H])C3(C([H])([H])[H])C([H])([H])[H]

$$$$
55:0:1
     RDKit          3D

 62 68  0  0  1  0  0  0  0  0999 V2000
   -2.0444    2.6480    3.2230 C   0  0  0  0  0  0  0  0  0  0  0  0
   -0.5161    2.4846    3.2413 C   0  0  2  0  0  0  0  0  0  0  0  0
   -0.0090    1.4436    2.1924 C   0  0  0  0  0  0  0  0  0  0  0  0
    1.2482    0.6163    2.5716 C   0  0  2  0  0  0  0  0  0  0  0  0
    2.0468    0.5277    1.3992 O   0  0  0  0  0  0  0  0  0  0  0  0
    0.9680   -0.7416    3.2066 C   0  0  1  0  0  0  0  0  0  0  0  0
    1.4134   -1.8807    2.5003 O   0  0  0  0  0  0  0  0  0  0  0  0
    1.6439   -0.3611    4.5646 C   0  0  2  0  0  0  0  0  0  0  0  0
    2.8876   -1.3727    4.8006 C   0  0  0  0  0  0  0  0  0  0  0  0
    4.0352   -1.0289    5.7863 C   0  0  2  0  0  0  0  0  0  0  0  0
    5.2625   -0.4634    5.1277 C   0  0  0  0  0  0  0  0  0  0  0  0
    4.2214   -1.4418    7.3377 C   0  0  1  0  0  0  0  0  0  0  0  0
    3.1503   -1.5077    8.4432 C   0  0  0  0  0  0  0  0  0  0  0  0
    2.2028   -0.9691    7.4222 C   0  0  2  0  0  0  0  0  0  0  0  0
    3.3993   -0.3222    6.8407 C   0  0  2  0  0  0  0  0  0  0  0  0
    1.0523   -0.0581    7.2766 C   0  0  2  0  0  0  0  0  0  0  0  0
    0.7644    1.0099    8.2898 C   0  0  0  0  0  0  0  0  0  0  0  0
    0.0322   -0.1931    8.2708 O   0  0  0  0  0  0  0  0  0  0  0  0
    0.5316   -0.1880    5.7570 C   0  0  2  0  0  0  0  0  0  0  0  0
   -0.3793   -1.4734    5.7711 C   0  0  0  0  0  0  0  0  0  0  0  0
   -0.4382    1.0015    5.3552 C   0  0  1  0  0  0  0  0  0  0  0  0
   -1.4846    1.2578    6.2799 O   0  0  0  0  0  0  0  0  0  0  0  0
    0.1410    2.3101    4.6544 C   0  0  2  0  0  0  0  0  0  0  0  0
   -0.2230    3.4661    5.4053 O   0  0  0  0  0  0  0  0  0  0  0  0
    1.7047    2.3373    4.4577 C   0  0  0  0  0  0  0  0  0  0  0  0
    2.2139    3.4583    3.4977 C   0  0  0  0  0  0  0  0  0  0  0  0
    2.4925    2.6418    5.7516 C   0  0  0  0  0  0  0  0  0  0  0  0
    2.0561    0.9756    3.8512 C   0  0  2  0  0  0  0  0  0  0  0  0
   -2.5679    1.7359    3.5045 H   0  0  0  0  0  0  0  0  0  0  0  0
   -2.3833    2.9119    2.2210 H   0  0  0  0  0  0  0  0  0  0  0  0
   -2.3814    3.4392    3.8919 H   0  0  0  0  0  0  0  0  0  0  0  0
   -0.1993    3.4549    2.8662 H   0  0  0  0  0  0  0  0  0  0  0  0
   -0.8343    0.7736    1.9385 H   0  0  0  0  0  0  0  0  0  0  0  0
    0.1539    1.9854    1.2568 H   0  0  0  0  0  0  0  0  0  0  0  0
    1.5198    0.0969    0.7303 H   0  0  0  0  0  0  0  0  0  0  0  0
   -0.1087   -0.8372    3.2828 H   0  0  0  0  0  0  0  0  0  0  0  0
    2.2684   -1.6722    2.1652 H   0  0  0  0  0  0  0  0  0  0  0  0
    2.5343   -2.3789    5.0008 H   0  0  0  0  0  0  0  0  0  0  0  0
    3.4112   -1.4892    3.8362 H   0  0  0  0  0  0  0  0  0  0  0  0
    5.9443   -0.0442    5.8717 H   0  0  0  0  0  0  0  0  0  0  0  0
    5.0284    0.3508    4.4253 H   0  0  0  0  0  0  0  0  0  0  0  0
    5.7938   -1.2410    4.5778 H   0  0  0  0  0  0  0  0  0  0  0  0
    5.2356   -1.3373    7.6921 H   0  0  0  0  0  0  0  0  0  0  0  0
    2.8819   -2.4755    8.8623 H   0  0  0  0  0  0  0  0  0  0  0  0
    3.3261   -0.7724    9.2610 H   0  0  0  0  0  0  0  0  0  0  0  0
    1.8707   -1.9394    7.0044 H   0  0  0  0  0  0  0  0  0  0  0  0
    3.7671    0.6535    7.1779 H   0  0  0  0  0  0  0  0  0  0  0  0
    1.4896    1.1254    9.1018 H   0  0  0  0  0  0  0  0  0  0  0  0
    0.2231    1.9184    8.0085 H   0  0  0  0  0  0  0  0  0  0  0  0
   -1.0396   -1.5124    6.6364 H   0  0  0  0  0  0  0  0  0  0  0  0
    0.1959   -2.4008    5.7660 H   0  0  0  0  0  0  0  0  0  0  0  0
   -1.0710   -1.5483    4.9309 H   0  0  0  0  0  0  0  0  0  0  0  0
   -1.0545    0.5704    4.5765 H   0  0  0  0  0  0  0  0  0  0  0  0
   -1.9796    1.9894    5.9483 H   0  0  0  0  0  0  0  0  0  0  0  0
    0.1938    4.2062    5.0056 H   0  0  0  0  0  0  0  0  0  0  0  0
    3.2984    3.5187    3.5071 H   0  0  0  0  0  0  0  0  0  0  0  0
    1.8353    4.4383    3.7829 H   0  0  0  0  0  0  0  0  0  0  0  0
    1.9491    3.2969    2.4536 H   0  0  0  0  0  0  0  0  0  0  0  0
    3.5515    2.4481    5.6153 H   0  0  0  0  0  0  0  0  0  0  0  0
    2.1585    2.0699    6.5899 H   0  0  0  0  0  0  0  0  0  0  0  0
    2.3882    3.6848    6.0419 H   0  0  0  0  0  0  0  0  0  0  0  0
    3.1120    0.9372    3.6052 H   0  0  0  0  0  0  0  0  0  0  0  0
  1  2  1  0
  1 29  1  0
  1 30  1  0
  1 31  1  0
  2 23  1  0
  2  3  1  0
  2 32  1  6
  3  4  1  0
  3 33  1  0
  3 34  1  0
  4 28  1  0
  4  5  1  6
  4  6  1  0
  5 35  1  0
  6  7  1  0
  6  8  1  0
  6 36  1  1
  7 37  1  0
  8 19  1  0
  8 28  1  0
  8  9  1  1
  9 10  1  0
  9 38  1  0
  9 39  1  0
 10 15  1  0
 10 11  1  6
 10 12  1  0
 11 40  1  0
 11 41  1  0
 11 42  1  0
 12 15  1  0
 12 13  1  0
 12 43  1  1
 13 14  1  0
 13 44  1  0
 13 45  1  0
 14 15  1  0
 14 16  1  0
 14 46  1  6
 15 47  1  1
 16 18  1  1
 16 17  1  0
 16 19  1  0
 17 18  1  0
 17 48  1  0
 17 49  1  0
 19 20  1  1
 19 21  1  0
 20 50  1  0
 20 51  1  0
 20 52  1  0
 21 22  1  0
 21 23  1  0
 21 53  1  6
 22 54  1  0
 23 24  1  1
 23 25  1  0
 24 55  1  0
 25 26  1  0
 25 27  1  0
 25 28  1  0
 26 56  1  0
 26 57  1  0
 26 58  1  0
 27 59  1  0
 27 60  1  0
 27 61  1  0
 28 62  1  6
M  END
>  <i_m_ct_stereo_status>  (166) 
1

>  <s_m_source_file>  (166) 
/var/tmp/pbs.5076255.sched01/tmpy176o0g7/39stoh4b52.sdf

>  <i_m_source_file_index>  (166) 
34

>  <i_lp_mmshare_version>  (166) 
48012

>  <i_f3d_flags>  (166) 
0

>  <s_epik_input>  (166) 
W0NIM11DMShbQ0gzXSlbQ0BASF0yW0NAQF0oW09IXSkoW0NASF0zW09IXSlbQ0gyXVtDQEBIXShbQ0gzXSlbQ0BAXTEoW09IXSlbQ0BIXShbT0hdKVtDQF0oW0NAXTIzNCkoW0NIM10pW0NAXTUoW0NIMl1PNSlbQ0BIXTZbQ0BASF03W0NAQF0oW0NIMl00KShbQ0gzXSlbQ0BASF03W0NIMl02

>  <s_epik_cmdline>  (166) 
J2VwaWtfcHl0aG9uJywgJy1waHQnLCAnMi4wJywgJy1waCcsICc3LjAnLCAnLXRuJywgJzgnLCAnLW1hJywgJzIwMCcsICctaW1hZScsICc8aW5maWxlLm1hZT4nLCAnLW9tYWUnLCAnPG91dGZpbGUubWFlPic=

>  <r_lp_tautomer_probability>  (166) 
1

>  <r_epik_Ionization_Penalty>  (166) 
1.52908e-06

>  <r_epik_Ionization_Penalty_Charging>  (166) 
0

>  <r_epik_Ionization_Penalty_Neutral>  (166) 
1.52908e-06

>  <r_epik_State_Penalty>  (166) 
-0

>  <r_epik_Charging_Adjusted_Penalty>  (166) 
0

>  <i_epik_Tot_Q>  (166) 
0

>  <i_epik_Tot_abs_Q>  (166) 
0

>  <s_lp_Force_Field>  (166) 
OPLS3e

>  <r_lp_Energy>  (166) 
159.545

>  <b_lp_Chiralities_Consistent>  (166) 
1

>  <s_lp_Variant>  (166) 
55:0-1

>  <s_i_glide_gridfile>  (166) 
pfpi4k_grid

>  <i_i_glide_lignum>  (166) 
34

>  <i_i_glide_rotatable_bonds>  (166) 
4

>  <r_i_docking_score>  (166) 
-2.57986

>  <r_i_glide_ligand_efficiency>  (166) 
-0.092138

>  <r_i_glide_ligand_efficiency_sa>  (166) 
-0.279785

>  <r_i_glide_ligand_efficiency_ln>  (166) 
-0.595509

>  <r_i_glide_gscore>  (166) 
-2.57986

>  <r_i_glide_lipo>  (166) 
-0.0435783

>  <r_i_glide_hbond>  (166) 
0

>  <r_i_glide_metal>  (166) 
-0

>  <r_i_glide_rewards>  (166) 
-0.746502

>  <r_i_glide_evdw>  (166) 
-22.138

>  <r_i_glide_ecoul>  (166) 
-4.55257

>  <r_i_glide_erotb>  (166) 
0

>  <r_i_glide_esite>  (166) 
0

>  <r_i_glide_emodel>  (166) 
-30.632

>  <r_i_glide_energy>  (166) 
-26.6906

>  <r_i_glide_einternal>  (166) 
1.36803

>  <r_i_glide_intrahb_reward>  (166) 
-0

>  <i_i_glide_confnum>  (166) 
1

>  <i_i_glide_posenum>  (166) 
1

>  <r_i_glide_eff_state_penalty>  (166) 
0

>  <ligand_id>  (166) 
55

>  <original_smiles>  (166) 
CC1CC2(O)C(O)C34CC5(C)C6CC(C65)C5(CO5)C3(C)C(O)C1(O)C(C)(C)C24

>  <smiles>  (166) 
[H]OC1([H])C2(O[H])C([H])([H])C([H])(C([H])([H])[H])C3(O[H])C([H])(O[H])C4(C([H])([H])[H])C5(OC5([H])[H])C5([H])C([H])([H])C6([H])C5([H])C6(C([H])([H])[H])C([H])([H])C14C2([H])C3(C([H])([H])[H])C([H])([H])[H]

$$$$
55:0:2
     RDKit          3D

 62 68  0  0  1  0  0  0  0  0999 V2000
   -2.0476    2.6653    3.1776 C   0  0  0  0  0  0  0  0  0  0  0  0
   -0.5170    2.5149    3.2297 C   0  0  2  0  0  0  0  0  0  0  0  0
    0.0210    1.4812    2.1858 C   0  0  0  0  0  0  0  0  0  0  0  0
    1.2779    0.6554    2.5899 C   0  0  2  0  0  0  0  0  0  0  0  0
    2.1034    0.5672    1.4372 O   0  0  0  0  0  0  0  0  0  0  0  0
    0.9886   -0.7053    3.2083 C   0  0  1  0  0  0  0  0  0  0  0  0
    1.4543   -1.8362    2.5070 O   0  0  0  0  0  0  0  0  0  0  0  0
    1.6350   -0.3271    4.5800 C   0  0  2  0  0  0  0  0  0  0  0  0
    2.8861   -1.3250    4.8380 C   0  0  0  0  0  0  0  0  0  0  0  0
    4.0078   -0.9764    5.8556 C   0  0  2  0  0  0  0  0  0  0  0  0
    5.2451   -0.3917    5.2274 C   0  0  0  0  0  0  0  0  0  0  0  0
    4.1605   -1.3977    7.4046 C   0  0  1  0  0  0  0  0  0  0  0  0
    3.0611   -1.4840    8.4884 C   0  0  0  0  0  0  0  0  0  0  0  0
    2.1346   -0.9525    7.4490 C   0  0  2  0  0  0  0  0  0  0  0  0
    3.3394   -0.2830    6.8998 C   0  0  2  0  0  0  0  0  0  0  0  0
    0.9788   -0.0479    7.2827 C   0  0  2  0  0  0  0  0  0  0  0  0
    0.6585    1.0101    8.2987 C   0  0  0  0  0  0  0  0  0  0  0  0
   -0.0648   -0.2018    8.2528 O   0  0  0  0  0  0  0  0  0  0  0  0
    0.4932   -0.1719    5.7511 C   0  0  2  0  0  0  0  0  0  0  0  0
   -0.4047   -1.4672    5.7326 C   0  0  0  0  0  0  0  0  0  0  0  0
   -0.4766    1.0144    5.3338 C   0  0  1  0  0  0  0  0  0  0  0  0
   -1.5339    1.2612    6.2454 O   0  0  0  0  0  0  0  0  0  0  0  0
    0.1043    2.3344    4.6592 C   0  0  2  0  0  0  0  0  0  0  0  0
   -0.2926    3.4691    5.4265 O   0  0  0  0  0  0  0  0  0  0  0  0
    1.6735    2.3754    4.4974 C   0  0  0  0  0  0  0  0  0  0  0  0
    2.1883    3.5084    3.5572 C   0  0  0  0  0  0  0  0  0  0  0  0
    2.4215    2.6790    5.8115 C   0  0  0  0  0  0  0  0  0  0  0  0
    2.0498    1.0210    3.8900 C   0  0  2  0  0  0  0  0  0  0  0  0
   -2.5387    1.7505    3.4465 H   0  0  0  0  0  0  0  0  0  0  0  0
   -2.3681    2.9285    2.1693 H   0  0  0  0  0  0  0  0  0  0  0  0
   -2.4056    3.4485    3.8455 H   0  0  0  0  0  0  0  0  0  0  0  0
   -0.2002    3.4948    2.8743 H   0  0  0  0  0  0  0  0  0  0  0  0
   -0.7918    0.8065    1.9081 H   0  0  0  0  0  0  0  0  0  0  0  0
    0.2043    2.0308    1.2585 H   0  0  0  0  0  0  0  0  0  0  0  0
    1.5809    0.1677    0.7491 H   0  0  0  0  0  0  0  0  0  0  0  0
   -0.0870   -0.8077    3.2598 H   0  0  0  0  0  0  0  0  0  0  0  0
    2.3114   -1.6135    2.1807 H   0  0  0  0  0  0  0  0  0  0  0  0
    2.5393   -2.3368    5.0229 H   0  0  0  0  0  0  0  0  0  0  0  0
    3.4291   -1.4266    3.8874 H   0  0  0  0  0  0  0  0  0  0  0  0
    5.9009    0.0290    5.9929 H   0  0  0  0  0  0  0  0  0  0  0  0
    5.0163    0.4237    4.5289 H   0  0  0  0  0  0  0  0  0  0  0  0
    5.8042   -1.1567    4.6881 H   0  0  0  0  0  0  0  0  0  0  0  0
    5.1639   -1.2851    7.7876 H   0  0  0  0  0  0  0  0  0  0  0  0
    2.7948   -2.4592    8.8884 H   0  0  0  0  0  0  0  0  0  0  0  0
    3.2104   -0.7582    9.3143 H   0  0  0  0  0  0  0  0  0  0  0  0
    1.8214   -1.9183    7.0131 H   0  0  0  0  0  0  0  0  0  0  0  0
    3.6878    0.6934    7.2539 H   0  0  0  0  0  0  0  0  0  0  0  0
    1.3596    1.1212    9.1281 H   0  0  0  0  0  0  0  0  0  0  0  0
    0.1110    1.9128    8.0165 H   0  0  0  0  0  0  0  0  0  0  0  0
   -1.0861   -1.5208    6.5793 H   0  0  0  0  0  0  0  0  0  0  0  0
    0.1815   -2.3878    5.7325 H   0  0  0  0  0  0  0  0  0  0  0  0
   -1.0739   -1.5422    4.8765 H   0  0  0  0  0  0  0  0  0  0  0  0
   -1.0758    0.5802    4.5433 H   0  0  0  0  0  0  0  0  0  0  0  0
   -2.0697    1.9499    5.8801 H   0  0  0  0  0  0  0  0  0  0  0  0
    0.1929    3.4575    6.2290 H   0  0  0  0  0  0  0  0  0  0  0  0
    3.2717    3.5824    3.5926 H   0  0  0  0  0  0  0  0  0  0  0  0
    1.7866    4.4792    3.8433 H   0  0  0  0  0  0  0  0  0  0  0  0
    1.9486    3.3519    2.5061 H   0  0  0  0  0  0  0  0  0  0  0  0
    3.4861    2.4969    5.6976 H   0  0  0  0  0  0  0  0  0  0  0  0
    2.0787    2.0966    6.6395 H   0  0  0  0  0  0  0  0  0  0  0  0
    2.3054    3.7199    6.1049 H   0  0  0  0  0  0  0  0  0  0  0  0
    3.1116    0.9968    3.6675 H   0  0  0  0  0  0  0  0  0  0  0  0
  1  2  1  0
  1 29  1  0
  1 30  1  0
  1 31  1  0
  2 23  1  0
  2  3  1  0
  2 32  1  6
  3  4  1  0
  3 33  1  0
  3 34  1  0
  4 28  1  0
  4  5  1  6
  4  6  1  0
  5 35  1  0
  6  7  1  0
  6  8  1  0
  6 36  1  1
  7 37  1  0
  8 19  1  0
  8 28  1  0
  8  9  1  1
  9 10  1  0
  9 38  1  0
  9 39  1  0
 10 15  1  0
 10 11  1  6
 10 12  1  0
 11 40  1  0
 11 41  1  0
 11 42  1  0
 12 15  1  0
 12 13  1  0
 12 43  1  1
 13 14  1  0
 13 44  1  0
 13 45  1  0
 14 15  1  0
 14 16  1  0
 14 46  1  6
 15 47  1  1
 16 18  1  1
 16 17  1  0
 16 19  1  0
 17 18  1  0
 17 48  1  0
 17 49  1  0
 19 20  1  1
 19 21  1  0
 20 50  1  0
 20 51  1  0
 20 52  1  0
 21 22  1  0
 21 23  1  0
 21 53  1  6
 22 54  1  0
 23 24  1  1
 23 25  1  0
 24 55  1  0
 25 26  1  0
 25 27  1  0
 25 28  1  0
 26 56  1  0
 26 57  1  0
 26 58  1  0
 27 59  1  0
 27 60  1  0
 27 61  1  0
 28 62  1  6
M  END
>  <i_m_ct_stereo_status>  (167) 
1

>  <s_m_source_file>  (167) 
/var/tmp/pbs.5076255.sched01/tmpy176o0g7/39stoh4b52.sdf

>  <i_m_source_file_index>  (167) 
34

>  <i_lp_mmshare_version>  (167) 
48012

>  <i_f3d_flags>  (167) 
0

>  <s_epik_input>  (167) 
W0NIM11DMShbQ0gzXSlbQ0BASF0yW0NAQF0oW09IXSkoW0NASF0zW09IXSlbQ0gyXVtDQEBIXShbQ0gzXSlbQ0BAXTEoW09IXSlbQ0BIXShbT0hdKVtDQF0oW0NAXTIzNCkoW0NIM10pW0NAXTUoW0NIMl1PNSlbQ0BIXTZbQ0BASF03W0NAQF0oW0NIMl00KShbQ0gzXSlbQ0BASF03W0NIMl02

>  <s_epik_cmdline>  (167) 
J2VwaWtfcHl0aG9uJywgJy1waHQnLCAnMi4wJywgJy1waCcsICc3LjAnLCAnLXRuJywgJzgnLCAnLW1hJywgJzIwMCcsICctaW1hZScsICc8aW5maWxlLm1hZT4nLCAnLW9tYWUnLCAnPG91dGZpbGUubWFlPic=

>  <r_lp_tautomer_probability>  (167) 
1

>  <r_epik_Ionization_Penalty>  (167) 
1.52908e-06

>  <r_epik_Ionization_Penalty_Charging>  (167) 
0

>  <r_epik_Ionization_Penalty_Neutral>  (167) 
1.52908e-06

>  <r_epik_State_Penalty>  (167) 
-0

>  <r_epik_Charging_Adjusted_Penalty>  (167) 
0

>  <i_epik_Tot_Q>  (167) 
0

>  <i_epik_Tot_abs_Q>  (167) 
0

>  <s_lp_Force_Field>  (167) 
OPLS3e

>  <r_lp_Energy>  (167) 
159.545

>  <b_lp_Chiralities_Consistent>  (167) 
1

>  <s_lp_Variant>  (167) 
55:0-1

>  <s_i_glide_gridfile>  (167) 
pfpi4k_grid

>  <i_i_glide_lignum>  (167) 
34

>  <i_i_glide_rotatable_bonds>  (167) 
4

>  <r_i_docking_score>  (167) 
-2.54167

>  <r_i_glide_ligand_efficiency>  (167) 
-0.0907739

>  <r_i_glide_ligand_efficiency_sa>  (167) 
-0.275643

>  <r_i_glide_ligand_efficiency_ln>  (167) 
-0.586692

>  <r_i_glide_gscore>  (167) 
-2.54167

>  <r_i_glide_lipo>  (167) 
-0.0408938

>  <r_i_glide_hbond>  (167) 
0

>  <r_i_glide_metal>  (167) 
-0

>  <r_i_glide_rewards>  (167) 
-0.746502

>  <r_i_glide_evdw>  (167) 
-22.2241

>  <r_i_glide_ecoul>  (167) 
-4.28711

>  <r_i_glide_erotb>  (167) 
0

>  <r_i_glide_esite>  (167) 
0

>  <r_i_glide_emodel>  (167) 
-30.1127

>  <r_i_glide_energy>  (167) 
-26.5112

>  <r_i_glide_einternal>  (167) 
1.38732

>  <r_i_glide_intrahb_reward>  (167) 
-0

>  <i_i_glide_confnum>  (167) 
2

>  <i_i_glide_posenum>  (167) 
13

>  <r_i_glide_eff_state_penalty>  (167) 
0

>  <ligand_id>  (167) 
55

>  <original_smiles>  (167) 
CC1CC2(O)C(O)C34CC5(C)C6CC(C65)C5(CO5)C3(C)C(O)C1(O)C(C)(C)C24

>  <smiles>  (167) 
[H]OC1([H])C2(O[H])C([H])([H])C([H])(C([H])([H])[H])C3(O[H])C([H])(O[H])C4(C([H])([H])[H])C5(OC5([H])[H])C5([H])C([H])([H])C6([H])C5([H])C6(C([H])([H])[H])C([H])([H])C14C2([H])C3(C([H])([H])[H])C([H])([H])[H]

$$$$
56:0:0
     RDKit          3D

 28 31  0  0  1  0  0  0  0  0999 V2000
    2.9529   -2.9066   -0.0075 C   0  0  0  0  0  0  0  0  0  0  0  0
    3.9746   -3.4983   -1.0256 C   0  0  1  0  0  0  0  0  0  0  0  0
    3.3046   -3.4256   -2.3126 O   0  0  0  0  0  0  0  0  0  0  0  0
    4.0210   -2.1744   -2.5250 C   0  0  0  0  0  0  0  0  0  0  0  0
    4.3036   -1.7918   -3.8808 O   0  0  0  0  0  0  0  0  0  0  0  0
    3.5902   -0.5580   -3.6609 C   0  0  0  0  0  0  0  0  0  0  0  0
    3.3370   -0.9359   -2.2966 O   0  0  0  0  0  0  0  0  0  0  0  0
    5.1369   -2.6643   -1.6234 C   0  0  2  0  0  0  0  0  0  0  0  0
    6.2209   -3.3591   -2.4744 C   0  0  0  0  0  0  0  0  0  0  0  0
    5.7415   -1.9156   -0.4602 C   0  0  0  0  0  0  0  0  0  0  0  0
    5.8810   -0.6996   -0.3257 O   0  0  0  0  0  0  0  0  0  0  0  0
    6.1494   -2.8497    0.6781 C   0  0  2  0  0  0  0  0  0  0  0  0
    6.8870   -4.0272    0.3318 O   0  0  0  0  0  0  0  0  0  0  0  0
    5.5300   -4.2655    0.7097 C   0  0  2  0  0  0  0  0  0  0  0  0
    4.5897   -4.7574   -0.4072 C   0  0  1  0  0  0  0  0  0  0  0  0
    3.6201   -5.6407    0.0929 O   0  0  0  0  0  0  0  0  0  0  0  0
    3.3587   -2.8502    1.0042 H   0  0  0  0  0  0  0  0  0  0  0  0
    2.0587   -3.5273    0.0409 H   0  0  0  0  0  0  0  0  0  0  0  0
    2.6251   -1.8984   -0.2528 H   0  0  0  0  0  0  0  0  0  0  0  0
    4.2322    0.3227   -3.7245 H   0  0  0  0  0  0  0  0  0  0  0  0
    2.6867   -0.4553   -4.2689 H   0  0  0  0  0  0  0  0  0  0  0  0
    5.7711   -4.0834   -3.1507 H   0  0  0  0  0  0  0  0  0  0  0  0
    7.0086   -3.8511   -1.9115 H   0  0  0  0  0  0  0  0  0  0  0  0
    6.7499   -2.6716   -3.1224 H   0  0  0  0  0  0  0  0  0  0  0  0
    6.4258   -2.3991    1.6306 H   0  0  0  0  0  0  0  0  0  0  0  0
    5.4205   -4.7401    1.6820 H   0  0  0  0  0  0  0  0  0  0  0  0
    5.1920   -5.3172   -1.1195 H   0  0  0  0  0  0  0  0  0  0  0  0
    3.1678   -5.9844   -0.6664 H   0  0  0  0  0  0  0  0  0  0  0  0
  2  1  1  1
  1 17  1  0
  1 18  1  0
  1 19  1  0
  2  8  1  0
  2 15  1  0
  2  3  1  0
  3  4  1  0
  4  7  1  0
  4  5  1  0
  4  8  1  0
  5  6  1  0
  6  7  1  0
  6 20  1  0
  6 21  1  0
  8  9  1  6
  8 10  1  0
  9 22  1  0
  9 23  1  0
  9 24  1  0
 10 11  2  0
 10 12  1  0
 12 14  1  0
 12 13  1  0
 12 25  1  1
 13 14  1  0
 14 15  1  0
 14 26  1  1
 15 16  1  0
 15 27  1  6
 16 28  1  0
M  END
>  <i_m_ct_stereo_status>  (168) 
1

>  <s_m_source_file>  (168) 
/var/tmp/pbs.5076255.sched01/tmpy176o0g7/39stoh4b52.sdf

>  <i_m_source_file_index>  (168) 
35

>  <i_lp_mmshare_version>  (168) 
48012

>  <i_f3d_flags>  (168) 
0

>  <s_epik_input>  (168) 
Tz1DMVtDQEhdKE8yKVtDQEhdMltDQEBIXShbT0hdKVtDQEBdKE8zKShbQ0gzXSlbQ0BAXTEoW0NIM10pQzM0T1tDSDJdTzQ=

>  <s_epik_cmdline>  (168) 
J2VwaWtfcHl0aG9uJywgJy1waHQnLCAnMi4wJywgJy1waCcsICc3LjAnLCAnLXRuJywgJzgnLCAnLW1hJywgJzIwMCcsICctaW1hZScsICc8aW5maWxlLm1hZT4nLCAnLW9tYWUnLCAnPG91dGZpbGUubWFlPic=

>  <r_lp_tautomer_probability>  (168) 
1

>  <r_epik_Ionization_Penalty>  (168) 
4.90248e-06

>  <r_epik_Ionization_Penalty_Charging>  (168) 
0

>  <r_epik_Ionization_Penalty_Neutral>  (168) 
4.90248e-06

>  <r_epik_State_Penalty>  (168) 
-0

>  <r_epik_Charging_Adjusted_Penalty>  (168) 
0

>  <i_epik_Tot_Q>  (168) 
0

>  <i_epik_Tot_abs_Q>  (168) 
0

>  <s_epik_Chemistry_Notes>  (168) 
This compound contains an acetal/aminal-like group ( X-CH(R)-Y where X, Y are N, S, or O) that may be acid/base labile, releasing an aldehyde.

>  <s_lp_Force_Field>  (168) 
OPLS3e

>  <r_lp_Energy>  (168) 
32.9772

>  <b_lp_Chiralities_Consistent>  (168) 
1

>  <s_lp_Variant>  (168) 
56:0-1

>  <s_i_glide_gridfile>  (168) 
pfpi4k_grid

>  <i_i_glide_lignum>  (168) 
35

>  <i_i_glide_rotatable_bonds>  (168) 
1

>  <r_i_docking_score>  (168) 
-3.9663

>  <r_i_glide_ligand_efficiency>  (168) 
-0.247894

>  <r_i_glide_ligand_efficiency_sa>  (168) 
-0.624653

>  <r_i_glide_ligand_efficiency_ln>  (168) 
-1.05135

>  <r_i_glide_gscore>  (168) 
-3.9663

>  <r_i_glide_lipo>  (168) 
-0.41743

>  <r_i_glide_hbond>  (168) 
-0.0838865

>  <r_i_glide_metal>  (168) 
-0

>  <r_i_glide_rewards>  (168) 
-2.24313

>  <r_i_glide_evdw>  (168) 
-17.1264

>  <r_i_glide_ecoul>  (168) 
-2.25417

>  <r_i_glide_erotb>  (168) 
0

>  <r_i_glide_esite>  (168) 
-0.0274011

>  <r_i_glide_emodel>  (168) 
-23.4436

>  <r_i_glide_energy>  (168) 
-19.3806

>  <r_i_glide_einternal>  (168) 
0.322409

>  <r_i_glide_intrahb_reward>  (168) 
-0

>  <i_i_glide_confnum>  (168) 
1

>  <i_i_glide_posenum>  (168) 
20

>  <r_i_glide_eff_state_penalty>  (168) 
0

>  <ligand_id>  (168) 
56

>  <original_smiles>  (168) 
CC12OC3(OCO3)C1(C)C(=O)C1OC1C2O

>  <smiles>  (168) 
[H]OC1([H])C2([H])OC2([H])C(=O)C2(C([H])([H])[H])C3(OC([H])([H])O3)OC12C([H])([H])[H]

$$$$
56:0:1
     RDKit          3D

 28 31  0  0  1  0  0  0  0  0999 V2000
    2.8423   -1.9470    0.8303 C   0  0  0  0  0  0  0  0  0  0  0  0
    3.4567   -3.1629    0.0650 C   0  0  1  0  0  0  0  0  0  0  0  0
    2.6730   -3.2772   -1.1577 O   0  0  0  0  0  0  0  0  0  0  0  0
    3.7172   -2.4890   -1.8074 C   0  0  0  0  0  0  0  0  0  0  0  0
    3.9265   -2.6957   -3.2153 O   0  0  0  0  0  0  0  0  0  0  0  0
    3.6839   -1.2896   -3.4385 C   0  0  0  0  0  0  0  0  0  0  0  0
    3.5068   -1.0813   -2.0165 O   0  0  0  0  0  0  0  0  0  0  0  0
    4.7284   -3.0172   -0.8105 C   0  0  2  0  0  0  0  0  0  0  0  0
    5.4235   -4.2538   -1.4073 C   0  0  0  0  0  0  0  0  0  0  0  0
    5.7049   -2.2006   -0.0150 C   0  0  0  0  0  0  0  0  0  0  0  0
    6.2453   -1.1488   -0.3387 O   0  0  0  0  0  0  0  0  0  0  0  0
    5.9516   -2.7940    1.3763 C   0  0  2  0  0  0  0  0  0  0  0  0
    6.2168   -4.1998    1.4629 O   0  0  0  0  0  0  0  0  0  0  0  0
    4.9189   -3.8133    1.9243 C   0  0  2  0  0  0  0  0  0  0  0  0
    3.7171   -4.2881    1.0744 C   0  0  1  0  0  0  0  0  0  0  0  0
    2.6089   -4.5816    1.9024 O   0  0  0  0  0  0  0  0  0  0  0  0
    3.3872   -1.7038    1.7448 H   0  0  0  0  0  0  0  0  0  0  0  0
    1.8097   -2.1457    1.1152 H   0  0  0  0  0  0  0  0  0  0  0  0
    2.8306   -1.0294    0.2485 H   0  0  0  0  0  0  0  0  0  0  0  0
    4.5674   -0.7811   -3.8285 H   0  0  0  0  0  0  0  0  0  0  0  0
    2.7874   -1.0947   -4.0297 H   0  0  0  0  0  0  0  0  0  0  0  0
    4.6906   -4.9636   -1.7802 H   0  0  0  0  0  0  0  0  0  0  0  0
    6.0530   -4.8062   -0.7232 H   0  0  0  0  0  0  0  0  0  0  0  0
    6.0479   -3.9661   -2.2539 H   0  0  0  0  0  0  0  0  0  0  0  0
    6.4892   -2.1815    2.0974 H   0  0  0  0  0  0  0  0  0  0  0  0
    4.8027   -3.8721    3.0042 H   0  0  0  0  0  0  0  0  0  0  0  0
    4.0073   -5.2167    0.5789 H   0  0  0  0  0  0  0  0  0  0  0  0
    2.4043   -3.8205    2.4237 H   0  0  0  0  0  0  0  0  0  0  0  0
  2  1  1  1
  1 17  1  0
  1 18  1  0
  1 19  1  0
  2  8  1  0
  2 15  1  0
  2  3  1  0
  3  4  1  0
  4  7  1  0
  4  5  1  0
  4  8  1  0
  5  6  1  0
  6  7  1  0
  6 20  1  0
  6 21  1  0
  8  9  1  6
  8 10  1  0
  9 22  1  0
  9 23  1  0
  9 24  1  0
 10 11  2  0
 10 12  1  0
 12 14  1  0
 12 13  1  0
 12 25  1  1
 13 14  1  0
 14 15  1  0
 14 26  1  1
 15 16  1  0
 15 27  1  6
 16 28  1  0
M  END
>  <i_m_ct_stereo_status>  (169) 
1

>  <s_m_source_file>  (169) 
/var/tmp/pbs.5076255.sched01/tmpy176o0g7/39stoh4b52.sdf

>  <i_m_source_file_index>  (169) 
35

>  <i_lp_mmshare_version>  (169) 
48012

>  <i_f3d_flags>  (169) 
0

>  <s_epik_input>  (169) 
Tz1DMVtDQEhdKE8yKVtDQEhdMltDQEBIXShbT0hdKVtDQEBdKE8zKShbQ0gzXSlbQ0BAXTEoW0NIM10pQzM0T1tDSDJdTzQ=

>  <s_epik_cmdline>  (169) 
J2VwaWtfcHl0aG9uJywgJy1waHQnLCAnMi4wJywgJy1waCcsICc3LjAnLCAnLXRuJywgJzgnLCAnLW1hJywgJzIwMCcsICctaW1hZScsICc8aW5maWxlLm1hZT4nLCAnLW9tYWUnLCAnPG91dGZpbGUubWFlPic=

>  <r_lp_tautomer_probability>  (169) 
1

>  <r_epik_Ionization_Penalty>  (169) 
4.90248e-06

>  <r_epik_Ionization_Penalty_Charging>  (169) 
0

>  <r_epik_Ionization_Penalty_Neutral>  (169) 
4.90248e-06

>  <r_epik_State_Penalty>  (169) 
-0

>  <r_epik_Charging_Adjusted_Penalty>  (169) 
0

>  <i_epik_Tot_Q>  (169) 
0

>  <i_epik_Tot_abs_Q>  (169) 
0

>  <s_epik_Chemistry_Notes>  (169) 
This compound contains an acetal/aminal-like group ( X-CH(R)-Y where X, Y are N, S, or O) that may be acid/base labile, releasing an aldehyde.

>  <s_lp_Force_Field>  (169) 
OPLS3e

>  <r_lp_Energy>  (169) 
32.9772

>  <b_lp_Chiralities_Consistent>  (169) 
1

>  <s_lp_Variant>  (169) 
56:0-1

>  <s_i_glide_gridfile>  (169) 
pfpi4k_grid

>  <i_i_glide_lignum>  (169) 
35

>  <i_i_glide_rotatable_bonds>  (169) 
1

>  <r_i_docking_score>  (169) 
-3.22154

>  <r_i_glide_ligand_efficiency>  (169) 
-0.201347

>  <r_i_glide_ligand_efficiency_sa>  (169) 
-0.507361

>  <r_i_glide_ligand_efficiency_ln>  (169) 
-0.853935

>  <r_i_glide_gscore>  (169) 
-3.22154

>  <r_i_glide_lipo>  (169) 
-0.149402

>  <r_i_glide_hbond>  (169) 
-0.071945

>  <r_i_glide_metal>  (169) 
-0

>  <r_i_glide_rewards>  (169) 
-2.07913

>  <r_i_glide_evdw>  (169) 
-15.481

>  <r_i_glide_ecoul>  (169) 
-0.783631

>  <r_i_glide_erotb>  (169) 
0

>  <r_i_glide_esite>  (169) 
-0.0294685

>  <r_i_glide_emodel>  (169) 
-19.6907

>  <r_i_glide_energy>  (169) 
-16.2646

>  <r_i_glide_einternal>  (169) 
0.0144245

>  <r_i_glide_intrahb_reward>  (169) 
-0

>  <i_i_glide_confnum>  (169) 
2

>  <i_i_glide_posenum>  (169) 
32

>  <r_i_glide_eff_state_penalty>  (169) 
0

>  <ligand_id>  (169) 
56

>  <original_smiles>  (169) 
CC12OC3(OCO3)C1(C)C(=O)C1OC1C2O

>  <smiles>  (169) 
[H]OC1([H])C2([H])OC2([H])C(=O)C2(C([H])([H])[H])C3(OC([H])([H])O3)OC12C([H])([H])[H]

$$$$
56:0:2
     RDKit          3D

 28 31  0  0  1  0  0  0  0  0999 V2000
    2.4159   -3.8426   -0.6132 C   0  0  0  0  0  0  0  0  0  0  0  0
    3.9641   -3.6714   -0.7159 C   0  0  1  0  0  0  0  0  0  0  0  0
    4.2489   -3.5256   -2.1350 O   0  0  0  0  0  0  0  0  0  0  0  0
    4.2019   -2.0854   -1.9084 C   0  0  0  0  0  0  0  0  0  0  0  0
    5.0038   -1.2628   -2.7661 O   0  0  0  0  0  0  0  0  0  0  0  0
    3.8087   -0.5412   -3.1478 C   0  0  0  0  0  0  0  0  0  0  0  0
    3.0176   -1.3731   -2.2787 O   0  0  0  0  0  0  0  0  0  0  0  0
    4.6587   -2.3034   -0.4780 C   0  0  2  0  0  0  0  0  0  0  0  0
    6.2005   -2.1983   -0.4156 C   0  0  0  0  0  0  0  0  0  0  0  0
    4.0442   -1.7049    0.7556 C   0  0  0  0  0  0  0  0  0  0  0  0
    3.5259   -0.5942    0.8889 O   0  0  0  0  0  0  0  0  0  0  0  0
    4.1039   -2.6731    1.9372 C   0  0  2  0  0  0  0  0  0  0  0  0
    5.3622   -3.3094    2.1970 O   0  0  0  0  0  0  0  0  0  0  0  0
    4.3654   -4.1706    1.6455 C   0  0  2  0  0  0  0  0  0  0  0  0
    4.6243   -4.6860    0.2173 C   0  0  1  0  0  0  0  0  0  0  0  0
    4.0930   -5.9841    0.0770 O   0  0  0  0  0  0  0  0  0  0  0  0
    2.0898   -3.8965    0.4253 H   0  0  0  0  0  0  0  0  0  0  0  0
    2.0762   -4.7534   -1.1014 H   0  0  0  0  0  0  0  0  0  0  0  0
    1.8487   -3.0431   -1.0769 H   0  0  0  0  0  0  0  0  0  0  0  0
    3.8441    0.5001   -2.8254 H   0  0  0  0  0  0  0  0  0  0  0  0
    3.5471   -0.6382   -4.2058 H   0  0  0  0  0  0  0  0  0  0  0  0
    6.6583   -2.8154   -1.1880 H   0  0  0  0  0  0  0  0  0  0  0  0
    6.6607   -2.4974    0.5191 H   0  0  0  0  0  0  0  0  0  0  0  0
    6.5177   -1.1749   -0.5978 H   0  0  0  0  0  0  0  0  0  0  0  0
    3.5202   -2.4305    2.8238 H   0  0  0  0  0  0  0  0  0  0  0  0
    3.9657   -4.8922    2.3532 H   0  0  0  0  0  0  0  0  0  0  0  0
    5.7036   -4.7391    0.0692 H   0  0  0  0  0  0  0  0  0  0  0  0
    4.0575   -6.1689   -0.8558 H   0  0  0  0  0  0  0  0  0  0  0  0
  2  1  1  6
  1 17  1  0
  1 18  1  0
  1 19  1  0
  2  8  1  0
  2 15  1  0
  2  3  1  0
  3  4  1  0
  4  7  1  0
  4  5  1  0
  4  8  1  0
  5  6  1  0
  6  7  1  0
  6 20  1  0
  6 21  1  0
  8  9  1  6
  8 10  1  0
  9 22  1  0
  9 23  1  0
  9 24  1  0
 10 11  2  0
 10 12  1  0
 12 14  1  0
 12 13  1  0
 12 25  1  1
 13 14  1  0
 14 15  1  0
 14 26  1  1
 15 16  1  0
 15 27  1  6
 16 28  1  0
M  END
>  <i_m_ct_stereo_status>  (170) 
1

>  <s_m_source_file>  (170) 
/var/tmp/pbs.5076255.sched01/tmpy176o0g7/39stoh4b52.sdf

>  <i_m_source_file_index>  (170) 
35

>  <i_lp_mmshare_version>  (170) 
48012

>  <i_f3d_flags>  (170) 
0

>  <s_epik_input>  (170) 
Tz1DMVtDQEhdKE8yKVtDQEhdMltDQEBIXShbT0hdKVtDQEBdKE8zKShbQ0gzXSlbQ0BAXTEoW0NIM10pQzM0T1tDSDJdTzQ=

>  <s_epik_cmdline>  (170) 
J2VwaWtfcHl0aG9uJywgJy1waHQnLCAnMi4wJywgJy1waCcsICc3LjAnLCAnLXRuJywgJzgnLCAnLW1hJywgJzIwMCcsICctaW1hZScsICc8aW5maWxlLm1hZT4nLCAnLW9tYWUnLCAnPG91dGZpbGUubWFlPic=

>  <r_lp_tautomer_probability>  (170) 
1

>  <r_epik_Ionization_Penalty>  (170) 
4.90248e-06

>  <r_epik_Ionization_Penalty_Charging>  (170) 
0

>  <r_epik_Ionization_Penalty_Neutral>  (170) 
4.90248e-06

>  <r_epik_State_Penalty>  (170) 
-0

>  <r_epik_Charging_Adjusted_Penalty>  (170) 
0

>  <i_epik_Tot_Q>  (170) 
0

>  <i_epik_Tot_abs_Q>  (170) 
0

>  <s_epik_Chemistry_Notes>  (170) 
This compound contains an acetal/aminal-like group ( X-CH(R)-Y where X, Y are N, S, or O) that may be acid/base labile, releasing an aldehyde.

>  <s_lp_Force_Field>  (170) 
OPLS3e

>  <r_lp_Energy>  (170) 
32.9772

>  <b_lp_Chiralities_Consistent>  (170) 
1

>  <s_lp_Variant>  (170) 
56:0-1

>  <s_i_glide_gridfile>  (170) 
pfpi4k_grid

>  <i_i_glide_lignum>  (170) 
35

>  <i_i_glide_rotatable_bonds>  (170) 
1

>  <r_i_docking_score>  (170) 
-3.13898

>  <r_i_glide_ligand_efficiency>  (170) 
-0.196186

>  <r_i_glide_ligand_efficiency_sa>  (170) 
-0.494359

>  <r_i_glide_ligand_efficiency_ln>  (170) 
-0.83205

>  <r_i_glide_gscore>  (170) 
-3.13898

>  <r_i_glide_lipo>  (170) 
-0.0514118

>  <r_i_glide_hbond>  (170) 
0

>  <r_i_glide_metal>  (170) 
-0

>  <r_i_glide_rewards>  (170) 
-2.0702

>  <r_i_glide_evdw>  (170) 
-15.5355

>  <r_i_glide_ecoul>  (170) 
-1.37227

>  <r_i_glide_erotb>  (170) 
0

>  <r_i_glide_esite>  (170) 
-0.0347583

>  <r_i_glide_emodel>  (170) 
-19.8471

>  <r_i_glide_energy>  (170) 
-16.9078

>  <r_i_glide_einternal>  (170) 
0.679314

>  <r_i_glide_intrahb_reward>  (170) 
-0

>  <i_i_glide_confnum>  (170) 
1

>  <i_i_glide_posenum>  (170) 
6

>  <r_i_glide_eff_state_penalty>  (170) 
0

>  <ligand_id>  (170) 
56

>  <original_smiles>  (170) 
CC12OC3(OCO3)C1(C)C(=O)C1OC1C2O

>  <smiles>  (170) 
[H]OC1([H])C2([H])OC2([H])C(=O)C2(C([H])([H])[H])C3(OC([H])([H])O3)OC12C([H])([H])[H]

$$$$
58:0:0
     RDKit          3D

 32 34  0  0  1  0  0  0  0  0999 V2000
    0.6394   -8.0929    2.7600 N   0  0  0  0  0  0  0  0  0  0  0  0
    1.6721   -7.2466    2.6752 C   0  0  0  0  0  0  0  0  0  0  0  0
    2.5905   -7.2119    3.6642 N   0  0  0  0  0  0  0  0  0  0  0  0
    3.6156   -6.3596    3.5762 C   0  0  0  0  0  0  0  0  0  0  0  0
    3.8901   -5.4759    2.6013 N   0  0  0  0  0  0  0  0  0  0  0  0
    2.9583   -5.5177    1.6070 C   0  0  0  0  0  0  0  0  0  0  0  0
    1.8320   -6.3770    1.5719 C   0  0  0  0  0  0  0  0  0  0  0  0
    1.1022   -6.1716    0.4227 N   0  0  0  0  0  0  0  0  0  0  0  0
    1.8058   -5.2784   -0.2203 C   0  0  0  0  0  0  0  0  0  0  0  0
    2.8924   -4.7617    0.4532 N   0  0  0  0  0  0  0  0  0  0  0  0
    3.8746   -3.7452   -0.0227 C   0  0  2  0  0  0  0  0  0  0  0  0
    4.1803   -2.8641    1.0185 O   0  0  0  0  0  0  0  0  0  0  0  0
    4.0689   -1.5036    0.5901 C   0  0  1  0  0  0  0  0  0  0  0  0
    5.2487   -0.6674    1.1180 C   0  0  0  0  0  0  0  0  0  0  0  0
    5.0293   -0.2648    2.4529 O   0  0  0  0  0  0  0  0  0  0  0  0
    3.9972   -1.5756   -0.9430 C   0  0  1  0  0  0  0  0  0  0  0  0
    5.3016   -1.6177   -1.5075 O   0  0  0  0  0  0  0  0  0  0  0  0
    3.2757   -2.8932   -1.1418 C   0  0  1  0  0  0  0  0  0  0  0  0
    3.4871   -3.4371   -2.4320 O   0  0  0  0  0  0  0  0  0  0  0  0
    0.5897   -8.7382    3.5331 H   0  0  0  0  0  0  0  0  0  0  0  0
    0.0104   -8.1655    1.9737 H   0  0  0  0  0  0  0  0  0  0  0  0
    4.3165   -6.3823    4.3980 H   0  0  0  0  0  0  0  0  0  0  0  0
    1.4583   -4.9278   -1.1840 H   0  0  0  0  0  0  0  0  0  0  0  0
    4.7640   -4.3104   -0.3015 H   0  0  0  0  0  0  0  0  0  0  0  0
    3.1165   -1.1148    0.9614 H   0  0  0  0  0  0  0  0  0  0  0  0
    6.1887   -1.2158    1.0335 H   0  0  0  0  0  0  0  0  0  0  0  0
    5.3500    0.2364    0.5170 H   0  0  0  0  0  0  0  0  0  0  0  0
    4.2283    0.2400    2.4827 H   0  0  0  0  0  0  0  0  0  0  0  0
    3.4356   -0.7373   -1.3648 H   0  0  0  0  0  0  0  0  0  0  0  0
    5.6792   -2.4508   -1.2691 H   0  0  0  0  0  0  0  0  0  0  0  0
    2.2205   -2.7037   -0.9361 H   0  0  0  0  0  0  0  0  0  0  0  0
    3.1962   -4.3468   -2.4508 H   0  0  0  0  0  0  0  0  0  0  0  0
  1  2  1  0
  1 21  1  0
  1 20  1  0
  2  3  2  0
  2  7  1  0
  3  4  1  0
  4 22  1  0
  4  5  2  0
  5  6  1  0
  6 10  1  0
  6  7  2  0
  7  8  1  0
  8  9  2  0
  9 23  1  0
  9 10  1  0
 10 11  1  0
 11 18  1  0
 11 12  1  0
 11 24  1  6
 12 13  1  0
 13 14  1  0
 13 16  1  0
 13 25  1  1
 14 15  1  0
 14 26  1  0
 14 27  1  0
 15 28  1  0
 16 17  1  0
 16 18  1  0
 16 29  1  6
 17 30  1  0
 18 19  1  0
 18 31  1  1
 19 32  1  0
M  END
>  <i_m_ct_stereo_status>  (171) 
1

>  <s_m_source_file>  (171) 
/var/tmp/pbs.5076255.sched01/tmpy176o0g7/39stoh4b52.sdf

>  <i_m_source_file_index>  (171) 
37

>  <i_lp_mmshare_version>  (171) 
48012

>  <i_f3d_flags>  (171) 
0

>  <s_epik_input>  (171) 
bjFbY0hdW25IXVxjKD1OXFtIXSljKGMxMiluW2NIXW4yW0NAQEhdM09bQ0BASF0oW0NIMl1bT0hdKVtDQEBIXShbT0hdKVtDQEhdM1tPSF0=

>  <s_epik_cmdline>  (171) 
J2VwaWtfcHl0aG9uJywgJy1waHQnLCAnMi4wJywgJy1waCcsICc3LjAnLCAnLXRuJywgJzgnLCAnLW1hJywgJzIwMCcsICctaW1hZScsICc8aW5maWxlLm1hZT4nLCAnLW9tYWUnLCAnPG91dGZpbGUubWFlPic=

>  <r_lp_tautomer_probability>  (171) 
1

>  <r_epik_Ionization_Penalty>  (171) 
0.000428445

>  <r_epik_Ionization_Penalty_Charging>  (171) 
0

>  <r_epik_Ionization_Penalty_Neutral>  (171) 
0.000428445

>  <r_epik_State_Penalty>  (171) 
-0

>  <r_epik_Charging_Adjusted_Penalty>  (171) 
0

>  <i_epik_Tot_Q>  (171) 
0

>  <i_epik_Tot_abs_Q>  (171) 
0

>  <s_epik_Chemistry_Notes>  (171) 
This compound contains an acetal/aminal-like group ( X-CH(R)-Y where X, Y are N, S, or O) that may be acid/base labile, releasing an aldehyde.

>  <s_lp_Force_Field>  (171) 
OPLS3e

>  <r_lp_Energy>  (171) 
18.2998

>  <b_lp_Chiralities_Consistent>  (171) 
1

>  <s_lp_Variant>  (171) 
58:0-1

>  <s_i_glide_gridfile>  (171) 
pfpi4k_grid

>  <i_i_glide_lignum>  (171) 
37

>  <i_i_glide_rotatable_bonds>  (171) 
5

>  <r_i_docking_score>  (171) 
-4.16285

>  <r_i_glide_ligand_efficiency>  (171) 
-0.219098

>  <r_i_glide_ligand_efficiency_sa>  (171) 
-0.58464

>  <r_i_glide_ligand_efficiency_ln>  (171) 
-1.05537

>  <r_i_glide_gscore>  (171) 
-4.16285

>  <r_i_glide_lipo>  (171) 
-0.142185

>  <r_i_glide_hbond>  (171) 
-0.203774

>  <r_i_glide_metal>  (171) 
-0

>  <r_i_glide_rewards>  (171) 
-1.58796

>  <r_i_glide_evdw>  (171) 
-15.8814

>  <r_i_glide_ecoul>  (171) 
-11.8119

>  <r_i_glide_erotb>  (171) 
0.499276

>  <r_i_glide_esite>  (171) 
-0.162363

>  <r_i_glide_emodel>  (171) 
-36.1462

>  <r_i_glide_energy>  (171) 
-27.6932

>  <r_i_glide_einternal>  (171) 
2.08758

>  <r_i_glide_intrahb_reward>  (171) 
-0

>  <i_i_glide_confnum>  (171) 
3

>  <i_i_glide_posenum>  (171) 
38

>  <r_i_glide_eff_state_penalty>  (171) 
0

>  <ligand_id>  (171) 
58

>  <original_smiles>  (171) 
N=c1[nH]cnc2c1ncn2C1OC(CO)C(O)C1O

>  <smiles>  (171) 
[H]OC([H])([H])C1([H])OC([H])(n2c([H])nc3c(N([H])[H])nc([H])nc32)C([H])(O[H])C1([H])O[H]

$$$$
58:0:1
     RDKit          3D

 32 34  0  0  1  0  0  0  0  0999 V2000
    7.8101   -6.5850    1.2906 N   0  0  0  0  0  0  0  0  0  0  0  0
    6.5100   -6.8206    1.4946 C   0  0  0  0  0  0  0  0  0  0  0  0
    5.6538   -5.7788    1.4356 N   0  0  0  0  0  0  0  0  0  0  0  0
    4.3475   -6.0024    1.6349 C   0  0  0  0  0  0  0  0  0  0  0  0
    3.7300   -7.1555    1.8953 N   0  0  0  0  0  0  0  0  0  0  0  0
    4.5955   -8.2075    1.9374 C   0  0  0  0  0  0  0  0  0  0  0  0
    6.0021   -8.1153    1.7463 C   0  0  0  0  0  0  0  0  0  0  0  0
    6.5789   -9.3778    1.8503 N   0  0  0  0  0  0  0  0  0  0  0  0
    5.5628  -10.1662    2.0733 C   0  0  0  0  0  0  0  0  0  0  0  0
    4.3350   -9.5425    2.1575 N   0  0  0  0  0  0  0  0  0  0  0  0
    3.0246  -10.2226    2.3846 C   0  0  2  0  0  0  0  0  0  0  0  0
    1.9655   -9.3634    2.0825 O   0  0  0  0  0  0  0  0  0  0  0  0
    1.0278   -9.3372    3.1584 C   0  0  1  0  0  0  0  0  0  0  0  0
   -0.4115   -9.2613    2.6089 C   0  0  0  0  0  0  0  0  0  0  0  0
   -1.3320   -8.9938    3.6519 O   0  0  0  0  0  0  0  0  0  0  0  0
    1.3771  -10.5653    4.0198 C   0  0  1  0  0  0  0  0  0  0  0  0
    0.7671  -11.7323    3.4776 O   0  0  0  0  0  0  0  0  0  0  0  0
    2.8860  -10.6384    3.8552 C   0  0  1  0  0  0  0  0  0  0  0  0
    3.3515  -11.9488    4.1010 O   0  0  0  0  0  0  0  0  0  0  0  0
    8.1116   -5.6386    1.1258 H   0  0  0  0  0  0  0  0  0  0  0  0
    8.4656   -7.3594    1.3401 H   0  0  0  0  0  0  0  0  0  0  0  0
    3.6985   -5.1366    1.5636 H   0  0  0  0  0  0  0  0  0  0  0  0
    5.6674  -11.2405    2.1875 H   0  0  0  0  0  0  0  0  0  0  0  0
    3.0181  -11.0490    1.6937 H   0  0  0  0  0  0  0  0  0  0  0  0
    1.2604   -8.4345    3.7265 H   0  0  0  0  0  0  0  0  0  0  0  0
   -0.4772   -8.4563    1.8752 H   0  0  0  0  0  0  0  0  0  0  0  0
   -0.6947  -10.1658    2.0676 H   0  0  0  0  0  0  0  0  0  0  0  0
   -1.4452   -9.7832    4.1827 H   0  0  0  0  0  0  0  0  0  0  0  0
    1.0840  -10.4444    5.0663 H   0  0  0  0  0  0  0  0  0  0  0  0
    1.0924  -12.4976    3.9288 H   0  0  0  0  0  0  0  0  0  0  0  0
    3.3871   -9.9015    4.4876 H   0  0  0  0  0  0  0  0  0  0  0  0
    2.9246  -12.5505    3.5054 H   0  0  0  0  0  0  0  0  0  0  0  0
  1  2  1  0
  1 21  1  0
  1 20  1  0
  2  3  2  0
  2  7  1  0
  3  4  1  0
  4 22  1  0
  4  5  2  0
  5  6  1  0
  6 10  1  0
  6  7  2  0
  7  8  1  0
  8  9  2  0
  9 23  1  0
  9 10  1  0
 10 11  1  0
 11 18  1  0
 11 12  1  0
 11 24  1  6
 12 13  1  0
 13 14  1  0
 13 16  1  0
 13 25  1  1
 14 15  1  0
 14 26  1  0
 14 27  1  0
 15 28  1  0
 16 17  1  0
 16 18  1  0
 16 29  1  1
 17 30  1  0
 18 19  1  0
 18 31  1  1
 19 32  1  0
M  END
>  <i_m_ct_stereo_status>  (172) 
1

>  <s_m_source_file>  (172) 
/var/tmp/pbs.5076255.sched01/tmpy176o0g7/39stoh4b52.sdf

>  <i_m_source_file_index>  (172) 
37

>  <i_lp_mmshare_version>  (172) 
48012

>  <i_f3d_flags>  (172) 
0

>  <s_epik_input>  (172) 
bjFbY0hdW25IXVxjKD1OXFtIXSljKGMxMiluW2NIXW4yW0NAQEhdM09bQ0BASF0oW0NIMl1bT0hdKVtDQEBIXShbT0hdKVtDQEhdM1tPSF0=

>  <s_epik_cmdline>  (172) 
J2VwaWtfcHl0aG9uJywgJy1waHQnLCAnMi4wJywgJy1waCcsICc3LjAnLCAnLXRuJywgJzgnLCAnLW1hJywgJzIwMCcsICctaW1hZScsICc8aW5maWxlLm1hZT4nLCAnLW9tYWUnLCAnPG91dGZpbGUubWFlPic=

>  <r_lp_tautomer_probability>  (172) 
1

>  <r_epik_Ionization_Penalty>  (172) 
0.000428445

>  <r_epik_Ionization_Penalty_Charging>  (172) 
0

>  <r_epik_Ionization_Penalty_Neutral>  (172) 
0.000428445

>  <r_epik_State_Penalty>  (172) 
-0

>  <r_epik_Charging_Adjusted_Penalty>  (172) 
0

>  <i_epik_Tot_Q>  (172) 
0

>  <i_epik_Tot_abs_Q>  (172) 
0

>  <s_epik_Chemistry_Notes>  (172) 
This compound contains an acetal/aminal-like group ( X-CH(R)-Y where X, Y are N, S, or O) that may be acid/base labile, releasing an aldehyde.

>  <s_lp_Force_Field>  (172) 
OPLS3e

>  <r_lp_Energy>  (172) 
18.2998

>  <b_lp_Chiralities_Consistent>  (172) 
1

>  <s_lp_Variant>  (172) 
58:0-1

>  <s_i_glide_gridfile>  (172) 
pfpi4k_grid

>  <i_i_glide_lignum>  (172) 
37

>  <i_i_glide_rotatable_bonds>  (172) 
5

>  <r_i_docking_score>  (172) 
-3.92563

>  <r_i_glide_ligand_efficiency>  (172) 
-0.206612

>  <r_i_glide_ligand_efficiency_sa>  (172) 
-0.551324

>  <r_i_glide_ligand_efficiency_ln>  (172) 
-0.995232

>  <r_i_glide_gscore>  (172) 
-3.92563

>  <r_i_glide_lipo>  (172) 
-0.195757

>  <r_i_glide_hbond>  (172) 
-0.00373387

>  <r_i_glide_metal>  (172) 
-0

>  <r_i_glide_rewards>  (172) 
-1.64771

>  <r_i_glide_evdw>  (172) 
-19.888

>  <r_i_glide_ecoul>  (172) 
-9.27148

>  <r_i_glide_erotb>  (172) 
0.499276

>  <r_i_glide_esite>  (172) 
-0.192582

>  <r_i_glide_emodel>  (172) 
-37.2661

>  <r_i_glide_energy>  (172) 
-29.1595

>  <r_i_glide_einternal>  (172) 
2.49117

>  <r_i_glide_intrahb_reward>  (172) 
-0

>  <i_i_glide_confnum>  (172) 
6

>  <i_i_glide_posenum>  (172) 
2

>  <r_i_glide_eff_state_penalty>  (172) 
0

>  <ligand_id>  (172) 
58

>  <original_smiles>  (172) 
N=c1[nH]cnc2c1ncn2C1OC(CO)C(O)C1O

>  <smiles>  (172) 
[H]OC([H])([H])C1([H])OC([H])(n2c([H])nc3c(N([H])[H])nc([H])nc32)C([H])(O[H])C1([H])O[H]

$$$$
58:0:2
     RDKit          3D

 32 34  0  0  1  0  0  0  0  0999 V2000
    7.8095   -7.0506    1.3335 N   0  0  0  0  0  0  0  0  0  0  0  0
    6.5208   -7.2123    1.6533 C   0  0  0  0  0  0  0  0  0  0  0  0
    5.7059   -6.1380    1.6038 N   0  0  0  0  0  0  0  0  0  0  0  0
    4.4123   -6.2851    1.9207 C   0  0  0  0  0  0  0  0  0  0  0  0
    3.7636   -7.3930    2.2893 N   0  0  0  0  0  0  0  0  0  0  0  0
    4.5834   -8.4842    2.3072 C   0  0  0  0  0  0  0  0  0  0  0  0
    5.9762   -8.4676    2.0085 C   0  0  0  0  0  0  0  0  0  0  0  0
    6.5023   -9.7504    2.1380 N   0  0  0  0  0  0  0  0  0  0  0  0
    5.4689  -10.4816    2.4674 C   0  0  0  0  0  0  0  0  0  0  0  0
    4.2760   -9.7988    2.5917 N   0  0  0  0  0  0  0  0  0  0  0  0
    2.9552  -10.3823    2.9698 C   0  0  2  0  0  0  0  0  0  0  0  0
    1.9341   -9.6513    2.3625 O   0  0  0  0  0  0  0  0  0  0  0  0
    0.9387   -9.2949    3.3276 C   0  0  1  0  0  0  0  0  0  0  0  0
   -0.4667   -9.4172    2.7104 C   0  0  0  0  0  0  0  0  0  0  0  0
   -1.4595   -9.0239    3.6460 O   0  0  0  0  0  0  0  0  0  0  0  0
    1.2348  -10.1801    4.5523 C   0  0  1  0  0  0  0  0  0  0  0  0
    0.6101  -11.4484    4.4318 O   0  0  0  0  0  0  0  0  0  0  0  0
    2.7497  -10.3019    4.4894 C   0  0  1  0  0  0  0  0  0  0  0  0
    3.2049  -11.4428    5.1981 O   0  0  0  0  0  0  0  0  0  0  0  0
    8.1409   -6.1344    1.0866 H   0  0  0  0  0  0  0  0  0  0  0  0
    8.4388   -7.8463    1.3731 H   0  0  0  0  0  0  0  0  0  0  0  0
    3.8045   -5.3913    1.8493 H   0  0  0  0  0  0  0  0  0  0  0  0
    5.5379  -11.5490    2.6334 H   0  0  0  0  0  0  0  0  0  0  0  0
    2.9496  -11.3916    2.5566 H   0  0  0  0  0  0  0  0  0  0  0  0
    1.1382   -8.2552    3.6001 H   0  0  0  0  0  0  0  0  0  0  0  0
   -0.5385   -8.7766    1.8316 H   0  0  0  0  0  0  0  0  0  0  0  0
   -0.6320  -10.4289    2.3477 H   0  0  0  0  0  0  0  0  0  0  0  0
   -1.6385   -9.7480    4.2496 H   0  0  0  0  0  0  0  0  0  0  0  0
    0.9015   -9.7196    5.4847 H   0  0  0  0  0  0  0  0  0  0  0  0
   -0.3297  -11.3555    4.5805 H   0  0  0  0  0  0  0  0  0  0  0  0
    3.2151   -9.3934    4.8756 H   0  0  0  0  0  0  0  0  0  0  0  0
    2.6025  -11.6367    5.9084 H   0  0  0  0  0  0  0  0  0  0  0  0
  1  2  1  0
  1 21  1  0
  1 20  1  0
  2  3  2  0
  2  7  1  0
  3  4  1  0
  4 22  1  0
  4  5  2  0
  5  6  1  0
  6 10  1  0
  6  7  2  0
  7  8  1  0
  8  9  2  0
  9 23  1  0
  9 10  1  0
 10 11  1  0
 11 18  1  0
 11 12  1  0
 11 24  1  6
 12 13  1  0
 13 14  1  0
 13 16  1  0
 13 25  1  1
 14 15  1  0
 14 26  1  0
 14 27  1  0
 15 28  1  0
 16 17  1  0
 16 18  1  0
 16 29  1  1
 17 30  1  0
 18 19  1  0
 18 31  1  1
 19 32  1  0
M  END
>  <i_m_ct_stereo_status>  (173) 
1

>  <s_m_source_file>  (173) 
/var/tmp/pbs.5076255.sched01/tmpy176o0g7/39stoh4b52.sdf

>  <i_m_source_file_index>  (173) 
37

>  <i_lp_mmshare_version>  (173) 
48012

>  <i_f3d_flags>  (173) 
0

>  <s_epik_input>  (173) 
bjFbY0hdW25IXVxjKD1OXFtIXSljKGMxMiluW2NIXW4yW0NAQEhdM09bQ0BASF0oW0NIMl1bT0hdKVtDQEBIXShbT0hdKVtDQEhdM1tPSF0=

>  <s_epik_cmdline>  (173) 
J2VwaWtfcHl0aG9uJywgJy1waHQnLCAnMi4wJywgJy1waCcsICc3LjAnLCAnLXRuJywgJzgnLCAnLW1hJywgJzIwMCcsICctaW1hZScsICc8aW5maWxlLm1hZT4nLCAnLW9tYWUnLCAnPG91dGZpbGUubWFlPic=

>  <r_lp_tautomer_probability>  (173) 
1

>  <r_epik_Ionization_Penalty>  (173) 
0.000428445

>  <r_epik_Ionization_Penalty_Charging>  (173) 
0

>  <r_epik_Ionization_Penalty_Neutral>  (173) 
0.000428445

>  <r_epik_State_Penalty>  (173) 
-0

>  <r_epik_Charging_Adjusted_Penalty>  (173) 
0

>  <i_epik_Tot_Q>  (173) 
0

>  <i_epik_Tot_abs_Q>  (173) 
0

>  <s_epik_Chemistry_Notes>  (173) 
This compound contains an acetal/aminal-like group ( X-CH(R)-Y where X, Y are N, S, or O) that may be acid/base labile, releasing an aldehyde.

>  <s_lp_Force_Field>  (173) 
OPLS3e

>  <r_lp_Energy>  (173) 
18.2998

>  <b_lp_Chiralities_Consistent>  (173) 
1

>  <s_lp_Variant>  (173) 
58:0-1

>  <s_i_glide_gridfile>  (173) 
pfpi4k_grid

>  <i_i_glide_lignum>  (173) 
37

>  <i_i_glide_rotatable_bonds>  (173) 
5

>  <r_i_docking_score>  (173) 
-3.84522

>  <r_i_glide_ligand_efficiency>  (173) 
-0.20238

>  <r_i_glide_ligand_efficiency_sa>  (173) 
-0.540032

>  <r_i_glide_ligand_efficiency_ln>  (173) 
-0.974847

>  <r_i_glide_gscore>  (173) 
-3.84522

>  <r_i_glide_lipo>  (173) 
-0.140289

>  <r_i_glide_hbond>  (173) 
-0.010129

>  <r_i_glide_metal>  (173) 
-0

>  <r_i_glide_rewards>  (173) 
-1.62957

>  <r_i_glide_evdw>  (173) 
-19.7499

>  <r_i_glide_ecoul>  (173) 
-9.29844

>  <r_i_glide_erotb>  (173) 
0.499276

>  <r_i_glide_esite>  (173) 
-0.182252

>  <r_i_glide_emodel>  (173) 
-36.7757

>  <r_i_glide_energy>  (173) 
-29.0483

>  <r_i_glide_einternal>  (173) 
2.51135

>  <r_i_glide_intrahb_reward>  (173) 
-0

>  <i_i_glide_confnum>  (173) 
6

>  <i_i_glide_posenum>  (173) 
18

>  <r_i_glide_eff_state_penalty>  (173) 
0

>  <ligand_id>  (173) 
58

>  <original_smiles>  (173) 
N=c1[nH]cnc2c1ncn2C1OC(CO)C(O)C1O

>  <smiles>  (173) 
[H]OC([H])([H])C1([H])OC([H])(n2c([H])nc3c(N([H])[H])nc([H])nc32)C([H])(O[H])C1([H])O[H]

$$$$
59:0:0
     RDKit          3D

 52 55  0  0  1  0  0  0  0  0999 V2000
    5.0540   -9.2857    1.3847 C   0  0  0  0  0  0  0  0  0  0  0  0
    4.7629   -7.7727    1.3664 C   0  0  2  0  0  0  0  0  0  0  0  0
    5.8947   -7.0086    2.1234 C   0  0  0  0  0  0  0  0  0  0  0  0
    5.5203   -5.5636    2.5587 C   0  0  0  0  0  0  0  0  0  0  0  0
    4.4354   -5.0214    1.6218 C   0  0  2  0  0  0  0  0  0  0  0  0
    4.2094   -3.5002    1.5005 C   0  0  1  0  0  0  0  0  0  0  0  0
    5.4821   -2.6338    1.5522 C   0  0  0  0  0  0  0  0  0  0  0  0
    3.3670   -3.2624    0.2221 C   0  0  1  0  0  0  0  0  0  0  0  0
    4.1054   -3.4029   -1.1365 C   0  0  0  0  0  0  0  0  0  0  0  0
    3.2778   -2.9583   -2.3575 C   0  0  0  0  0  0  0  0  0  0  0  0
    3.0178   -1.5701   -2.3188 O   0  0  0  0  0  0  0  0  0  0  0  0
    2.2232   -4.1216    0.2843 O   0  0  0  0  0  0  0  0  0  0  0  0
    2.6389   -5.5852    0.4112 O   0  0  0  0  0  0  0  0  0  0  0  0
    3.1024   -5.8320    1.7358 C   0  0  2  0  0  0  0  0  0  0  0  0
    2.0151   -5.3313    2.7401 C   0  0  2  0  0  0  0  0  0  0  0  0
    1.9074   -5.9053    4.1478 C   0  0  0  0  0  0  0  0  0  0  0  0
    0.8206   -6.7990    3.5562 C   0  0  2  0  0  0  0  0  0  0  0  0
   -0.5012   -6.8472    4.3249 C   0  0  0  0  0  0  0  0  0  0  0  0
    1.1746   -8.1967    3.0008 C   0  0  0  0  0  0  0  0  0  0  0  0
    2.1713   -8.2481    1.8134 C   0  0  0  0  0  0  0  0  0  0  0  0
    3.4139   -7.3464    1.9910 C   0  0  1  0  0  0  0  0  0  0  0  0
    0.7161   -5.9109    2.4166 O   0  0  0  0  0  0  0  0  0  0  0  0
    4.9601   -9.7008    2.3918 H   0  0  0  0  0  0  0  0  0  0  0  0
    6.0693   -9.4888    1.0351 H   0  0  0  0  0  0  0  0  0  0  0  0
    4.3768   -9.8322    0.7266 H   0  0  0  0  0  0  0  0  0  0  0  0
    4.7656   -7.4731    0.3177 H   0  0  0  0  0  0  0  0  0  0  0  0
    6.2052   -7.5691    3.0080 H   0  0  0  0  0  0  0  0  0  0  0  0
    6.7684   -6.9657    1.4708 H   0  0  0  0  0  0  0  0  0  0  0  0
    5.1503   -5.5534    3.5835 H   0  0  0  0  0  0  0  0  0  0  0  0
    6.4158   -4.9441    2.5292 H   0  0  0  0  0  0  0  0  0  0  0  0
    4.8678   -5.2655    0.6507 H   0  0  0  0  0  0  0  0  0  0  0  0
    3.6215   -3.1481    2.3472 H   0  0  0  0  0  0  0  0  0  0  0  0
    6.2373   -2.9526    0.8325 H   0  0  0  0  0  0  0  0  0  0  0  0
    5.9280   -2.6714    2.5482 H   0  0  0  0  0  0  0  0  0  0  0  0
    5.2423   -1.5877    1.3562 H   0  0  0  0  0  0  0  0  0  0  0  0
    2.9936   -2.2371    0.2743 H   0  0  0  0  0  0  0  0  0  0  0  0
    5.0177   -2.8044   -1.1340 H   0  0  0  0  0  0  0  0  0  0  0  0
    4.4341   -4.4289   -1.3081 H   0  0  0  0  0  0  0  0  0  0  0  0
    3.8507   -3.1519   -3.2657 H   0  0  0  0  0  0  0  0  0  0  0  0
    2.3470   -3.5167   -2.4352 H   0  0  0  0  0  0  0  0  0  0  0  0
    2.2911   -1.4090   -1.7084 H   0  0  0  0  0  0  0  0  0  0  0  0
    1.9113   -4.2543    2.7986 H   0  0  0  0  0  0  0  0  0  0  0  0
    2.7711   -6.4195    4.5608 H   0  0  0  0  0  0  0  0  0  0  0  0
    1.5191   -5.1877    4.8668 H   0  0  0  0  0  0  0  0  0  0  0  0
   -0.4193   -7.4962    5.2031 H   0  0  0  0  0  0  0  0  0  0  0  0
   -1.3131   -7.2297    3.7083 H   0  0  0  0  0  0  0  0  0  0  0  0
   -0.7899   -5.8579    4.6835 H   0  0  0  0  0  0  0  0  0  0  0  0
    1.5793   -8.8046    3.8160 H   0  0  0  0  0  0  0  0  0  0  0  0
    0.2623   -8.7104    2.6910 H   0  0  0  0  0  0  0  0  0  0  0  0
    2.4554   -9.2903    1.7116 H   0  0  0  0  0  0  0  0  0  0  0  0
    1.6503   -7.9913    0.8880 H   0  0  0  0  0  0  0  0  0  0  0  0
    3.6548   -7.4872    3.0376 H   0  0  0  0  0  0  0  0  0  0  0  0
  1  2  1  0
  1 23  1  0
  1 24  1  0
  1 25  1  0
  2 21  1  0
  2  3  1  0
  2 26  1  6
  3  4  1  0
  3 27  1  0
  3 28  1  0
  4  5  1  0
  4 29  1  0
  4 30  1  0
  5 14  1  0
  5  6  1  0
  5 31  1  6
  6  7  1  0
  6  8  1  0
  6 32  1  1
  7 33  1  0
  7 34  1  0
  7 35  1  0
  8  9  1  0
  8 12  1  0
  8 36  1  1
  9 10  1  0
  9 37  1  0
  9 38  1  0
 10 11  1  0
 10 39  1  0
 10 40  1  0
 11 41  1  0
 12 13  1  0
 14 13  1  6
 14 21  1  0
 14 15  1  0
 15 22  1  0
 15 16  1  0
 15 42  1  1
 16 17  1  0
 16 43  1  0
 16 44  1  0
 17 18  1  1
 17 19  1  0
 17 22  1  0
 18 45  1  0
 18 46  1  0
 18 47  1  0
 19 20  1  0
 19 48  1  0
 19 49  1  0
 20 21  1  0
 20 50  1  0
 20 51  1  0
 21 52  1  1
M  END
>  <i_m_ct_stereo_status>  (174) 
1

>  <s_m_source_file>  (174) 
/var/tmp/pbs.5076255.sched01/tmpy176o0g7/39stoh4b52.sdf

>  <i_m_source_file_index>  (174) 
38

>  <i_lp_mmshare_version>  (174) 
48012

>  <i_f3d_flags>  (174) 
0

>  <s_epik_input>  (174) 
TzFbQ0BIXTJbQ0gyXVtDQF0xKFtDSDNdKVtDSDJdW0NIMl1bQ0BIXTNbQ0BIXShbQ0gzXSlbQ0gyXVtDSDJdW0NAQEhdKFtDQF0yMzQpW0NAQEhdKFtDSDNdKVtDQEhdKE9PNClbQ0gyXVtDSDJdW09IXQ==

>  <s_epik_cmdline>  (174) 
J2VwaWtfcHl0aG9uJywgJy1waHQnLCAnMi4wJywgJy1waCcsICc3LjAnLCAnLXRuJywgJzgnLCAnLW1hJywgJzIwMCcsICctaW1hZScsICc8aW5maWxlLm1hZT4nLCAnLW9tYWUnLCAnPG91dGZpbGUubWFlPic=

>  <r_lp_tautomer_probability>  (174) 
1

>  <r_epik_Ionization_Penalty>  (174) 
2.31218e-07

>  <r_epik_Ionization_Penalty_Charging>  (174) 
0

>  <r_epik_Ionization_Penalty_Neutral>  (174) 
2.31218e-07

>  <r_epik_State_Penalty>  (174) 
-0

>  <r_epik_Charging_Adjusted_Penalty>  (174) 
0

>  <i_epik_Tot_Q>  (174) 
0

>  <i_epik_Tot_abs_Q>  (174) 
0

>  <s_lp_Force_Field>  (174) 
OPLS3e

>  <r_lp_Energy>  (174) 
53.0467

>  <b_lp_Chiralities_Consistent>  (174) 
1

>  <s_lp_Variant>  (174) 
59:0-1

>  <s_i_glide_gridfile>  (174) 
pfpi4k_grid

>  <i_i_glide_lignum>  (174) 
38

>  <i_i_glide_rotatable_bonds>  (174) 
3

>  <r_i_docking_score>  (174) 
-3.10907

>  <r_i_glide_ligand_efficiency>  (174) 
-0.141322

>  <r_i_glide_ligand_efficiency_sa>  (174) 
-0.395988

>  <r_i_glide_ligand_efficiency_ln>  (174) 
-0.759971

>  <r_i_glide_gscore>  (174) 
-3.10907

>  <r_i_glide_lipo>  (174) 
-0.256108

>  <r_i_glide_hbond>  (174) 
-0.241713

>  <r_i_glide_metal>  (174) 
-0

>  <r_i_glide_rewards>  (174) 
-1.29253

>  <r_i_glide_evdw>  (174) 
-17.7713

>  <r_i_glide_ecoul>  (174) 
-5.43162

>  <r_i_glide_erotb>  (174) 
0.384589

>  <r_i_glide_esite>  (174) 
0

>  <r_i_glide_emodel>  (174) 
-27.8749

>  <r_i_glide_energy>  (174) 
-23.2029

>  <r_i_glide_einternal>  (174) 
1.38304

>  <r_i_glide_intrahb_reward>  (174) 
-0

>  <i_i_glide_confnum>  (174) 
1

>  <i_i_glide_posenum>  (174) 
8

>  <r_i_glide_eff_state_penalty>  (174) 
0

>  <ligand_id>  (174) 
59

>  <original_smiles>  (174) 
CC1CCC2C(C)C(CCO)OOC23C2CC(C)(CCC13)O2

>  <smiles>  (174) 
[H]OC([H])([H])C([H])([H])C1([H])OOC23C4([H])OC(C([H])([H])[H])(C([H])([H])C([H])([H])C2([H])C([H])(C([H])([H])[H])C([H])([H])C([H])([H])C3([H])C1([H])C([H])([H])[H])C4([H])[H]

$$$$
59:0:1
     RDKit          3D

 52 55  0  0  1  0  0  0  0  0999 V2000
    3.7455   -2.9290    5.1082 C   0  0  0  0  0  0  0  0  0  0  0  0
    3.4376   -4.2114    4.2988 C   0  0  2  0  0  0  0  0  0  0  0  0
    4.5307   -5.2961    4.5632 C   0  0  0  0  0  0  0  0  0  0  0  0
    4.5850   -6.4341    3.4965 C   0  0  0  0  0  0  0  0  0  0  0  0
    3.1949   -6.6017    2.8596 C   0  0  2  0  0  0  0  0  0  0  0  0
    2.8175   -7.9216    2.1619 C   0  0  1  0  0  0  0  0  0  0  0  0
    3.3762   -9.2053    2.8074 C   0  0  0  0  0  0  0  0  0  0  0  0
    1.2652   -7.9343    2.0024 C   0  0  1  0  0  0  0  0  0  0  0  0
    0.4426   -8.2276    3.2891 C   0  0  0  0  0  0  0  0  0  0  0  0
   -1.0390   -8.5341    3.0120 C   0  0  0  0  0  0  0  0  0  0  0  0
   -1.7495   -8.6384    4.2302 O   0  0  0  0  0  0  0  0  0  0  0  0
    0.8544   -6.7126    1.3586 O   0  0  0  0  0  0  0  0  0  0  0  0
    1.3299   -5.4832    2.1795 O   0  0  0  0  0  0  0  0  0  0  0  0
    2.7519   -5.3326    2.0447 C   0  0  2  0  0  0  0  0  0  0  0  0
    3.1054   -5.2884    0.5172 C   0  0  2  0  0  0  0  0  0  0  0  0
    4.3587   -4.5651    0.0107 C   0  0  0  0  0  0  0  0  0  0  0  0
    3.4225   -3.3896   -0.2460 C   0  0  2  0  0  0  0  0  0  0  0  0
    3.4917   -2.7675   -1.6472 C   0  0  0  0  0  0  0  0  0  0  0  0
    3.2417   -2.2922    0.8298 C   0  0  0  0  0  0  0  0  0  0  0  0
    2.6648   -2.7320    2.2073 C   0  0  0  0  0  0  0  0  0  0  0  0
    3.2892   -4.0387    2.7605 C   0  0  1  0  0  0  0  0  0  0  0  0
    2.2822   -4.2853   -0.1450 O   0  0  0  0  0  0  0  0  0  0  0  0
    4.6297   -2.3984    4.7427 H   0  0  0  0  0  0  0  0  0  0  0  0
    3.9220   -3.1599    6.1616 H   0  0  0  0  0  0  0  0  0  0  0  0
    2.9084   -2.2291    5.0929 H   0  0  0  0  0  0  0  0  0  0  0  0
    2.4811   -4.5700    4.6793 H   0  0  0  0  0  0  0  0  0  0  0  0
    5.5240   -4.8402    4.5996 H   0  0  0  0  0  0  0  0  0  0  0  0
    4.3767   -5.7217    5.5541 H   0  0  0  0  0  0  0  0  0  0  0  0
    5.3361   -6.2295    2.7329 H   0  0  0  0  0  0  0  0  0  0  0  0
    4.9153   -7.3445    4.0017 H   0  0  0  0  0  0  0  0  0  0  0  0
    2.5816   -6.6389    3.7617 H   0  0  0  0  0  0  0  0  0  0  0  0
    3.2524   -7.9299    1.1672 H   0  0  0  0  0  0  0  0  0  0  0  0
    3.1369   -9.2834    3.8681 H   0  0  0  0  0  0  0  0  0  0  0  0
    4.4623   -9.2497    2.7148 H   0  0  0  0  0  0  0  0  0  0  0  0
    2.9920  -10.1025    2.3120 H   0  0  0  0  0  0  0  0  0  0  0  0
    1.0256   -8.7238    1.2980 H   0  0  0  0  0  0  0  0  0  0  0  0
    0.8606   -9.0917    3.8056 H   0  0  0  0  0  0  0  0  0  0  0  0
    0.5136   -7.3959    3.9852 H   0  0  0  0  0  0  0  0  0  0  0  0
   -1.4977   -7.7441    2.4215 H   0  0  0  0  0  0  0  0  0  0  0  0
   -1.1568   -9.4648    2.4533 H   0  0  0  0  0  0  0  0  0  0  0  0
   -1.7855   -9.5683    4.4974 H   0  0  0  0  0  0  0  0  0  0  0  0
    2.9849   -6.2286   -0.0053 H   0  0  0  0  0  0  0  0  0  0  0  0
    5.1680   -4.3662    0.7112 H   0  0  0  0  0  0  0  0  0  0  0  0
    4.7746   -4.9831   -0.9098 H   0  0  0  0  0  0  0  0  0  0  0  0
    4.3761   -2.1296   -1.7532 H   0  0  0  0  0  0  0  0  0  0  0  0
    2.6223   -2.1494   -1.8904 H   0  0  0  0  0  0  0  0  0  0  0  0
    3.5646   -3.5275   -2.4266 H   0  0  0  0  0  0  0  0  0  0  0  0
    4.2158   -1.8257    1.0034 H   0  0  0  0  0  0  0  0  0  0  0  0
    2.6133   -1.4751    0.4622 H   0  0  0  0  0  0  0  0  0  0  0  0
    2.8287   -1.8972    2.8914 H   0  0  0  0  0  0  0  0  0  0  0  0
    1.5792   -2.8253    2.1445 H   0  0  0  0  0  0  0  0  0  0  0  0
    4.3351   -3.9111    2.5088 H   0  0  0  0  0  0  0  0  0  0  0  0
  1  2  1  0
  1 23  1  0
  1 24  1  0
  1 25  1  0
  2 21  1  0
  2  3  1  0
  2 26  1  1
  3  4  1  0
  3 27  1  0
  3 28  1  0
  4  5  1  0
  4 29  1  0
  4 30  1  0
  5 14  1  0
  5  6  1  0
  5 31  1  1
  6  7  1  0
  6  8  1  0
  6 32  1  6
  7 33  1  0
  7 34  1  0
  7 35  1  0
  8  9  1  0
  8 12  1  0
  8 36  1  6
  9 10  1  0
  9 37  1  0
  9 38  1  0
 10 11  1  0
 10 39  1  0
 10 40  1  0
 11 41  1  0
 12 13  1  0
 14 13  1  6
 14 21  1  0
 14 15  1  0
 15 22  1  0
 15 16  1  0
 15 42  1  6
 16 17  1  0
 16 43  1  0
 16 44  1  0
 17 18  1  6
 17 19  1  0
 17 22  1  0
 18 45  1  0
 18 46  1  0
 18 47  1  0
 19 20  1  0
 19 48  1  0
 19 49  1  0
 20 21  1  0
 20 50  1  0
 20 51  1  0
 21 52  1  6
M  END
>  <i_m_ct_stereo_status>  (175) 
1

>  <s_m_source_file>  (175) 
/var/tmp/pbs.5076255.sched01/tmpy176o0g7/39stoh4b52.sdf

>  <i_m_source_file_index>  (175) 
38

>  <i_lp_mmshare_version>  (175) 
48012

>  <i_f3d_flags>  (175) 
0

>  <s_epik_input>  (175) 
TzFbQ0BIXTJbQ0gyXVtDQF0xKFtDSDNdKVtDSDJdW0NIMl1bQ0BIXTNbQ0BIXShbQ0gzXSlbQ0gyXVtDSDJdW0NAQEhdKFtDQF0yMzQpW0NAQEhdKFtDSDNdKVtDQEhdKE9PNClbQ0gyXVtDSDJdW09IXQ==

>  <s_epik_cmdline>  (175) 
J2VwaWtfcHl0aG9uJywgJy1waHQnLCAnMi4wJywgJy1waCcsICc3LjAnLCAnLXRuJywgJzgnLCAnLW1hJywgJzIwMCcsICctaW1hZScsICc8aW5maWxlLm1hZT4nLCAnLW9tYWUnLCAnPG91dGZpbGUubWFlPic=

>  <r_lp_tautomer_probability>  (175) 
1

>  <r_epik_Ionization_Penalty>  (175) 
2.31218e-07

>  <r_epik_Ionization_Penalty_Charging>  (175) 
0

>  <r_epik_Ionization_Penalty_Neutral>  (175) 
2.31218e-07

>  <r_epik_State_Penalty>  (175) 
-0

>  <r_epik_Charging_Adjusted_Penalty>  (175) 
0

>  <i_epik_Tot_Q>  (175) 
0

>  <i_epik_Tot_abs_Q>  (175) 
0

>  <s_lp_Force_Field>  (175) 
OPLS3e

>  <r_lp_Energy>  (175) 
53.0467

>  <b_lp_Chiralities_Consistent>  (175) 
1

>  <s_lp_Variant>  (175) 
59:0-1

>  <s_i_glide_gridfile>  (175) 
pfpi4k_grid

>  <i_i_glide_lignum>  (175) 
38

>  <i_i_glide_rotatable_bonds>  (175) 
3

>  <r_i_docking_score>  (175) 
-3.1018

>  <r_i_glide_ligand_efficiency>  (175) 
-0.140991

>  <r_i_glide_ligand_efficiency_sa>  (175) 
-0.395062

>  <r_i_glide_ligand_efficiency_ln>  (175) 
-0.758193

>  <r_i_glide_gscore>  (175) 
-3.1018

>  <r_i_glide_lipo>  (175) 
-0.0339015

>  <r_i_glide_hbond>  (175) 
-0.244112

>  <r_i_glide_metal>  (175) 
-0

>  <r_i_glide_rewards>  (175) 
-1.29253

>  <r_i_glide_evdw>  (175) 
-14.9493

>  <r_i_glide_ecoul>  (175) 
-7.78918

>  <r_i_glide_erotb>  (175) 
0.384589

>  <r_i_glide_esite>  (175) 
0

>  <r_i_glide_emodel>  (175) 
-27.0796

>  <r_i_glide_energy>  (175) 
-22.7385

>  <r_i_glide_einternal>  (175) 
0.896854

>  <r_i_glide_intrahb_reward>  (175) 
-0

>  <i_i_glide_confnum>  (175) 
1

>  <i_i_glide_posenum>  (175) 
40

>  <r_i_glide_eff_state_penalty>  (175) 
0

>  <ligand_id>  (175) 
59

>  <original_smiles>  (175) 
CC1CCC2C(C)C(CCO)OOC23C2CC(C)(CCC13)O2

>  <smiles>  (175) 
[H]OC([H])([H])C([H])([H])C1([H])OOC23C4([H])OC(C([H])([H])[H])(C([H])([H])C([H])([H])C2([H])C([H])(C([H])([H])[H])C([H])([H])C([H])([H])C3([H])C1([H])C([H])([H])[H])C4([H])[H]

$$$$
59:0:2
     RDKit          3D

 52 55  0  0  1  0  0  0  0  0999 V2000
    5.1877   -9.2304    1.4636 C   0  0  0  0  0  0  0  0  0  0  0  0
    4.8573   -7.7278    1.3481 C   0  0  2  0  0  0  0  0  0  0  0  0
    5.9668   -6.8858    2.0530 C   0  0  0  0  0  0  0  0  0  0  0  0
    5.5504   -5.4267    2.3970 C   0  0  0  0  0  0  0  0  0  0  0  0
    4.4557   -4.9723    1.4269 C   0  0  2  0  0  0  0  0  0  0  0  0
    4.1909   -3.4651    1.2094 C   0  0  1  0  0  0  0  0  0  0  0  0
    5.4411   -2.5678    1.2108 C   0  0  0  0  0  0  0  0  0  0  0  0
    3.3429   -3.3277   -0.0872 C   0  0  1  0  0  0  0  0  0  0  0  0
    4.0944   -3.5426   -1.4322 C   0  0  0  0  0  0  0  0  0  0  0  0
    3.2787   -3.1376   -2.6739 C   0  0  0  0  0  0  0  0  0  0  0  0
    4.0107   -3.4492   -3.8429 O   0  0  0  0  0  0  0  0  0  0  0  0
    2.2194   -4.2076    0.0364 O   0  0  0  0  0  0  0  0  0  0  0  0
    2.6701   -5.6521    0.2566 O   0  0  0  0  0  0  0  0  0  0  0  0
    3.1429   -5.8046    1.5919 C   0  0  2  0  0  0  0  0  0  0  0  0
    2.0449   -5.2745    2.5657 C   0  0  2  0  0  0  0  0  0  0  0  0
    1.9490   -5.7636    4.0063 C   0  0  0  0  0  0  0  0  0  0  0  0
    0.8864   -6.7217    3.4715 C   0  0  2  0  0  0  0  0  0  0  0  0
   -0.4341   -6.7586    4.2431 C   0  0  0  0  0  0  0  0  0  0  0  0
    1.2776   -8.1422    3.0062 C   0  0  0  0  0  0  0  0  0  0  0  0
    2.2750   -8.2410    1.8200 C   0  0  0  0  0  0  0  0  0  0  0  0
    3.4933   -7.2982    1.9425 C   0  0  1  0  0  0  0  0  0  0  0  0
    0.7605   -5.9068    2.2800 O   0  0  0  0  0  0  0  0  0  0  0  0
    5.1051   -9.5806    2.4947 H   0  0  0  0  0  0  0  0  0  0  0  0
    6.2080   -9.4258    1.1265 H   0  0  0  0  0  0  0  0  0  0  0  0
    4.5282   -9.8409    0.8432 H   0  0  0  0  0  0  0  0  0  0  0  0
    4.8509   -7.4957    0.2825 H   0  0  0  0  0  0  0  0  0  0  0  0
    6.2884   -7.3803    2.9711 H   0  0  0  0  0  0  0  0  0  0  0  0
    6.8407   -6.8637    1.4001 H   0  0  0  0  0  0  0  0  0  0  0  0
    5.1813   -5.3609    3.4207 H   0  0  0  0  0  0  0  0  0  0  0  0
    6.4313   -4.7890    2.3311 H   0  0  0  0  0  0  0  0  0  0  0  0
    4.8963   -5.2662    0.4740 H   0  0  0  0  0  0  0  0  0  0  0  0
    3.5907   -3.0797    2.0297 H   0  0  0  0  0  0  0  0  0  0  0  0
    6.2044   -2.9118    0.5137 H   0  0  0  0  0  0  0  0  0  0  0  0
    5.8847   -2.5334    2.2064 H   0  0  0  0  0  0  0  0  0  0  0  0
    5.1749   -1.5418    0.9496 H   0  0  0  0  0  0  0  0  0  0  0  0
    2.9445   -2.3078   -0.1136 H   0  0  0  0  0  0  0  0  0  0  0  0
    5.0011   -2.9415   -1.4483 H   0  0  0  0  0  0  0  0  0  0  0  0
    4.4218   -4.5766   -1.5333 H   0  0  0  0  0  0  0  0  0  0  0  0
    2.3268   -3.6694   -2.7086 H   0  0  0  0  0  0  0  0  0  0  0  0
    3.0622   -2.0676   -2.6713 H   0  0  0  0  0  0  0  0  0  0  0  0
    4.1038   -4.3940   -3.8612 H   0  0  0  0  0  0  0  0  0  0  0  0
    1.9111   -4.1976    2.5552 H   0  0  0  0  0  0  0  0  0  0  0  0
    2.8259   -6.2278    4.4522 H   0  0  0  0  0  0  0  0  0  0  0  0
    1.5408   -5.0137    4.6798 H   0  0  0  0  0  0  0  0  0  0  0  0
   -0.3365   -7.3476    5.1591 H   0  0  0  0  0  0  0  0  0  0  0  0
   -1.2358   -7.1960    3.6510 H   0  0  0  0  0  0  0  0  0  0  0  0
   -0.7441   -5.7586    4.5408 H   0  0  0  0  0  0  0  0  0  0  0  0
    1.6968   -8.6859    3.8591 H   0  0  0  0  0  0  0  0  0  0  0  0
    0.3810   -8.6973    2.7287 H   0  0  0  0  0  0  0  0  0  0  0  0
    2.5900   -9.2806    1.7876 H   0  0  0  0  0  0  0  0  0  0  0  0
    1.7518   -8.0582    0.8817 H   0  0  0  0  0  0  0  0  0  0  0  0
    3.7380   -7.3642    2.9970 H   0  0  0  0  0  0  0  0  0  0  0  0
  1  2  1  0
  1 23  1  0
  1 24  1  0
  1 25  1  0
  2 21  1  0
  2  3  1  0
  2 26  1  6
  3  4  1  0
  3 27  1  0
  3 28  1  0
  4  5  1  0
  4 29  1  0
  4 30  1  0
  5 14  1  0
  5  6  1  0
  5 31  1  6
  6  7  1  0
  6  8  1  0
  6 32  1  1
  7 33  1  0
  7 34  1  0
  7 35  1  0
  8  9  1  0
  8 12  1  0
  8 36  1  6
  9 10  1  0
  9 37  1  0
  9 38  1  0
 10 11  1  0
 10 39  1  0
 10 40  1  0
 11 41  1  0
 12 13  1  0
 14 13  1  6
 14 21  1  0
 14 15  1  0
 15 22  1  0
 15 16  1  0
 15 42  1  1
 16 17  1  0
 16 43  1  0
 16 44  1  0
 17 18  1  1
 17 19  1  0
 17 22  1  0
 18 45  1  0
 18 46  1  0
 18 47  1  0
 19 20  1  0
 19 48  1  0
 19 49  1  0
 20 21  1  0
 20 50  1  0
 20 51  1  0
 21 52  1  1
M  END
>  <i_m_ct_stereo_status>  (176) 
1

>  <s_m_source_file>  (176) 
/var/tmp/pbs.5076255.sched01/tmpy176o0g7/39stoh4b52.sdf

>  <i_m_source_file_index>  (176) 
38

>  <i_lp_mmshare_version>  (176) 
48012

>  <i_f3d_flags>  (176) 
0

>  <s_epik_input>  (176) 
TzFbQ0BIXTJbQ0gyXVtDQF0xKFtDSDNdKVtDSDJdW0NIMl1bQ0BIXTNbQ0BIXShbQ0gzXSlbQ0gyXVtDSDJdW0NAQEhdKFtDQF0yMzQpW0NAQEhdKFtDSDNdKVtDQEhdKE9PNClbQ0gyXVtDSDJdW09IXQ==

>  <s_epik_cmdline>  (176) 
J2VwaWtfcHl0aG9uJywgJy1waHQnLCAnMi4wJywgJy1waCcsICc3LjAnLCAnLXRuJywgJzgnLCAnLW1hJywgJzIwMCcsICctaW1hZScsICc8aW5maWxlLm1hZT4nLCAnLW9tYWUnLCAnPG91dGZpbGUubWFlPic=

>  <r_lp_tautomer_probability>  (176) 
1

>  <r_epik_Ionization_Penalty>  (176) 
2.31218e-07

>  <r_epik_Ionization_Penalty_Charging>  (176) 
0

>  <r_epik_Ionization_Penalty_Neutral>  (176) 
2.31218e-07

>  <r_epik_State_Penalty>  (176) 
-0

>  <r_epik_Charging_Adjusted_Penalty>  (176) 
0

>  <i_epik_Tot_Q>  (176) 
0

>  <i_epik_Tot_abs_Q>  (176) 
0

>  <s_lp_Force_Field>  (176) 
OPLS3e

>  <r_lp_Energy>  (176) 
53.0467

>  <b_lp_Chiralities_Consistent>  (176) 
1

>  <s_lp_Variant>  (176) 
59:0-1

>  <s_i_glide_gridfile>  (176) 
pfpi4k_grid

>  <i_i_glide_lignum>  (176) 
38

>  <i_i_glide_rotatable_bonds>  (176) 
3

>  <r_i_docking_score>  (176) 
-3.09938

>  <r_i_glide_ligand_efficiency>  (176) 
-0.140881

>  <r_i_glide_ligand_efficiency_sa>  (176) 
-0.394754

>  <r_i_glide_ligand_efficiency_ln>  (176) 
-0.757602

>  <r_i_glide_gscore>  (176) 
-3.09938

>  <r_i_glide_lipo>  (176) 
-0.30327

>  <r_i_glide_hbond>  (176) 
-0.125575

>  <r_i_glide_metal>  (176) 
-0

>  <r_i_glide_rewards>  (176) 
-1.29253

>  <r_i_glide_evdw>  (176) 
-19.0461

>  <r_i_glide_ecoul>  (176) 
-5.40191

>  <r_i_glide_erotb>  (176) 
0.384589

>  <r_i_glide_esite>  (176) 
0

>  <r_i_glide_emodel>  (176) 
-29.8836

>  <r_i_glide_energy>  (176) 
-24.448

>  <r_i_glide_einternal>  (176) 
0.0989266

>  <r_i_glide_intrahb_reward>  (176) 
-0

>  <i_i_glide_confnum>  (176) 
1

>  <i_i_glide_posenum>  (176) 
2

>  <r_i_glide_eff_state_penalty>  (176) 
0

>  <ligand_id>  (176) 
59

>  <original_smiles>  (176) 
CC1CCC2C(C)C(CCO)OOC23C2CC(C)(CCC13)O2

>  <smiles>  (176) 
[H]OC([H])([H])C([H])([H])C1([H])OOC23C4([H])OC(C([H])([H])[H])(C([H])([H])C([H])([H])C2([H])C([H])(C([H])([H])[H])C([H])([H])C([H])([H])C3([H])C1([H])C([H])([H])[H])C4([H])[H]

$$$$
61:0:0
     RDKit          3D

 57 60  0  0  1  0  0  0  0  0999 V2000
    6.7234   -5.9879    0.6073 C   0  0  0  0  0  0  0  0  0  0  0  0
    6.3312   -4.7097    0.8120 C   0  0  0  0  0  0  0  0  0  0  0  0
    7.0223   -3.5882    0.0367 C   0  0  0  0  0  0  0  0  0  0  0  0
    6.0645   -2.4558   -0.2676 C   0  0  0  0  0  0  0  0  0  0  0  0
    4.7959   -2.5628   -0.6706 C   0  0  0  0  0  0  0  0  0  0  0  0
    3.7132   -1.5698   -0.3764 C   0  0  2  0  0  0  0  0  0  0  0  0
    3.5424   -0.7810   -1.6842 C   0  0  0  0  0  0  0  0  0  0  0  0
    3.3586   -1.6854   -2.9007 C   0  0  1  0  0  0  0  0  0  0  0  0
    4.5480   -1.5301   -3.8169 C   0  0  0  0  0  0  0  0  0  0  0  0
    3.0787   -3.1470   -2.4423 C   0  0  1  0  0  0  0  0  0  0  0  0
    3.0757   -3.8378   -3.6613 O   0  0  0  0  0  0  0  0  0  0  0  0
    4.0794   -3.7184   -1.3120 C   0  0  1  0  0  0  0  0  0  0  0  0
    5.0162   -4.5564   -1.9898 O   0  0  0  0  0  0  0  0  0  0  0  0
    3.3703   -4.4015   -0.0633 C   0  0  1  0  0  0  0  0  0  0  0  0
    3.4450   -5.8032   -0.1764 O   0  0  0  0  0  0  0  0  0  0  0  0
    3.7828   -4.0241    1.4360 C   0  0  1  0  0  0  0  0  0  0  0  0
    2.8349   -4.9400    2.2923 C   0  0  0  0  0  0  0  0  0  0  0  0
    5.2537   -4.3977    1.8654 C   0  0  2  0  0  0  0  0  0  0  0  0
    5.6777   -3.3304    2.8774 C   0  0  0  0  0  0  0  0  0  0  0  0
    4.4303   -2.5725    3.2857 C   0  0  1  0  0  0  0  0  0  0  0  0
    4.6870   -1.3751    3.9863 O   0  0  0  0  0  0  0  0  0  0  0  0
    3.5557   -2.5290    2.0113 C   0  0  1  0  0  0  0  0  0  0  0  0
    3.6310   -1.1754    1.1166 C   0  0  0  0  0  0  0  0  0  0  0  0
    4.7396   -0.1495    1.4312 C   0  0  0  0  0  0  0  0  0  0  0  0
    2.3095   -0.4065    1.4021 C   0  0  0  0  0  0  0  0  0  0  0  0
    6.2557   -6.8017    1.1357 H   0  0  0  0  0  0  0  0  0  0  0  0
    7.5062   -6.2186   -0.0950 H   0  0  0  0  0  0  0  0  0  0  0  0
    7.8220   -3.1865    0.6591 H   0  0  0  0  0  0  0  0  0  0  0  0
    7.4882   -3.9135   -0.8876 H   0  0  0  0  0  0  0  0  0  0  0  0
    6.4054   -1.5172    0.1217 H   0  0  0  0  0  0  0  0  0  0  0  0
    2.7410   -2.0516   -0.3393 H   0  0  0  0  0  0  0  0  0  0  0  0
    2.5614   -0.3429   -1.7816 H   0  0  0  0  0  0  0  0  0  0  0  0
    4.3236   -0.0348   -1.8355 H   0  0  0  0  0  0  0  0  0  0  0  0
    2.4952   -1.3640   -3.4950 H   0  0  0  0  0  0  0  0  0  0  0  0
    5.4115   -1.8765   -3.2461 H   0  0  0  0  0  0  0  0  0  0  0  0
    4.6519   -0.4818   -4.0990 H   0  0  0  0  0  0  0  0  0  0  0  0
    4.4862   -2.1217   -4.7225 H   0  0  0  0  0  0  0  0  0  0  0  0
    2.0430   -3.1847   -2.0698 H   0  0  0  0  0  0  0  0  0  0  0  0
    2.6758   -4.7166   -3.5572 H   0  0  0  0  0  0  0  0  0  0  0  0
    4.5332   -5.3540   -2.2253 H   0  0  0  0  0  0  0  0  0  0  0  0
    2.3029   -4.1672   -0.1432 H   0  0  0  0  0  0  0  0  0  0  0  0
    3.0964   -6.0114   -1.0349 H   0  0  0  0  0  0  0  0  0  0  0  0
    2.9383   -4.8228    3.3663 H   0  0  0  0  0  0  0  0  0  0  0  0
    3.0234   -6.0043    2.1363 H   0  0  0  0  0  0  0  0  0  0  0  0
    1.7912   -4.7549    2.0378 H   0  0  0  0  0  0  0  0  0  0  0  0
    5.1944   -5.3196    2.4409 H   0  0  0  0  0  0  0  0  0  0  0  0
    6.1287   -3.8053    3.7442 H   0  0  0  0  0  0  0  0  0  0  0  0
    6.4060   -2.6457    2.4529 H   0  0  0  0  0  0  0  0  0  0  0  0
    3.9310   -3.1769    4.0365 H   0  0  0  0  0  0  0  0  0  0  0  0
    5.0803   -1.5973    4.8129 H   0  0  0  0  0  0  0  0  0  0  0  0
    2.5302   -2.5334    2.3788 H   0  0  0  0  0  0  0  0  0  0  0  0
    4.4173    0.5061    2.2426 H   0  0  0  0  0  0  0  0  0  0  0  0
    4.9243    0.4992    0.5708 H   0  0  0  0  0  0  0  0  0  0  0  0
    5.6812   -0.5883    1.7543 H   0  0  0  0  0  0  0  0  0  0  0  0
    2.2584   -0.0957    2.4463 H   0  0  0  0  0  0  0  0  0  0  0  0
    1.4280   -1.0421    1.2674 H   0  0  0  0  0  0  0  0  0  0  0  0
    2.2265    0.4880    0.7764 H   0  0  0  0  0  0  0  0  0  0  0  0
  1  2  2  0
  1 26  1  0
  1 27  1  0
  2 18  1  0
  2  3  1  0
  3  4  1  0
  3 28  1  0
  3 29  1  0
  4  5  2  3
  4 30  1  0
  5 12  1  0
  5  6  1  0
  6 23  1  0
  6  7  1  0
  6 31  1  1
  7  8  1  0
  7 32  1  0
  7 33  1  0
  8  9  1  0
  8 10  1  0
  8 34  1  6
  9 35  1  0
  9 36  1  0
  9 37  1  0
 10 11  1  0
 10 12  1  0
 10 38  1  1
 11 39  1  0
 12 13  1  6
 12 14  1  0
 13 40  1  0
 14 15  1  0
 14 16  1  0
 14 41  1  1
 15 42  1  0
 16 22  1  0
 16 17  1  1
 16 18  1  0
 17 43  1  0
 17 44  1  0
 17 45  1  0
 18 19  1  0
 18 46  1  1
 19 20  1  0
 19 47  1  0
 19 48  1  0
 20 21  1  0
 20 22  1  0
 20 49  1  1
 21 50  1  0
 22 23  1  0
 22 51  1  1
 23 24  1  0
 23 25  1  0
 24 52  1  0
 24 53  1  0
 24 54  1  0
 25 55  1  0
 25 56  1  0
 25 57  1  0
M  END
>  <i_m_ct_stereo_status>  (177) 
1

>  <s_m_source_file>  (177) 
/var/tmp/pbs.5076255.sched01/tmph8v5ro6p/78zitxkb1g.sdf

>  <i_m_source_file_index>  (177) 
1

>  <i_lp_mmshare_version>  (177) 
48012

>  <i_f3d_flags>  (177) 
0

>  <s_epik_input>  (177) 
W0NIXT0xXFtDSDJdQyg9W0NIMl0pW0NAQEhdKFtDSDJdW0NASF0yW09IXSlbQ0BdKFtDSDNdKShbQ0BASF0zW09IXSlbQ0BASF0yQyhbQ0gzXSkoW0NIM10pW0NASF0oXEMxW0NAQF0zNFtPSF0pW0NIMl1bQ0BASF0oW0NIM10pW0NASF00W09IXQ==

>  <s_epik_cmdline>  (177) 
J2VwaWtfcHl0aG9uJywgJy1waHQnLCAnMi4wJywgJy1waCcsICc3LjAnLCAnLXRuJywgJzgnLCAnLW1hJywgJzIwMCcsICctaW1hZScsICc8aW5maWxlLm1hZT4nLCAnLW9tYWUnLCAnPG91dGZpbGUubWFlPic=

>  <r_lp_tautomer_probability>  (177) 
1

>  <r_epik_Ionization_Penalty>  (177) 
8.64734e-07

>  <r_epik_Ionization_Penalty_Charging>  (177) 
0

>  <r_epik_Ionization_Penalty_Neutral>  (177) 
8.64734e-07

>  <r_epik_State_Penalty>  (177) 
-0

>  <r_epik_Charging_Adjusted_Penalty>  (177) 
0

>  <i_epik_Tot_Q>  (177) 
0

>  <i_epik_Tot_abs_Q>  (177) 
0

>  <s_lp_Force_Field>  (177) 
OPLS3e

>  <r_lp_Energy>  (177) 
113.526

>  <b_lp_Chiralities_Consistent>  (177) 
1

>  <s_lp_Variant>  (177) 
61:0-1

>  <s_i_glide_gridfile>  (177) 
pfpi4k_grid

>  <i_i_glide_lignum>  (177) 
1

>  <i_i_glide_rotatable_bonds>  (177) 
4

>  <r_i_docking_score>  (177) 
-3.27607

>  <r_i_glide_ligand_efficiency>  (177) 
-0.131043

>  <r_i_glide_ligand_efficiency_sa>  (177) 
-0.383172

>  <r_i_glide_ligand_efficiency_ln>  (177) 
-0.776527

>  <r_i_glide_gscore>  (177) 
-3.27607

>  <r_i_glide_lipo>  (177) 
-0.554141

>  <r_i_glide_hbond>  (177) 
0

>  <r_i_glide_metal>  (177) 
-0

>  <r_i_glide_rewards>  (177) 
-1.03312

>  <r_i_glide_evdw>  (177) 
8.30127

>  <r_i_glide_ecoul>  (177) 
-14.0259

>  <r_i_glide_erotb>  (177) 
0

>  <r_i_glide_esite>  (177) 
0

>  <r_i_glide_emodel>  (177) 
-8.2137

>  <r_i_glide_energy>  (177) 
-5.72459

>  <r_i_glide_einternal>  (177) 
1.53006

>  <r_i_glide_intrahb_reward>  (177) 
-0

>  <i_i_glide_confnum>  (177) 
2

>  <i_i_glide_posenum>  (177) 
1

>  <r_i_glide_eff_state_penalty>  (177) 
0

>  <ligand_id>  (177) 
61

>  <original_smiles>  (177) 
C=C1CC=C2C3CC(C)C(O)C2(O)C(O)C2(C)C1CC(O)C2C3(C)C

>  <smiles>  (177) 
[H]OC1([H])C2(O[H])C3=C([H])C([H])([H])C(=C([H])[H])C4([H])C([H])([H])C([H])(O[H])C([H])(C(C([H])([H])[H])(C([H])([H])[H])C3([H])C([H])([H])C1([H])C([H])([H])[H])C4(C([H])([H])[H])C2([H])O[H]

$$$$
61:0:1
     RDKit          3D

 57 60  0  0  1  0  0  0  0  0999 V2000
    4.3098   -6.7431    3.6287 C   0  0  0  0  0  0  0  0  0  0  0  0
    4.6783   -5.4511    3.5038 C   0  0  0  0  0  0  0  0  0  0  0  0
    5.7652   -5.0835    2.4877 C   0  0  0  0  0  0  0  0  0  0  0  0
    5.5260   -3.7277    1.8570 C   0  0  0  0  0  0  0  0  0  0  0  0
    4.3344   -3.2627    1.4279 C   0  0  0  0  0  0  0  0  0  0  0  0
    3.9414   -1.8091    1.3782 C   0  0  2  0  0  0  0  0  0  0  0  0
    4.0338   -1.3051   -0.0661 C   0  0  0  0  0  0  0  0  0  0  0  0
    3.4210   -2.4016   -1.0099 C   0  0  1  0  0  0  0  0  0  0  0  0
    4.4707   -3.1236   -1.8608 C   0  0  0  0  0  0  0  0  0  0  0  0
    2.5088   -3.4019   -0.2189 C   0  0  1  0  0  0  0  0  0  0  0  0
    1.8156   -4.2774   -1.0832 O   0  0  0  0  0  0  0  0  0  0  0  0
    3.1114   -4.0539    1.0988 C   0  0  1  0  0  0  0  0  0  0  0  0
    3.4030   -5.4052    0.7735 O   0  0  0  0  0  0  0  0  0  0  0  0
    2.2354   -3.9192    2.4048 C   0  0  1  0  0  0  0  0  0  0  0  0
    1.5116   -5.1301    2.5633 O   0  0  0  0  0  0  0  0  0  0  0  0
    2.9265   -3.4206    3.7769 C   0  0  1  0  0  0  0  0  0  0  0  0
    1.7235   -3.4439    4.7842 C   0  0  0  0  0  0  0  0  0  0  0  0
    4.0377   -4.3676    4.3929 C   0  0  2  0  0  0  0  0  0  0  0  0
    5.0618   -3.4623    5.1157 C   0  0  0  0  0  0  0  0  0  0  0  0
    4.4095   -2.0821    5.2109 C   0  0  1  0  0  0  0  0  0  0  0  0
    5.3158   -1.0614    5.5584 O   0  0  0  0  0  0  0  0  0  0  0  0
    3.5495   -1.9193    3.9191 C   0  0  1  0  0  0  0  0  0  0  0  0
    4.1849   -1.0554    2.6909 C   0  0  0  0  0  0  0  0  0  0  0  0
    5.6776   -0.6838    2.7800 C   0  0  0  0  0  0  0  0  0  0  0  0
    3.4507    0.3096    2.6405 C   0  0  0  0  0  0  0  0  0  0  0  0
    3.5542   -7.0487    4.3374 H   0  0  0  0  0  0  0  0  0  0  0  0
    4.7591   -7.5043    3.0061 H   0  0  0  0  0  0  0  0  0  0  0  0
    6.7136   -5.0511    3.0240 H   0  0  0  0  0  0  0  0  0  0  0  0
    5.8774   -5.8434    1.7152 H   0  0  0  0  0  0  0  0  0  0  0  0
    6.3388   -3.0436    1.9945 H   0  0  0  0  0  0  0  0  0  0  0  0
    2.8680   -1.7255    1.4879 H   0  0  0  0  0  0  0  0  0  0  0  0
    3.4584   -0.3837   -0.1589 H   0  0  0  0  0  0  0  0  0  0  0  0
    5.0578   -1.0685   -0.3508 H   0  0  0  0  0  0  0  0  0  0  0  0
    2.7674   -1.8867   -1.7198 H   0  0  0  0  0  0  0  0  0  0  0  0
    5.1321   -3.7375   -1.2461 H   0  0  0  0  0  0  0  0  0  0  0  0
    5.0710   -2.4128   -2.4282 H   0  0  0  0  0  0  0  0  0  0  0  0
    3.9852   -3.7807   -2.5822 H   0  0  0  0  0  0  0  0  0  0  0  0
    1.7072   -2.7530    0.1138 H   0  0  0  0  0  0  0  0  0  0  0  0
    2.4117   -4.7359   -1.6701 H   0  0  0  0  0  0  0  0  0  0  0  0
    2.9558   -5.5895   -0.0426 H   0  0  0  0  0  0  0  0  0  0  0  0
    1.4570   -3.1784    2.2181 H   0  0  0  0  0  0  0  0  0  0  0  0
    2.1504   -5.8320    2.5219 H   0  0  0  0  0  0  0  0  0  0  0  0
    1.9757   -3.1190    5.7915 H   0  0  0  0  0  0  0  0  0  0  0  0
    1.3151   -4.4484    4.9113 H   0  0  0  0  0  0  0  0  0  0  0  0
    0.9124   -2.7998    4.4380 H   0  0  0  0  0  0  0  0  0  0  0  0
    3.5626   -4.9389    5.1897 H   0  0  0  0  0  0  0  0  0  0  0  0
    5.3262   -3.8510    6.1022 H   0  0  0  0  0  0  0  0  0  0  0  0
    5.9925   -3.3894    4.5620 H   0  0  0  0  0  0  0  0  0  0  0  0
    3.7484   -2.1031    6.0748 H   0  0  0  0  0  0  0  0  0  0  0  0
    4.8688   -0.2303    5.4856 H   0  0  0  0  0  0  0  0  0  0  0  0
    2.7069   -1.2996    4.2312 H   0  0  0  0  0  0  0  0  0  0  0  0
    5.8642    0.2082    3.3815 H   0  0  0  0  0  0  0  0  0  0  0  0
    6.1248   -0.4917    1.8025 H   0  0  0  0  0  0  0  0  0  0  0  0
    6.2117   -1.4910    3.2632 H   0  0  0  0  0  0  0  0  0  0  0  0
    3.6158    0.8594    3.5701 H   0  0  0  0  0  0  0  0  0  0  0  0
    2.3736    0.1936    2.5087 H   0  0  0  0  0  0  0  0  0  0  0  0
    3.8210    0.9321    1.8246 H   0  0  0  0  0  0  0  0  0  0  0  0
  1  2  2  0
  1 26  1  0
  1 27  1  0
  2 18  1  0
  2  3  1  0
  3  4  1  0
  3 28  1  0
  3 29  1  0
  4  5  2  3
  4 30  1  0
  5 12  1  0
  5  6  1  0
  6 23  1  0
  6  7  1  0
  6 31  1  1
  7  8  1  0
  7 32  1  0
  7 33  1  0
  8  9  1  0
  8 10  1  0
  8 34  1  6
  9 35  1  0
  9 36  1  0
  9 37  1  0
 10 11  1  0
 10 12  1  0
 10 38  1  1
 11 39  1  0
 12 13  1  6
 12 14  1  0
 13 40  1  0
 14 15  1  0
 14 16  1  0
 14 41  1  6
 15 42  1  0
 16 22  1  0
 16 17  1  1
 16 18  1  0
 17 43  1  0
 17 44  1  0
 17 45  1  0
 18 19  1  0
 18 46  1  1
 19 20  1  0
 19 47  1  0
 19 48  1  0
 20 21  1  0
 20 22  1  0
 20 49  1  1
 21 50  1  0
 22 23  1  0
 22 51  1  1
 23 24  1  0
 23 25  1  0
 24 52  1  0
 24 53  1  0
 24 54  1  0
 25 55  1  0
 25 56  1  0
 25 57  1  0
M  END
>  <i_m_ct_stereo_status>  (178) 
1

>  <s_m_source_file>  (178) 
/var/tmp/pbs.5076255.sched01/tmph8v5ro6p/78zitxkb1g.sdf

>  <i_m_source_file_index>  (178) 
1

>  <i_lp_mmshare_version>  (178) 
48012

>  <i_f3d_flags>  (178) 
0

>  <s_epik_input>  (178) 
W0NIXT0xXFtDSDJdQyg9W0NIMl0pW0NAQEhdKFtDSDJdW0NASF0yW09IXSlbQ0BdKFtDSDNdKShbQ0BASF0zW09IXSlbQ0BASF0yQyhbQ0gzXSkoW0NIM10pW0NASF0oXEMxW0NAQF0zNFtPSF0pW0NIMl1bQ0BASF0oW0NIM10pW0NASF00W09IXQ==

>  <s_epik_cmdline>  (178) 
J2VwaWtfcHl0aG9uJywgJy1waHQnLCAnMi4wJywgJy1waCcsICc3LjAnLCAnLXRuJywgJzgnLCAnLW1hJywgJzIwMCcsICctaW1hZScsICc8aW5maWxlLm1hZT4nLCAnLW9tYWUnLCAnPG91dGZpbGUubWFlPic=

>  <r_lp_tautomer_probability>  (178) 
1

>  <r_epik_Ionization_Penalty>  (178) 
8.64734e-07

>  <r_epik_Ionization_Penalty_Charging>  (178) 
0

>  <r_epik_Ionization_Penalty_Neutral>  (178) 
8.64734e-07

>  <r_epik_State_Penalty>  (178) 
-0

>  <r_epik_Charging_Adjusted_Penalty>  (178) 
0

>  <i_epik_Tot_Q>  (178) 
0

>  <i_epik_Tot_abs_Q>  (178) 
0

>  <s_lp_Force_Field>  (178) 
OPLS3e

>  <r_lp_Energy>  (178) 
113.526

>  <b_lp_Chiralities_Consistent>  (178) 
1

>  <s_lp_Variant>  (178) 
61:0-1

>  <s_i_glide_gridfile>  (178) 
pfpi4k_grid

>  <i_i_glide_lignum>  (178) 
1

>  <i_i_glide_rotatable_bonds>  (178) 
4

>  <r_i_docking_score>  (178) 
-3.15728

>  <r_i_glide_ligand_efficiency>  (178) 
-0.126291

>  <r_i_glide_ligand_efficiency_sa>  (178) 
-0.369278

>  <r_i_glide_ligand_efficiency_ln>  (178) 
-0.74837

>  <r_i_glide_gscore>  (178) 
-3.15728

>  <r_i_glide_lipo>  (178) 
-0.249454

>  <r_i_glide_hbond>  (178) 
0

>  <r_i_glide_metal>  (178) 
-0

>  <r_i_glide_rewards>  (178) 
-1.03312

>  <r_i_glide_evdw>  (178) 
-17.036

>  <r_i_glide_ecoul>  (178) 
-6.81941

>  <r_i_glide_erotb>  (178) 
0

>  <r_i_glide_esite>  (178) 
0

>  <r_i_glide_emodel>  (178) 
-27.3643

>  <r_i_glide_energy>  (178) 
-23.8554

>  <r_i_glide_einternal>  (178) 
1.6325

>  <r_i_glide_intrahb_reward>  (178) 
-0

>  <i_i_glide_confnum>  (178) 
2

>  <i_i_glide_posenum>  (178) 
10

>  <r_i_glide_eff_state_penalty>  (178) 
0

>  <ligand_id>  (178) 
61

>  <original_smiles>  (178) 
C=C1CC=C2C3CC(C)C(O)C2(O)C(O)C2(C)C1CC(O)C2C3(C)C

>  <smiles>  (178) 
[H]OC1([H])C2(O[H])C3=C([H])C([H])([H])C(=C([H])[H])C4([H])C([H])([H])C([H])(O[H])C([H])(C(C([H])([H])[H])(C([H])([H])[H])C3([H])C([H])([H])C1([H])C([H])([H])[H])C4(C([H])([H])[H])C2([H])O[H]

$$$$
61:0:2
     RDKit          3D

 57 60  0  0  1  0  0  0  0  0999 V2000
    4.2150   -6.6545    3.7232 C   0  0  0  0  0  0  0  0  0  0  0  0
    4.5788   -5.3630    3.6163 C   0  0  0  0  0  0  0  0  0  0  0  0
    5.7026   -4.9863    2.6444 C   0  0  0  0  0  0  0  0  0  0  0  0
    5.4821   -3.6305    2.0080 C   0  0  0  0  0  0  0  0  0  0  0  0
    4.3080   -3.1751    1.5300 C   0  0  0  0  0  0  0  0  0  0  0  0
    3.9116   -1.7235    1.4739 C   0  0  2  0  0  0  0  0  0  0  0  0
    4.0474   -1.2130    0.0356 C   0  0  0  0  0  0  0  0  0  0  0  0
    3.4739   -2.3208   -0.9343 C   0  0  1  0  0  0  0  0  0  0  0  0
    4.5724   -3.0207   -1.7457 C   0  0  0  0  0  0  0  0  0  0  0  0
    2.5418   -3.3492   -0.1914 C   0  0  1  0  0  0  0  0  0  0  0  0
    1.8803   -4.2488   -1.0631 O   0  0  0  0  0  0  0  0  0  0  0  0
    3.1075   -3.9784    1.1533 C   0  0  1  0  0  0  0  0  0  0  0  0
    3.4394   -5.3301    0.8505 O   0  0  0  0  0  0  0  0  0  0  0  0
    2.1928   -3.8489    2.4323 C   0  0  1  0  0  0  0  0  0  0  0  0
    1.4608   -5.0577    2.5862 O   0  0  0  0  0  0  0  0  0  0  0  0
    2.8159   -3.3417    3.8287 C   0  0  1  0  0  0  0  0  0  0  0  0
    1.5692   -3.3738    4.7802 C   0  0  0  0  0  0  0  0  0  0  0  0
    3.9052   -4.2827    4.4836 C   0  0  2  0  0  0  0  0  0  0  0  0
    4.8965   -3.3734    5.2440 C   0  0  0  0  0  0  0  0  0  0  0  0
    4.2213   -2.0041    5.3245 C   0  0  1  0  0  0  0  0  0  0  0  0
    5.0967   -0.9723    5.7212 O   0  0  0  0  0  0  0  0  0  0  0  0
    3.4168   -1.8385    3.9995 C   0  0  1  0  0  0  0  0  0  0  0  0
    4.1154   -0.9824    2.8039 C   0  0  0  0  0  0  0  0  0  0  0  0
    5.6096   -0.6010    2.9558 C   0  0  0  0  0  0  0  0  0  0  0  0
    3.3764    0.3843    2.7232 C   0  0  0  0  0  0  0  0  0  0  0  0
    3.4355   -6.9688    4.4010 H   0  0  0  0  0  0  0  0  0  0  0  0
    4.6932   -7.4114    3.1146 H   0  0  0  0  0  0  0  0  0  0  0  0
    6.6162   -4.9394    3.2291 H   0  0  0  0  0  0  0  0  0  0  0  0
    5.8564   -5.7448    1.8768 H   0  0  0  0  0  0  0  0  0  0  0  0
    6.2783   -2.9395    2.1819 H   0  0  0  0  0  0  0  0  0  0  0  0
    2.8351   -1.6474    1.5378 H   0  0  0  0  0  0  0  0  0  0  0  0
    3.4797   -0.2851   -0.0733 H   0  0  0  0  0  0  0  0  0  0  0  0
    5.0834   -0.9773   -0.2075 H   0  0  0  0  0  0  0  0  0  0  0  0
    2.8524   -1.8066   -1.6726 H   0  0  0  0  0  0  0  0  0  0  0  0
    5.2156   -3.6260   -1.1056 H   0  0  0  0  0  0  0  0  0  0  0  0
    5.1882   -2.2995   -2.2834 H   0  0  0  0  0  0  0  0  0  0  0  0
    4.1247   -3.6801   -2.4893 H   0  0  0  0  0  0  0  0  0  0  0  0
    1.7332   -2.6994    0.1127 H   0  0  0  0  0  0  0  0  0  0  0  0
    2.5093   -4.7705   -1.5585 H   0  0  0  0  0  0  0  0  0  0  0  0
    3.8155   -5.3332   -0.0123 H   0  0  0  0  0  0  0  0  0  0  0  0
    1.4208   -3.1144    2.2067 H   0  0  0  0  0  0  0  0  0  0  0  0
    2.0954   -5.7516    2.7129 H   0  0  0  0  0  0  0  0  0  0  0  0
    1.7719   -3.0502    5.7973 H   0  0  0  0  0  0  0  0  0  0  0  0
    1.1611   -4.3794    4.8911 H   0  0  0  0  0  0  0  0  0  0  0  0
    0.7702   -2.7367    4.3965 H   0  0  0  0  0  0  0  0  0  0  0  0
    3.3996   -4.8592    5.2564 H   0  0  0  0  0  0  0  0  0  0  0  0
    5.1220   -3.7653    6.2378 H   0  0  0  0  0  0  0  0  0  0  0  0
    5.8475   -3.2920    4.7264 H   0  0  0  0  0  0  0  0  0  0  0  0
    3.5243   -2.0454    6.1582 H   0  0  0  0  0  0  0  0  0  0  0  0
    4.5962   -0.1796    5.8286 H   0  0  0  0  0  0  0  0  0  0  0  0
    2.5578   -1.2214    4.2695 H   0  0  0  0  0  0  0  0  0  0  0  0
    5.7381    0.2962    3.5625 H   0  0  0  0  0  0  0  0  0  0  0  0
    6.0745   -0.3932    1.9941 H   0  0  0  0  0  0  0  0  0  0  0  0
    6.1996   -1.3702    3.4324 H   0  0  0  0  0  0  0  0  0  0  0  0
    3.4887    0.9388    3.6571 H   0  0  0  0  0  0  0  0  0  0  0  0
    2.3059    0.2744    2.5382 H   0  0  0  0  0  0  0  0  0  0  0  0
    3.7857    1.0029    1.9254 H   0  0  0  0  0  0  0  0  0  0  0  0
  1  2  2  0
  1 26  1  0
  1 27  1  0
  2 18  1  0
  2  3  1  0
  3  4  1  0
  3 28  1  0
  3 29  1  0
  4  5  2  3
  4 30  1  0
  5 12  1  0
  5  6  1  0
  6 23  1  0
  6  7  1  0
  6 31  1  1
  7  8  1  0
  7 32  1  0
  7 33  1  0
  8  9  1  0
  8 10  1  0
  8 34  1  6
  9 35  1  0
  9 36  1  0
  9 37  1  0
 10 11  1  0
 10 12  1  0
 10 38  1  1
 11 39  1  0
 12 13  1  6
 12 14  1  0
 13 40  1  0
 14 15  1  0
 14 16  1  0
 14 41  1  6
 15 42  1  0
 16 22  1  0
 16 17  1  1
 16 18  1  0
 17 43  1  0
 17 44  1  0
 17 45  1  0
 18 19  1  0
 18 46  1  1
 19 20  1  0
 19 47  1  0
 19 48  1  0
 20 21  1  0
 20 22  1  0
 20 49  1  1
 21 50  1  0
 22 23  1  0
 22 51  1  1
 23 24  1  0
 23 25  1  0
 24 52  1  0
 24 53  1  0
 24 54  1  0
 25 55  1  0
 25 56  1  0
 25 57  1  0
M  END
>  <i_m_ct_stereo_status>  (179) 
1

>  <s_m_source_file>  (179) 
/var/tmp/pbs.5076255.sched01/tmph8v5ro6p/78zitxkb1g.sdf

>  <i_m_source_file_index>  (179) 
1

>  <i_lp_mmshare_version>  (179) 
48012

>  <i_f3d_flags>  (179) 
0

>  <s_epik_input>  (179) 
W0NIXT0xXFtDSDJdQyg9W0NIMl0pW0NAQEhdKFtDSDJdW0NASF0yW09IXSlbQ0BdKFtDSDNdKShbQ0BASF0zW09IXSlbQ0BASF0yQyhbQ0gzXSkoW0NIM10pW0NASF0oXEMxW0NAQF0zNFtPSF0pW0NIMl1bQ0BASF0oW0NIM10pW0NASF00W09IXQ==

>  <s_epik_cmdline>  (179) 
J2VwaWtfcHl0aG9uJywgJy1waHQnLCAnMi4wJywgJy1waCcsICc3LjAnLCAnLXRuJywgJzgnLCAnLW1hJywgJzIwMCcsICctaW1hZScsICc8aW5maWxlLm1hZT4nLCAnLW9tYWUnLCAnPG91dGZpbGUubWFlPic=

>  <r_lp_tautomer_probability>  (179) 
1

>  <r_epik_Ionization_Penalty>  (179) 
8.64734e-07

>  <r_epik_Ionization_Penalty_Charging>  (179) 
0

>  <r_epik_Ionization_Penalty_Neutral>  (179) 
8.64734e-07

>  <r_epik_State_Penalty>  (179) 
-0

>  <r_epik_Charging_Adjusted_Penalty>  (179) 
0

>  <i_epik_Tot_Q>  (179) 
0

>  <i_epik_Tot_abs_Q>  (179) 
0

>  <s_lp_Force_Field>  (179) 
OPLS3e

>  <r_lp_Energy>  (179) 
113.526

>  <b_lp_Chiralities_Consistent>  (179) 
1

>  <s_lp_Variant>  (179) 
61:0-1

>  <s_i_glide_gridfile>  (179) 
pfpi4k_grid

>  <i_i_glide_lignum>  (179) 
1

>  <i_i_glide_rotatable_bonds>  (179) 
4

>  <r_i_docking_score>  (179) 
-3.10236

>  <r_i_glide_ligand_efficiency>  (179) 
-0.124094

>  <r_i_glide_ligand_efficiency_sa>  (179) 
-0.362854

>  <r_i_glide_ligand_efficiency_ln>  (179) 
-0.735352

>  <r_i_glide_gscore>  (179) 
-3.10236

>  <r_i_glide_lipo>  (179) 
-0.246632

>  <r_i_glide_hbond>  (179) 
0

>  <r_i_glide_metal>  (179) 
-0

>  <r_i_glide_rewards>  (179) 
-1.03312

>  <r_i_glide_evdw>  (179) 
-16.5279

>  <r_i_glide_ecoul>  (179) 
-6.64144

>  <r_i_glide_erotb>  (179) 
0

>  <r_i_glide_esite>  (179) 
0

>  <r_i_glide_emodel>  (179) 
-27.1869

>  <r_i_glide_energy>  (179) 
-23.1693

>  <r_i_glide_einternal>  (179) 
0.471781

>  <r_i_glide_intrahb_reward>  (179) 
-0

>  <i_i_glide_confnum>  (179) 
2

>  <i_i_glide_posenum>  (179) 
6

>  <r_i_glide_eff_state_penalty>  (179) 
0

>  <ligand_id>  (179) 
61

>  <original_smiles>  (179) 
C=C1CC=C2C3CC(C)C(O)C2(O)C(O)C2(C)C1CC(O)C2C3(C)C

>  <smiles>  (179) 
[H]OC1([H])C2(O[H])C3=C([H])C([H])([H])C(=C([H])[H])C4([H])C([H])([H])C([H])(O[H])C([H])(C(C([H])([H])[H])(C([H])([H])[H])C3([H])C([H])([H])C1([H])C([H])([H])[H])C4(C([H])([H])[H])C2([H])O[H]

$$$$
61:1:0
     RDKit          3D

 57 60  0  0  1  0  0  0  0  0999 V2000
    3.0357   -2.8676   -1.3553 C   0  0  0  0  0  0  0  0  0  0  0  0
    3.0192   -3.1299   -0.0359 C   0  0  0  0  0  0  0  0  0  0  0  0
    2.7269   -4.5566    0.4422 C   0  0  0  0  0  0  0  0  0  0  0  0
    3.8926   -5.2779    1.1141 C   0  0  0  0  0  0  0  0  0  0  0  0
    4.9879   -4.6203    1.5420 C   0  0  0  0  0  0  0  0  0  0  0  0
    5.4201   -4.4514    2.9758 C   0  0  2  0  0  0  0  0  0  0  0  0
    6.3603   -5.6185    3.3232 C   0  0  0  0  0  0  0  0  0  0  0  0
    7.3642   -5.8420    2.1280 C   0  0  1  0  0  0  0  0  0  0  0  0
    7.0735   -7.1704    1.4041 C   0  0  0  0  0  0  0  0  0  0  0  0
    7.4483   -4.6095    1.1411 C   0  0  1  0  0  0  0  0  0  0  0  0
    8.3760   -4.8543    0.1046 O   0  0  0  0  0  0  0  0  0  0  0  0
    6.0473   -4.0003    0.6821 C   0  0  1  0  0  0  0  0  0  0  0  0
    5.8085   -4.3007   -0.6890 O   0  0  0  0  0  0  0  0  0  0  0  0
    5.8733   -2.4461    0.9535 C   0  0  1  0  0  0  0  0  0  0  0  0
    6.1127   -1.7428   -0.2605 O   0  0  0  0  0  0  0  0  0  0  0  0
    4.5653   -1.8727    1.7287 C   0  0  1  0  0  0  0  0  0  0  0  0
    4.9002   -0.3426    1.8083 C   0  0  0  0  0  0  0  0  0  0  0  0
    3.1913   -1.9867    0.9812 C   0  0  2  0  0  0  0  0  0  0  0  0
    2.0708   -1.8843    2.0517 C   0  0  0  0  0  0  0  0  0  0  0  0
    2.7582   -1.6817    3.4056 C   0  0  1  0  0  0  0  0  0  0  0  0
    1.9679   -2.0887    4.4979 O   0  0  0  0  0  0  0  0  0  0  0  0
    4.1856   -2.2849    3.2531 C   0  0  1  0  0  0  0  0  0  0  0  0
    4.3889   -3.7626    3.8603 C   0  0  0  0  0  0  0  0  0  0  0  0
    3.1412   -4.6690    4.0221 C   0  0  0  0  0  0  0  0  0  0  0  0
    4.9779   -3.6089    5.2852 C   0  0  0  0  0  0  0  0  0  0  0  0
    3.1863   -1.8613   -1.7288 H   0  0  0  0  0  0  0  0  0  0  0  0
    2.8851   -3.6508   -2.0878 H   0  0  0  0  0  0  0  0  0  0  0  0
    1.8688   -4.5608    1.1044 H   0  0  0  0  0  0  0  0  0  0  0  0
    2.4019   -5.1537   -0.4123 H   0  0  0  0  0  0  0  0  0  0  0  0
    4.1719   -5.8319    0.2325 H   0  0  0  0  0  0  0  0  0  0  0  0
    6.1588   -3.6621    3.0357 H   0  0  0  0  0  0  0  0  0  0  0  0
    6.9285   -5.3970    4.2306 H   0  0  0  0  0  0  0  0  0  0  0  0
    5.7917   -6.5243    3.5382 H   0  0  0  0  0  0  0  0  0  0  0  0
    8.3590   -5.9721    2.5552 H   0  0  0  0  0  0  0  0  0  0  0  0
    6.1149   -7.1521    0.8808 H   0  0  0  0  0  0  0  0  0  0  0  0
    7.0590   -8.0120    2.0990 H   0  0  0  0  0  0  0  0  0  0  0  0
    7.8512   -7.3911    0.6748 H   0  0  0  0  0  0  0  0  0  0  0  0
    7.9701   -3.8292    1.6813 H   0  0  0  0  0  0  0  0  0  0  0  0
    8.1032   -5.6465   -0.3405 H   0  0  0  0  0  0  0  0  0  0  0  0
    4.8835   -4.1644   -0.8679 H   0  0  0  0  0  0  0  0  0  0  0  0
    6.7117   -2.1356    1.5756 H   0  0  0  0  0  0  0  0  0  0  0  0
    5.3920   -1.9310   -0.8481 H   0  0  0  0  0  0  0  0  0  0  0  0
    4.1262    0.2692    2.2613 H   0  0  0  0  0  0  0  0  0  0  0  0
    5.0386    0.1103    0.8260 H   0  0  0  0  0  0  0  0  0  0  0  0
    5.8169   -0.1795    2.3770 H   0  0  0  0  0  0  0  0  0  0  0  0
    3.0877   -1.0861    0.3729 H   0  0  0  0  0  0  0  0  0  0  0  0
    1.4112   -1.0438    1.8278 H   0  0  0  0  0  0  0  0  0  0  0  0
    1.4211   -2.7545    2.0776 H   0  0  0  0  0  0  0  0  0  0  0  0
    2.8404   -0.6094    3.5812 H   0  0  0  0  0  0  0  0  0  0  0  0
    1.8443   -3.0256    4.4348 H   0  0  0  0  0  0  0  0  0  0  0  0
    4.8328   -1.6640    3.8781 H   0  0  0  0  0  0  0  0  0  0  0  0
    2.6207   -4.4942    4.9651 H   0  0  0  0  0  0  0  0  0  0  0  0
    3.4229   -5.7213    4.0386 H   0  0  0  0  0  0  0  0  0  0  0  0
    2.4167   -4.5417    3.2250 H   0  0  0  0  0  0  0  0  0  0  0  0
    4.2955   -3.0476    5.9278 H   0  0  0  0  0  0  0  0  0  0  0  0
    5.9290   -3.0733    5.2797 H   0  0  0  0  0  0  0  0  0  0  0  0
    5.1513   -4.5773    5.7593 H   0  0  0  0  0  0  0  0  0  0  0  0
  1  2  2  0
  1 26  1  0
  1 27  1  0
  2 18  1  0
  2  3  1  0
  3  4  1  0
  3 28  1  0
  3 29  1  0
  4  5  2  3
  4 30  1  0
  5 12  1  0
  5  6  1  0
  6 23  1  0
  6  7  1  0
  6 31  1  6
  7  8  1  0
  7 32  1  0
  7 33  1  0
  8  9  1  0
  8 10  1  0
  8 34  1  1
  9 35  1  0
  9 36  1  0
  9 37  1  0
 10 11  1  0
 10 12  1  0
 10 38  1  1
 11 39  1  0
 12 13  1  6
 12 14  1  0
 13 40  1  0
 14 15  1  0
 14 16  1  0
 14 41  1  1
 15 42  1  0
 16 22  1  0
 16 17  1  1
 16 18  1  0
 17 43  1  0
 17 44  1  0
 17 45  1  0
 18 19  1  0
 18 46  1  6
 19 20  1  0
 19 47  1  0
 19 48  1  0
 20 21  1  0
 20 22  1  0
 20 49  1  1
 21 50  1  0
 22 23  1  0
 22 51  1  1
 23 24  1  0
 23 25  1  0
 24 52  1  0
 24 53  1  0
 24 54  1  0
 25 55  1  0
 25 56  1  0
 25 57  1  0
M  END
>  <i_m_ct_stereo_status>  (180) 
1

>  <s_m_source_file>  (180) 
/var/tmp/pbs.5076255.sched01/tmph8v5ro6p/78zitxkb1g.sdf

>  <i_m_source_file_index>  (180) 
2

>  <i_lp_mmshare_version>  (180) 
48012

>  <i_f3d_flags>  (180) 
0

>  <s_epik_input>  (180) 
W0NIXT0xXFtDSDJdQyg9W0NIMl0pW0NAQEhdKFtDSDJdW0NASF0yW09IXSlbQ0BdKFtDSDNdKShbQ0BASF0zW09IXSlbQ0BASF0yQyhbQ0gzXSkoW0NIM10pW0NASF0oXEMxW0NAQF0zNFtPSF0pW0NIMl1bQ0BASF0oW0NIM10pW0NASF00W09IXQ==

>  <s_epik_cmdline>  (180) 
J2VwaWtfcHl0aG9uJywgJy1waHQnLCAnMi4wJywgJy1waCcsICc3LjAnLCAnLXRuJywgJzgnLCAnLW1hJywgJzIwMCcsICctaW1hZScsICc8aW5maWxlLm1hZT4nLCAnLW9tYWUnLCAnPG91dGZpbGUubWFlPic=

>  <r_lp_tautomer_probability>  (180) 
1

>  <r_epik_Ionization_Penalty>  (180) 
8.64734e-07

>  <r_epik_Ionization_Penalty_Charging>  (180) 
0

>  <r_epik_Ionization_Penalty_Neutral>  (180) 
8.64734e-07

>  <r_epik_State_Penalty>  (180) 
-0

>  <r_epik_Charging_Adjusted_Penalty>  (180) 
0

>  <i_epik_Tot_Q>  (180) 
0

>  <i_epik_Tot_abs_Q>  (180) 
0

>  <s_lp_Force_Field>  (180) 
OPLS3e

>  <r_lp_Energy>  (180) 
145.694

>  <b_lp_Chiralities_Consistent>  (180) 
1

>  <s_lp_Variant>  (180) 
61:0-2

>  <s_i_glide_gridfile>  (180) 
pfpi4k_grid

>  <i_i_glide_lignum>  (180) 
2

>  <i_i_glide_rotatable_bonds>  (180) 
4

>  <r_i_docking_score>  (180) 
-3.30694

>  <r_i_glide_ligand_efficiency>  (180) 
-0.132277

>  <r_i_glide_ligand_efficiency_sa>  (180) 
-0.386782

>  <r_i_glide_ligand_efficiency_ln>  (180) 
-0.783843

>  <r_i_glide_gscore>  (180) 
-3.30694

>  <r_i_glide_lipo>  (180) 
-0.685498

>  <r_i_glide_hbond>  (180) 
0

>  <r_i_glide_metal>  (180) 
-0

>  <r_i_glide_rewards>  (180) 
-1.03312

>  <r_i_glide_evdw>  (180) 
-22.1497

>  <r_i_glide_ecoul>  (180) 
-3.20558

>  <r_i_glide_erotb>  (180) 
0

>  <r_i_glide_esite>  (180) 
0

>  <r_i_glide_emodel>  (180) 
-30.4148

>  <r_i_glide_energy>  (180) 
-25.3553

>  <r_i_glide_einternal>  (180) 
0.382946

>  <r_i_glide_intrahb_reward>  (180) 
-0

>  <i_i_glide_confnum>  (180) 
1

>  <i_i_glide_posenum>  (180) 
13

>  <r_i_glide_eff_state_penalty>  (180) 
0

>  <ligand_id>  (180) 
61

>  <original_smiles>  (180) 
C=C1CC=C2C3CC(C)C(O)C2(O)C(O)C2(C)C1CC(O)C2C3(C)C

>  <smiles>  (180) 
[H]OC1([H])C2(O[H])C3=C([H])C([H])([H])C(=C([H])[H])C4([H])C([H])([H])C([H])(O[H])C([H])(C(C([H])([H])[H])(C([H])([H])[H])C3([H])C([H])([H])C1([H])C([H])([H])[H])C4(C([H])([H])[H])C2([H])O[H]

$$$$
61:1:1
     RDKit          3D

 57 60  0  0  1  0  0  0  0  0999 V2000
    4.8332   -3.6403   -2.5968 C   0  0  0  0  0  0  0  0  0  0  0  0
    4.2386   -3.1182   -1.5132 C   0  0  0  0  0  0  0  0  0  0  0  0
    2.8204   -3.5556   -1.1103 C   0  0  0  0  0  0  0  0  0  0  0  0
    2.7143   -4.3214    0.2103 C   0  0  0  0  0  0  0  0  0  0  0  0
    3.7098   -4.3423    1.1204 C   0  0  0  0  0  0  0  0  0  0  0  0
    3.6850   -3.7376    2.5006 C   0  0  2  0  0  0  0  0  0  0  0  0
    3.2035   -4.8202    3.4792 C   0  0  0  0  0  0  0  0  0  0  0  0
    3.9243   -6.1782    3.1343 C   0  0  1  0  0  0  0  0  0  0  0  0
    2.9423   -7.2120    2.5440 C   0  0  0  0  0  0  0  0  0  0  0  0
    5.2100   -5.9764    2.2433 C   0  0  1  0  0  0  0  0  0  0  0  0
    5.8323   -7.2125    1.9488 O   0  0  0  0  0  0  0  0  0  0  0  0
    5.0226   -5.0359    0.9728 C   0  0  1  0  0  0  0  0  0  0  0  0
    5.0213   -5.8324   -0.2097 O   0  0  0  0  0  0  0  0  0  0  0  0
    6.0548   -3.8304    0.8938 C   0  0  1  0  0  0  0  0  0  0  0  0
    7.0897   -4.1831   -0.0025 O   0  0  0  0  0  0  0  0  0  0  0  0
    5.5543   -2.3117    0.6530 C   0  0  1  0  0  0  0  0  0  0  0  0
    6.8935   -1.5063    0.6843 C   0  0  0  0  0  0  0  0  0  0  0  0
    4.9304   -1.9868   -0.7423 C   0  0  2  0  0  0  0  0  0  0  0  0
    4.0784   -0.7213   -0.5690 C   0  0  0  0  0  0  0  0  0  0  0  0
    4.2015   -0.2690    0.8883 C   0  0  1  0  0  0  0  0  0  0  0  0
    3.1140    0.5167    1.3284 O   0  0  0  0  0  0  0  0  0  0  0  0
    4.5844   -1.5412    1.6976 C   0  0  1  0  0  0  0  0  0  0  0  0
    3.3836   -2.2435    2.5045 C   0  0  0  0  0  0  0  0  0  0  0  0
    1.9361   -1.9897    2.0282 C   0  0  0  0  0  0  0  0  0  0  0  0
    3.4194   -1.7316    3.9631 C   0  0  0  0  0  0  0  0  0  0  0  0
    5.8187   -3.3256   -2.9207 H   0  0  0  0  0  0  0  0  0  0  0  0
    4.3527   -4.4150   -3.1792 H   0  0  0  0  0  0  0  0  0  0  0  0
    2.1556   -2.7017   -1.0943 H   0  0  0  0  0  0  0  0  0  0  0  0
    2.3914   -4.1761   -1.8993 H   0  0  0  0  0  0  0  0  0  0  0  0
    2.6823   -5.2935   -0.2577 H   0  0  0  0  0  0  0  0  0  0  0  0
    4.6924   -3.6444    2.8987 H   0  0  0  0  0  0  0  0  0  0  0  0
    3.4400   -4.5336    4.5043 H   0  0  0  0  0  0  0  0  0  0  0  0
    2.1186   -4.9284    3.4319 H   0  0  0  0  0  0  0  0  0  0  0  0
    4.2537   -6.6136    4.0779 H   0  0  0  0  0  0  0  0  0  0  0  0
    2.5781   -6.9281    1.5567 H   0  0  0  0  0  0  0  0  0  0  0  0
    2.0792   -7.3575    3.1953 H   0  0  0  0  0  0  0  0  0  0  0  0
    3.4210   -8.1865    2.4453 H   0  0  0  0  0  0  0  0  0  0  0  0
    5.9293   -5.5002    2.9095 H   0  0  0  0  0  0  0  0  0  0  0  0
    6.0202   -7.6542    2.7610 H   0  0  0  0  0  0  0  0  0  0  0  0
    4.4715   -5.4280   -0.8644 H   0  0  0  0  0  0  0  0  0  0  0  0
    6.5816   -3.7925    1.8457 H   0  0  0  0  0  0  0  0  0  0  0  0
    6.6916   -4.3059   -0.8503 H   0  0  0  0  0  0  0  0  0  0  0  0
    6.7964   -0.4459    0.4804 H   0  0  0  0  0  0  0  0  0  0  0  0
    7.6181   -1.8416   -0.0569 H   0  0  0  0  0  0  0  0  0  0  0  0
    7.3567   -1.5907    1.6647 H   0  0  0  0  0  0  0  0  0  0  0  0
    5.7475   -1.6948   -1.4076 H   0  0  0  0  0  0  0  0  0  0  0  0
    4.4374    0.0484   -1.2473 H   0  0  0  0  0  0  0  0  0  0  0  0
    3.0384   -0.8777   -0.8322 H   0  0  0  0  0  0  0  0  0  0  0  0
    5.0179    0.4447    0.9467 H   0  0  0  0  0  0  0  0  0  0  0  0
    2.3142    0.0957    1.0467 H   0  0  0  0  0  0  0  0  0  0  0  0
    5.2517   -1.1963    2.4890 H   0  0  0  0  0  0  0  0  0  0  0  0
    1.5108   -1.0703    2.4285 H   0  0  0  0  0  0  0  0  0  0  0  0
    1.2768   -2.7878    2.3670 H   0  0  0  0  0  0  0  0  0  0  0  0
    1.8570   -1.9290    0.9479 H   0  0  0  0  0  0  0  0  0  0  0  0
    3.2824   -0.6487    3.9910 H   0  0  0  0  0  0  0  0  0  0  0  0
    4.3684   -1.9561    4.4525 H   0  0  0  0  0  0  0  0  0  0  0  0
    2.6242   -2.1785    4.5635 H   0  0  0  0  0  0  0  0  0  0  0  0
  1  2  2  0
  1 26  1  0
  1 27  1  0
  2 18  1  0
  2  3  1  0
  3  4  1  0
  3 28  1  0
  3 29  1  0
  4  5  2  3
  4 30  1  0
  5 12  1  0
  5  6  1  0
  6 23  1  0
  6  7  1  0
  6 31  1  1
  7  8  1  0
  7 32  1  0
  7 33  1  0
  8  9  1  0
  8 10  1  0
  8 34  1  1
  9 35  1  0
  9 36  1  0
  9 37  1  0
 10 11  1  0
 10 12  1  0
 10 38  1  1
 11 39  1  0
 12 13  1  6
 12 14  1  0
 13 40  1  0
 14 15  1  0
 14 16  1  0
 14 41  1  1
 15 42  1  0
 16 22  1  0
 16 17  1  6
 16 18  1  0
 17 43  1  0
 17 44  1  0
 17 45  1  0
 18 19  1  0
 18 46  1  6
 19 20  1  0
 19 47  1  0
 19 48  1  0
 20 21  1  0
 20 22  1  0
 20 49  1  6
 21 50  1  0
 22 23  1  0
 22 51  1  1
 23 24  1  0
 23 25  1  0
 24 52  1  0
 24 53  1  0
 24 54  1  0
 25 55  1  0
 25 56  1  0
 25 57  1  0
M  END
>  <i_m_ct_stereo_status>  (181) 
1

>  <s_m_source_file>  (181) 
/var/tmp/pbs.5076255.sched01/tmph8v5ro6p/78zitxkb1g.sdf

>  <i_m_source_file_index>  (181) 
2

>  <i_lp_mmshare_version>  (181) 
48012

>  <i_f3d_flags>  (181) 
0

>  <s_epik_input>  (181) 
W0NIXT0xXFtDSDJdQyg9W0NIMl0pW0NAQEhdKFtDSDJdW0NASF0yW09IXSlbQ0BdKFtDSDNdKShbQ0BASF0zW09IXSlbQ0BASF0yQyhbQ0gzXSkoW0NIM10pW0NASF0oXEMxW0NAQF0zNFtPSF0pW0NIMl1bQ0BASF0oW0NIM10pW0NASF00W09IXQ==

>  <s_epik_cmdline>  (181) 
J2VwaWtfcHl0aG9uJywgJy1waHQnLCAnMi4wJywgJy1waCcsICc3LjAnLCAnLXRuJywgJzgnLCAnLW1hJywgJzIwMCcsICctaW1hZScsICc8aW5maWxlLm1hZT4nLCAnLW9tYWUnLCAnPG91dGZpbGUubWFlPic=

>  <r_lp_tautomer_probability>  (181) 
1

>  <r_epik_Ionization_Penalty>  (181) 
8.64734e-07

>  <r_epik_Ionization_Penalty_Charging>  (181) 
0

>  <r_epik_Ionization_Penalty_Neutral>  (181) 
8.64734e-07

>  <r_epik_State_Penalty>  (181) 
-0

>  <r_epik_Charging_Adjusted_Penalty>  (181) 
0

>  <i_epik_Tot_Q>  (181) 
0

>  <i_epik_Tot_abs_Q>  (181) 
0

>  <s_lp_Force_Field>  (181) 
OPLS3e

>  <r_lp_Energy>  (181) 
145.694

>  <b_lp_Chiralities_Consistent>  (181) 
1

>  <s_lp_Variant>  (181) 
61:0-2

>  <s_i_glide_gridfile>  (181) 
pfpi4k_grid

>  <i_i_glide_lignum>  (181) 
2

>  <i_i_glide_rotatable_bonds>  (181) 
4

>  <r_i_docking_score>  (181) 
-3.06682

>  <r_i_glide_ligand_efficiency>  (181) 
-0.122673

>  <r_i_glide_ligand_efficiency_sa>  (181) 
-0.358697

>  <r_i_glide_ligand_efficiency_ln>  (181) 
-0.726927

>  <r_i_glide_gscore>  (181) 
-3.06682

>  <r_i_glide_lipo>  (181) 
-0.415703

>  <r_i_glide_hbond>  (181) 
0

>  <r_i_glide_metal>  (181) 
-0

>  <r_i_glide_rewards>  (181) 
-1.03312

>  <r_i_glide_evdw>  (181) 
-20.5489

>  <r_i_glide_ecoul>  (181) 
-3.93702

>  <r_i_glide_erotb>  (181) 
0

>  <r_i_glide_esite>  (181) 
0

>  <r_i_glide_emodel>  (181) 
-28.6689

>  <r_i_glide_energy>  (181) 
-24.4859

>  <r_i_glide_einternal>  (181) 
1.02878

>  <r_i_glide_intrahb_reward>  (181) 
-0

>  <i_i_glide_confnum>  (181) 
1

>  <i_i_glide_posenum>  (181) 
26

>  <r_i_glide_eff_state_penalty>  (181) 
0

>  <ligand_id>  (181) 
61

>  <original_smiles>  (181) 
C=C1CC=C2C3CC(C)C(O)C2(O)C(O)C2(C)C1CC(O)C2C3(C)C

>  <smiles>  (181) 
[H]OC1([H])C2(O[H])C3=C([H])C([H])([H])C(=C([H])[H])C4([H])C([H])([H])C([H])(O[H])C([H])(C(C([H])([H])[H])(C([H])([H])[H])C3([H])C([H])([H])C1([H])C([H])([H])[H])C4(C([H])([H])[H])C2([H])O[H]

$$$$
61:1:2
     RDKit          3D

 57 60  0  0  1  0  0  0  0  0999 V2000
    4.8316   -3.6455   -2.5992 C   0  0  0  0  0  0  0  0  0  0  0  0
    4.2372   -3.1271   -1.5141 C   0  0  0  0  0  0  0  0  0  0  0  0
    2.8166   -3.5579   -1.1118 C   0  0  0  0  0  0  0  0  0  0  0  0
    2.7110   -4.3279    0.2059 C   0  0  0  0  0  0  0  0  0  0  0  0
    3.7050   -4.3517    1.1186 C   0  0  0  0  0  0  0  0  0  0  0  0
    3.6844   -3.7420    2.4991 C   0  0  2  0  0  0  0  0  0  0  0  0
    3.2034   -4.8277    3.4740 C   0  0  0  0  0  0  0  0  0  0  0  0
    3.9244   -6.1875    3.1306 C   0  0  1  0  0  0  0  0  0  0  0  0
    2.9394   -7.2184    2.5347 C   0  0  0  0  0  0  0  0  0  0  0  0
    5.2102   -5.9795    2.2482 C   0  0  1  0  0  0  0  0  0  0  0  0
    5.8355   -7.2124    1.9541 O   0  0  0  0  0  0  0  0  0  0  0  0
    5.0201   -5.0436    0.9827 C   0  0  1  0  0  0  0  0  0  0  0  0
    5.0291   -5.8640   -0.1796 O   0  0  0  0  0  0  0  0  0  0  0  0
    6.0489   -3.8400    0.8955 C   0  0  1  0  0  0  0  0  0  0  0  0
    7.0966   -4.2150    0.0247 O   0  0  0  0  0  0  0  0  0  0  0  0
    5.5570   -2.3211    0.6564 C   0  0  1  0  0  0  0  0  0  0  0  0
    6.8981   -1.5174    0.6965 C   0  0  0  0  0  0  0  0  0  0  0  0
    4.9316   -1.9988   -0.7388 C   0  0  2  0  0  0  0  0  0  0  0  0
    4.0813   -0.7313   -0.5694 C   0  0  0  0  0  0  0  0  0  0  0  0
    4.2057   -0.2780    0.8874 C   0  0  1  0  0  0  0  0  0  0  0  0
    3.1221    0.5073    1.3295 O   0  0  0  0  0  0  0  0  0  0  0  0
    4.5861   -1.5486    1.6985 C   0  0  1  0  0  0  0  0  0  0  0  0
    3.3850   -2.2493    2.5050 C   0  0  0  0  0  0  0  0  0  0  0  0
    1.9377   -1.9947    2.0297 C   0  0  0  0  0  0  0  0  0  0  0  0
    3.4224   -1.7406    3.9639 C   0  0  0  0  0  0  0  0  0  0  0  0
    5.8221   -3.3329   -2.9111 H   0  0  0  0  0  0  0  0  0  0  0  0
    4.3502   -4.4145   -3.1887 H   0  0  0  0  0  0  0  0  0  0  0  0
    2.1574   -2.6991   -1.0908 H   0  0  0  0  0  0  0  0  0  0  0  0
    2.3827   -4.1736   -1.9028 H   0  0  0  0  0  0  0  0  0  0  0  0
    2.6938   -5.2968   -0.2674 H   0  0  0  0  0  0  0  0  0  0  0  0
    4.6913   -3.6473    2.8988 H   0  0  0  0  0  0  0  0  0  0  0  0
    3.4397   -4.5450    4.5013 H   0  0  0  0  0  0  0  0  0  0  0  0
    2.1183   -4.9347    3.4215 H   0  0  0  0  0  0  0  0  0  0  0  0
    4.2594   -6.6284    4.0666 H   0  0  0  0  0  0  0  0  0  0  0  0
    2.5709   -6.9384    1.5474 H   0  0  0  0  0  0  0  0  0  0  0  0
    2.0783   -7.3612    3.1913 H   0  0  0  0  0  0  0  0  0  0  0  0
    3.4160   -8.1947    2.4452 H   0  0  0  0  0  0  0  0  0  0  0  0
    5.9280   -5.5027    2.9146 H   0  0  0  0  0  0  0  0  0  0  0  0
    5.2394   -7.7081    1.4068 H   0  0  0  0  0  0  0  0  0  0  0  0
    4.5767   -5.4107   -0.8789 H   0  0  0  0  0  0  0  0  0  0  0  0
    6.5695   -3.7980    1.8504 H   0  0  0  0  0  0  0  0  0  0  0  0
    7.3593   -5.0980    0.2489 H   0  0  0  0  0  0  0  0  0  0  0  0
    6.7902   -0.4607    0.4703 H   0  0  0  0  0  0  0  0  0  0  0  0
    7.6200   -1.8690   -0.0404 H   0  0  0  0  0  0  0  0  0  0  0  0
    7.3797   -1.5904    1.6727 H   0  0  0  0  0  0  0  0  0  0  0  0
    5.7507   -1.7107   -1.4039 H   0  0  0  0  0  0  0  0  0  0  0  0
    4.4433    0.0338   -1.2507 H   0  0  0  0  0  0  0  0  0  0  0  0
    3.0407   -0.8873   -0.8295 H   0  0  0  0  0  0  0  0  0  0  0  0
    5.0231    0.4374    0.9459 H   0  0  0  0  0  0  0  0  0  0  0  0
    2.3201    0.0660    1.0694 H   0  0  0  0  0  0  0  0  0  0  0  0
    5.2532   -1.2069    2.4923 H   0  0  0  0  0  0  0  0  0  0  0  0
    1.5150   -1.0746    2.4303 H   0  0  0  0  0  0  0  0  0  0  0  0
    1.2810   -2.7936    2.3724 H   0  0  0  0  0  0  0  0  0  0  0  0
    1.8590   -1.9371    0.9495 H   0  0  0  0  0  0  0  0  0  0  0  0
    3.2866   -0.6577    3.9903 H   0  0  0  0  0  0  0  0  0  0  0  0
    4.3730   -1.9683    4.4500 H   0  0  0  0  0  0  0  0  0  0  0  0
    2.6266   -2.1900    4.5621 H   0  0  0  0  0  0  0  0  0  0  0  0
  1  2  2  0
  1 26  1  0
  1 27  1  0
  2 18  1  0
  2  3  1  0
  3  4  1  0
  3 28  1  0
  3 29  1  0
  4  5  2  3
  4 30  1  0
  5 12  1  0
  5  6  1  0
  6 23  1  0
  6  7  1  0
  6 31  1  1
  7  8  1  0
  7 32  1  0
  7 33  1  0
  8  9  1  0
  8 10  1  0
  8 34  1  1
  9 35  1  0
  9 36  1  0
  9 37  1  0
 10 11  1  0
 10 12  1  0
 10 38  1  1
 11 39  1  0
 12 13  1  6
 12 14  1  0
 13 40  1  0
 14 15  1  0
 14 16  1  0
 14 41  1  1
 15 42  1  0
 16 22  1  0
 16 17  1  6
 16 18  1  0
 17 43  1  0
 17 44  1  0
 17 45  1  0
 18 19  1  0
 18 46  1  6
 19 20  1  0
 19 47  1  0
 19 48  1  0
 20 21  1  0
 20 22  1  0
 20 49  1  6
 21 50  1  0
 22 23  1  0
 22 51  1  1
 23 24  1  0
 23 25  1  0
 24 52  1  0
 24 53  1  0
 24 54  1  0
 25 55  1  0
 25 56  1  0
 25 57  1  0
M  END
>  <i_m_ct_stereo_status>  (182) 
1

>  <s_m_source_file>  (182) 
/var/tmp/pbs.5076255.sched01/tmph8v5ro6p/78zitxkb1g.sdf

>  <i_m_source_file_index>  (182) 
2

>  <i_lp_mmshare_version>  (182) 
48012

>  <i_f3d_flags>  (182) 
0

>  <s_epik_input>  (182) 
W0NIXT0xXFtDSDJdQyg9W0NIMl0pW0NAQEhdKFtDSDJdW0NASF0yW09IXSlbQ0BdKFtDSDNdKShbQ0BASF0zW09IXSlbQ0BASF0yQyhbQ0gzXSkoW0NIM10pW0NASF0oXEMxW0NAQF0zNFtPSF0pW0NIMl1bQ0BASF0oW0NIM10pW0NASF00W09IXQ==

>  <s_epik_cmdline>  (182) 
J2VwaWtfcHl0aG9uJywgJy1waHQnLCAnMi4wJywgJy1waCcsICc3LjAnLCAnLXRuJywgJzgnLCAnLW1hJywgJzIwMCcsICctaW1hZScsICc8aW5maWxlLm1hZT4nLCAnLW9tYWUnLCAnPG91dGZpbGUubWFlPic=

>  <r_lp_tautomer_probability>  (182) 
1

>  <r_epik_Ionization_Penalty>  (182) 
8.64734e-07

>  <r_epik_Ionization_Penalty_Charging>  (182) 
0

>  <r_epik_Ionization_Penalty_Neutral>  (182) 
8.64734e-07

>  <r_epik_State_Penalty>  (182) 
-0

>  <r_epik_Charging_Adjusted_Penalty>  (182) 
0

>  <i_epik_Tot_Q>  (182) 
0

>  <i_epik_Tot_abs_Q>  (182) 
0

>  <s_lp_Force_Field>  (182) 
OPLS3e

>  <r_lp_Energy>  (182) 
145.694

>  <b_lp_Chiralities_Consistent>  (182) 
1

>  <s_lp_Variant>  (182) 
61:0-2

>  <s_i_glide_gridfile>  (182) 
pfpi4k_grid

>  <i_i_glide_lignum>  (182) 
2

>  <i_i_glide_rotatable_bonds>  (182) 
4

>  <r_i_docking_score>  (182) 
-3.0144

>  <r_i_glide_ligand_efficiency>  (182) 
-0.120576

>  <r_i_glide_ligand_efficiency_sa>  (182) 
-0.352567

>  <r_i_glide_ligand_efficiency_ln>  (182) 
-0.714504

>  <r_i_glide_gscore>  (182) 
-3.0144

>  <r_i_glide_lipo>  (182) 
-0.413721

>  <r_i_glide_hbond>  (182) 
0

>  <r_i_glide_metal>  (182) 
-0

>  <r_i_glide_rewards>  (182) 
-1.03312

>  <r_i_glide_evdw>  (182) 
-20.6308

>  <r_i_glide_ecoul>  (182) 
-3.5735

>  <r_i_glide_erotb>  (182) 
0

>  <r_i_glide_esite>  (182) 
0

>  <r_i_glide_emodel>  (182) 
-28.3132

>  <r_i_glide_energy>  (182) 
-24.2043

>  <r_i_glide_einternal>  (182) 
0.950221

>  <r_i_glide_intrahb_reward>  (182) 
-0

>  <i_i_glide_confnum>  (182) 
1

>  <i_i_glide_posenum>  (182) 
31

>  <r_i_glide_eff_state_penalty>  (182) 
0

>  <ligand_id>  (182) 
61

>  <original_smiles>  (182) 
C=C1CC=C2C3CC(C)C(O)C2(O)C(O)C2(C)C1CC(O)C2C3(C)C

>  <smiles>  (182) 
[H]OC1([H])C2(O[H])C3=C([H])C([H])([H])C(=C([H])[H])C4([H])C([H])([H])C([H])(O[H])C([H])(C(C([H])([H])[H])(C([H])([H])[H])C3([H])C([H])([H])C1([H])C([H])([H])[H])C4(C([H])([H])[H])C2([H])O[H]

$$$$
61:2:0
     RDKit          3D

 57 60  0  0  1  0  0  0  0  0999 V2000
    3.8978   -8.6353    1.3364 C   0  0  0  0  0  0  0  0  0  0  0  0
    4.2735   -7.5894    2.0963 C   0  0  0  0  0  0  0  0  0  0  0  0
    5.7470   -7.1512    2.0782 C   0  0  0  0  0  0  0  0  0  0  0  0
    5.9747   -5.6483    2.0883 C   0  0  0  0  0  0  0  0  0  0  0  0
    5.2176   -4.6813    1.5333 C   0  0  0  0  0  0  0  0  0  0  0  0
    5.2184   -3.2926    2.1512 C   0  0  1  0  0  0  0  0  0  0  0  0
    5.2873   -2.1875    1.0732 C   0  0  0  0  0  0  0  0  0  0  0  0
    4.2162   -2.3301   -0.0291 C   0  0  1  0  0  0  0  0  0  0  0  0
    4.3440   -1.2188   -1.0844 C   0  0  0  0  0  0  0  0  0  0  0  0
    4.2249   -3.7532   -0.6293 C   0  0  1  0  0  0  0  0  0  0  0  0
    5.4012   -3.8521   -1.4216 O   0  0  0  0  0  0  0  0  0  0  0  0
    4.1711   -4.8966    0.4476 C   0  0  1  0  0  0  0  0  0  0  0  0
    4.4624   -6.0554   -0.3202 O   0  0  0  0  0  0  0  0  0  0  0  0
    2.7780   -5.0386    1.1454 C   0  0  1  0  0  0  0  0  0  0  0  0
    1.8977   -5.8258    0.3554 O   0  0  0  0  0  0  0  0  0  0  0  0
    2.7219   -5.4579    2.6745 C   0  0  1  0  0  0  0  0  0  0  0  0
    1.2109   -5.4476    3.0611 C   0  0  0  0  0  0  0  0  0  0  0  0
    3.2432   -6.9002    3.0179 C   0  0  2  0  0  0  0  0  0  0  0  0
    3.6567   -6.8668    4.4947 C   0  0  0  0  0  0  0  0  0  0  0  0
    4.0899   -5.4315    4.8159 C   0  0  1  0  0  0  0  0  0  0  0  0
    5.4934   -5.3982    4.9457 O   0  0  0  0  0  0  0  0  0  0  0  0
    3.4379   -4.5067    3.7370 C   0  0  1  0  0  0  0  0  0  0  0  0
    4.1370   -3.1409    3.3060 C   0  0  0  0  0  0  0  0  0  0  0  0
    4.8405   -2.4767    4.5235 C   0  0  0  0  0  0  0  0  0  0  0  0
    3.0030   -2.1125    3.0111 C   0  0  0  0  0  0  0  0  0  0  0  0
    2.8779   -8.9936    1.3241 H   0  0  0  0  0  0  0  0  0  0  0  0
    4.6074   -9.1476    0.6994 H   0  0  0  0  0  0  0  0  0  0  0  0
    6.2045   -7.5534    2.9805 H   0  0  0  0  0  0  0  0  0  0  0  0
    6.2826   -7.5957    1.2410 H   0  0  0  0  0  0  0  0  0  0  0  0
    6.7049   -5.3552    2.8287 H   0  0  0  0  0  0  0  0  0  0  0  0
    6.1918   -3.2220    2.6386 H   0  0  0  0  0  0  0  0  0  0  0  0
    5.2504   -1.1982    1.5267 H   0  0  0  0  0  0  0  0  0  0  0  0
    6.2698   -2.2405    0.6028 H   0  0  0  0  0  0  0  0  0  0  0  0
    3.2359   -2.1701    0.4070 H   0  0  0  0  0  0  0  0  0  0  0  0
    5.3166   -1.2175   -1.5832 H   0  0  0  0  0  0  0  0  0  0  0  0
    4.2204   -0.2487   -0.6036 H   0  0  0  0  0  0  0  0  0  0  0  0
    3.5656   -1.3139   -1.8457 H   0  0  0  0  0  0  0  0  0  0  0  0
    3.3735   -3.8512   -1.3054 H   0  0  0  0  0  0  0  0  0  0  0  0
    5.3488   -4.6461   -1.9273 H   0  0  0  0  0  0  0  0  0  0  0  0
    3.9996   -6.0195   -1.1526 H   0  0  0  0  0  0  0  0  0  0  0  0
    2.3079   -4.0654    1.0702 H   0  0  0  0  0  0  0  0  0  0  0  0
    2.2226   -5.8108   -0.5305 H   0  0  0  0  0  0  0  0  0  0  0  0
    1.0466   -5.6926    4.1122 H   0  0  0  0  0  0  0  0  0  0  0  0
    0.6300   -6.1725    2.4866 H   0  0  0  0  0  0  0  0  0  0  0  0
    0.7691   -4.4627    2.8873 H   0  0  0  0  0  0  0  0  0  0  0  0
    2.3874   -7.5745    2.9636 H   0  0  0  0  0  0  0  0  0  0  0  0
    2.7836   -7.1036    5.1035 H   0  0  0  0  0  0  0  0  0  0  0  0
    4.4094   -7.6158    4.7419 H   0  0  0  0  0  0  0  0  0  0  0  0
    3.7086   -5.1665    5.8043 H   0  0  0  0  0  0  0  0  0  0  0  0
    5.7510   -6.0347    5.5945 H   0  0  0  0  0  0  0  0  0  0  0  0
    2.6173   -4.1122    4.3377 H   0  0  0  0  0  0  0  0  0  0  0  0
    4.2023   -2.4735    5.4078 H   0  0  0  0  0  0  0  0  0  0  0  0
    5.1034   -1.4386    4.3115 H   0  0  0  0  0  0  0  0  0  0  0  0
    5.7727   -2.9645    4.8058 H   0  0  0  0  0  0  0  0  0  0  0  0
    2.4486   -1.8787    3.9209 H   0  0  0  0  0  0  0  0  0  0  0  0
    2.2502   -2.4564    2.3130 H   0  0  0  0  0  0  0  0  0  0  0  0
    3.3763   -1.1554    2.6494 H   0  0  0  0  0  0  0  0  0  0  0  0
  1  2  2  0
  1 26  1  0
  1 27  1  0
  2 18  1  0
  2  3  1  0
  3  4  1  0
  3 28  1  0
  3 29  1  0
  4  5  2  3
  4 30  1  0
  5 12  1  0
  5  6  1  0
  6 23  1  0
  6  7  1  0
  6 31  1  1
  7  8  1  0
  7 32  1  0
  7 33  1  0
  8  9  1  0
  8 10  1  0
  8 34  1  1
  9 35  1  0
  9 36  1  0
  9 37  1  0
 10 11  1  0
 10 12  1  0
 10 38  1  6
 11 39  1  0
 12 13  1  6
 12 14  1  0
 13 40  1  0
 14 15  1  0
 14 16  1  0
 14 41  1  1
 15 42  1  0
 16 22  1  0
 16 17  1  1
 16 18  1  0
 17 43  1  0
 17 44  1  0
 17 45  1  0
 18 19  1  0
 18 46  1  1
 19 20  1  0
 19 47  1  0
 19 48  1  0
 20 21  1  0
 20 22  1  0
 20 49  1  1
 21 50  1  0
 22 23  1  0
 22 51  1  1
 23 24  1  0
 23 25  1  0
 24 52  1  0
 24 53  1  0
 24 54  1  0
 25 55  1  0
 25 56  1  0
 25 57  1  0
M  END
>  <i_m_ct_stereo_status>  (183) 
1

>  <s_m_source_file>  (183) 
/var/tmp/pbs.5076255.sched01/tmph8v5ro6p/78zitxkb1g.sdf

>  <i_m_source_file_index>  (183) 
3

>  <i_lp_mmshare_version>  (183) 
48012

>  <i_f3d_flags>  (183) 
0

>  <s_epik_input>  (183) 
W0NIXT0xXFtDSDJdQyg9W0NIMl0pW0NAQEhdKFtDSDJdW0NASF0yW09IXSlbQ0BdKFtDSDNdKShbQ0BASF0zW09IXSlbQ0BASF0yQyhbQ0gzXSkoW0NIM10pW0NASF0oXEMxW0NAQF0zNFtPSF0pW0NIMl1bQ0BASF0oW0NIM10pW0NASF00W09IXQ==

>  <s_epik_cmdline>  (183) 
J2VwaWtfcHl0aG9uJywgJy1waHQnLCAnMi4wJywgJy1waCcsICc3LjAnLCAnLXRuJywgJzgnLCAnLW1hJywgJzIwMCcsICctaW1hZScsICc8aW5maWxlLm1hZT4nLCAnLW9tYWUnLCAnPG91dGZpbGUubWFlPic=

>  <r_lp_tautomer_probability>  (183) 
1

>  <r_epik_Ionization_Penalty>  (183) 
8.64734e-07

>  <r_epik_Ionization_Penalty_Charging>  (183) 
0

>  <r_epik_Ionization_Penalty_Neutral>  (183) 
8.64734e-07

>  <r_epik_State_Penalty>  (183) 
-0

>  <r_epik_Charging_Adjusted_Penalty>  (183) 
0

>  <i_epik_Tot_Q>  (183) 
0

>  <i_epik_Tot_abs_Q>  (183) 
0

>  <s_lp_Force_Field>  (183) 
OPLS3e

>  <r_lp_Energy>  (183) 
84.9494

>  <b_lp_Chiralities_Consistent>  (183) 
1

>  <s_lp_Variant>  (183) 
61:0-3

>  <s_i_glide_gridfile>  (183) 
pfpi4k_grid

>  <i_i_glide_lignum>  (183) 
3

>  <i_i_glide_rotatable_bonds>  (183) 
4

>  <r_i_docking_score>  (183) 
-3.80464

>  <r_i_glide_ligand_efficiency>  (183) 
-0.152186

>  <r_i_glide_ligand_efficiency_sa>  (183) 
-0.444993

>  <r_i_glide_ligand_efficiency_ln>  (183) 
-0.901813

>  <r_i_glide_gscore>  (183) 
-3.80464

>  <r_i_glide_lipo>  (183) 
-0.307087

>  <r_i_glide_hbond>  (183) 
0

>  <r_i_glide_metal>  (183) 
-0

>  <r_i_glide_rewards>  (183) 
-1.03312

>  <r_i_glide_evdw>  (183) 
-22.0702

>  <r_i_glide_ecoul>  (183) 
-9.07284

>  <r_i_glide_erotb>  (183) 
0

>  <r_i_glide_esite>  (183) 
0

>  <r_i_glide_emodel>  (183) 
-37.2789

>  <r_i_glide_energy>  (183) 
-31.143

>  <r_i_glide_einternal>  (183) 
1.93485

>  <r_i_glide_intrahb_reward>  (183) 
-0

>  <i_i_glide_confnum>  (183) 
1

>  <i_i_glide_posenum>  (183) 
10

>  <r_i_glide_eff_state_penalty>  (183) 
0

>  <ligand_id>  (183) 
61

>  <original_smiles>  (183) 
C=C1CC=C2C3CC(C)C(O)C2(O)C(O)C2(C)C1CC(O)C2C3(C)C

>  <smiles>  (183) 
[H]OC1([H])C2(O[H])C3=C([H])C([H])([H])C(=C([H])[H])C4([H])C([H])([H])C([H])(O[H])C([H])(C(C([H])([H])[H])(C([H])([H])[H])C3([H])C([H])([H])C1([H])C([H])([H])[H])C4(C([H])([H])[H])C2([H])O[H]

$$$$
61:2:1
     RDKit          3D

 57 60  0  0  1  0  0  0  0  0999 V2000
    5.0095   -6.9698    1.5292 C   0  0  0  0  0  0  0  0  0  0  0  0
    5.1738   -5.6584    1.7800 C   0  0  0  0  0  0  0  0  0  0  0  0
    6.4597   -4.9667    1.3009 C   0  0  0  0  0  0  0  0  0  0  0  0
    6.2880   -3.5710    0.7329 C   0  0  0  0  0  0  0  0  0  0  0  0
    5.2355   -3.0781    0.0308 C   0  0  0  0  0  0  0  0  0  0  0  0
    4.9452   -1.5977    0.0904 C   0  0  1  0  0  0  0  0  0  0  0  0
    4.6060   -1.0410   -1.3209 C   0  0  0  0  0  0  0  0  0  0  0  0
    3.5155   -1.8224   -2.0623 C   0  0  1  0  0  0  0  0  0  0  0  0
    3.1804   -1.2222   -3.4435 C   0  0  0  0  0  0  0  0  0  0  0  0
    3.8312   -3.3249   -2.0982 C   0  0  1  0  0  0  0  0  0  0  0  0
    4.8934   -3.5105   -3.0287 O   0  0  0  0  0  0  0  0  0  0  0  0
    4.1768   -3.9102   -0.6684 C   0  0  1  0  0  0  0  0  0  0  0  0
    4.6860   -5.1870   -0.9806 O   0  0  0  0  0  0  0  0  0  0  0  0
    2.9463   -4.0627    0.2955 C   0  0  1  0  0  0  0  0  0  0  0  0
    2.2431   -5.2758    0.0593 O   0  0  0  0  0  0  0  0  0  0  0  0
    3.1668   -3.8472    1.8498 C   0  0  1  0  0  0  0  0  0  0  0  0
    1.8030   -4.0075    2.5403 C   0  0  0  0  0  0  0  0  0  0  0  0
    4.0898   -4.8912    2.5719 C   0  0  2  0  0  0  0  0  0  0  0  0
    4.5820   -4.1889    3.8422 C   0  0  0  0  0  0  0  0  0  0  0  0
    4.5269   -2.6801    3.5753 C   0  0  1  0  0  0  0  0  0  0  0  0
    5.7911   -2.2958    3.3068 O   0  0  0  0  0  0  0  0  0  0  0  0
    3.6413   -2.4178    2.3461 C   0  0  1  0  0  0  0  0  0  0  0  0
    4.0057   -1.2361    1.3328 C   0  0  0  0  0  0  0  0  0  0  0  0
    4.6001   -0.0036    2.0328 C   0  0  0  0  0  0  0  0  0  0  0  0
    2.6409   -0.6732    0.9595 C   0  0  0  0  0  0  0  0  0  0  0  0
    4.1303   -7.5060    1.8527 H   0  0  0  0  0  0  0  0  0  0  0  0
    5.7550   -7.5301    0.9867 H   0  0  0  0  0  0  0  0  0  0  0  0
    7.0988   -4.8651    2.1776 H   0  0  0  0  0  0  0  0  0  0  0  0
    7.0069   -5.5890    0.5902 H   0  0  0  0  0  0  0  0  0  0  0  0
    6.9821   -2.8632    1.1471 H   0  0  0  0  0  0  0  0  0  0  0  0
    5.9059   -1.1313    0.2988 H   0  0  0  0  0  0  0  0  0  0  0  0
    4.3194    0.0029   -1.2604 H   0  0  0  0  0  0  0  0  0  0  0  0
    5.5006   -1.0502   -1.9378 H   0  0  0  0  0  0  0  0  0  0  0  0
    2.6059   -1.7341   -1.4784 H   0  0  0  0  0  0  0  0  0  0  0  0
    4.0446   -1.1936   -4.1051 H   0  0  0  0  0  0  0  0  0  0  0  0
    2.8166   -0.1996   -3.3338 H   0  0  0  0  0  0  0  0  0  0  0  0
    2.3901   -1.7857   -3.9455 H   0  0  0  0  0  0  0  0  0  0  0  0
    2.9651   -3.8477   -2.5043 H   0  0  0  0  0  0  0  0  0  0  0  0
    5.7066   -3.3050   -2.5896 H   0  0  0  0  0  0  0  0  0  0  0  0
    4.1023   -5.5875   -1.6208 H   0  0  0  0  0  0  0  0  0  0  0  0
    2.2148   -3.3451   -0.0446 H   0  0  0  0  0  0  0  0  0  0  0  0
    2.2811   -5.4602   -0.8734 H   0  0  0  0  0  0  0  0  0  0  0  0
    1.8247   -3.8564    3.6160 H   0  0  0  0  0  0  0  0  0  0  0  0
    1.3406   -4.9775    2.3678 H   0  0  0  0  0  0  0  0  0  0  0  0
    1.1343   -3.2339    2.1706 H   0  0  0  0  0  0  0  0  0  0  0  0
    3.4502   -5.6953    2.9355 H   0  0  0  0  0  0  0  0  0  0  0  0
    3.8926   -4.3952    4.6641 H   0  0  0  0  0  0  0  0  0  0  0  0
    5.5601   -4.5331    4.1591 H   0  0  0  0  0  0  0  0  0  0  0  0
    4.2157   -2.1046    4.4617 H   0  0  0  0  0  0  0  0  0  0  0  0
    5.7809   -1.3626    3.2297 H   0  0  0  0  0  0  0  0  0  0  0  0
    2.7967   -1.9779    2.8788 H   0  0  0  0  0  0  0  0  0  0  0  0
    4.0728    0.2257    2.9551 H   0  0  0  0  0  0  0  0  0  0  0  0
    4.4886    0.8572    1.3730 H   0  0  0  0  0  0  0  0  0  0  0  0
    5.6598   -0.0813    2.2530 H   0  0  0  0  0  0  0  0  0  0  0  0
    2.1228   -0.1888    1.7897 H   0  0  0  0  0  0  0  0  0  0  0  0
    2.0237   -1.5069    0.6918 H   0  0  0  0  0  0  0  0  0  0  0  0
    2.6693    0.0552    0.1605 H   0  0  0  0  0  0  0  0  0  0  0  0
  1  2  2  0
  1 26  1  0
  1 27  1  0
  2 18  1  0
  2  3  1  0
  3  4  1  0
  3 28  1  0
  3 29  1  0
  4  5  2  3
  4 30  1  0
  5 12  1  0
  5  6  1  0
  6 23  1  0
  6  7  1  0
  6 31  1  1
  7  8  1  0
  7 32  1  0
  7 33  1  0
  8  9  1  0
  8 10  1  0
  8 34  1  1
  9 35  1  0
  9 36  1  0
  9 37  1  0
 10 11  1  0
 10 12  1  0
 10 38  1  6
 11 39  1  0
 12 13  1  6
 12 14  1  0
 13 40  1  0
 14 15  1  0
 14 16  1  0
 14 41  1  6
 15 42  1  0
 16 22  1  0
 16 17  1  1
 16 18  1  0
 17 43  1  0
 17 44  1  0
 17 45  1  0
 18 19  1  0
 18 46  1  1
 19 20  1  0
 19 47  1  0
 19 48  1  0
 20 21  1  0
 20 22  1  0
 20 49  1  1
 21 50  1  0
 22 23  1  0
 22 51  1  1
 23 24  1  0
 23 25  1  0
 24 52  1  0
 24 53  1  0
 24 54  1  0
 25 55  1  0
 25 56  1  0
 25 57  1  0
M  END
>  <i_m_ct_stereo_status>  (184) 
1

>  <s_m_source_file>  (184) 
/var/tmp/pbs.5076255.sched01/tmph8v5ro6p/78zitxkb1g.sdf

>  <i_m_source_file_index>  (184) 
3

>  <i_lp_mmshare_version>  (184) 
48012

>  <i_f3d_flags>  (184) 
0

>  <s_epik_input>  (184) 
W0NIXT0xXFtDSDJdQyg9W0NIMl0pW0NAQEhdKFtDSDJdW0NASF0yW09IXSlbQ0BdKFtDSDNdKShbQ0BASF0zW09IXSlbQ0BASF0yQyhbQ0gzXSkoW0NIM10pW0NASF0oXEMxW0NAQF0zNFtPSF0pW0NIMl1bQ0BASF0oW0NIM10pW0NASF00W09IXQ==

>  <s_epik_cmdline>  (184) 
J2VwaWtfcHl0aG9uJywgJy1waHQnLCAnMi4wJywgJy1waCcsICc3LjAnLCAnLXRuJywgJzgnLCAnLW1hJywgJzIwMCcsICctaW1hZScsICc8aW5maWxlLm1hZT4nLCAnLW9tYWUnLCAnPG91dGZpbGUubWFlPic=

>  <r_lp_tautomer_probability>  (184) 
1

>  <r_epik_Ionization_Penalty>  (184) 
8.64734e-07

>  <r_epik_Ionization_Penalty_Charging>  (184) 
0

>  <r_epik_Ionization_Penalty_Neutral>  (184) 
8.64734e-07

>  <r_epik_State_Penalty>  (184) 
-0

>  <r_epik_Charging_Adjusted_Penalty>  (184) 
0

>  <i_epik_Tot_Q>  (184) 
0

>  <i_epik_Tot_abs_Q>  (184) 
0

>  <s_lp_Force_Field>  (184) 
OPLS3e

>  <r_lp_Energy>  (184) 
84.9494

>  <b_lp_Chiralities_Consistent>  (184) 
1

>  <s_lp_Variant>  (184) 
61:0-3

>  <s_i_glide_gridfile>  (184) 
pfpi4k_grid

>  <i_i_glide_lignum>  (184) 
3

>  <i_i_glide_rotatable_bonds>  (184) 
4

>  <r_i_docking_score>  (184) 
-3.53324

>  <r_i_glide_ligand_efficiency>  (184) 
-0.14133

>  <r_i_glide_ligand_efficiency_sa>  (184) 
-0.413251

>  <r_i_glide_ligand_efficiency_ln>  (184) 
-0.837485

>  <r_i_glide_gscore>  (184) 
-3.53324

>  <r_i_glide_lipo>  (184) 
-0.578796

>  <r_i_glide_hbond>  (184) 
0

>  <r_i_glide_metal>  (184) 
-0

>  <r_i_glide_rewards>  (184) 
-1.03312

>  <r_i_glide_evdw>  (184) 
-6.4334

>  <r_i_glide_ecoul>  (184) 
-10.6644

>  <r_i_glide_erotb>  (184) 
0

>  <r_i_glide_esite>  (184) 
0

>  <r_i_glide_emodel>  (184) 
-22.0628

>  <r_i_glide_energy>  (184) 
-17.0978

>  <r_i_glide_einternal>  (184) 
1.3883

>  <r_i_glide_intrahb_reward>  (184) 
-0

>  <i_i_glide_confnum>  (184) 
1

>  <i_i_glide_posenum>  (184) 
3

>  <r_i_glide_eff_state_penalty>  (184) 
0

>  <ligand_id>  (184) 
61

>  <original_smiles>  (184) 
C=C1CC=C2C3CC(C)C(O)C2(O)C(O)C2(C)C1CC(O)C2C3(C)C

>  <smiles>  (184) 
[H]OC1([H])C2(O[H])C3=C([H])C([H])([H])C(=C([H])[H])C4([H])C([H])([H])C([H])(O[H])C([H])(C(C([H])([H])[H])(C([H])([H])[H])C3([H])C([H])([H])C1([H])C([H])([H])[H])C4(C([H])([H])[H])C2([H])O[H]

$$$$
61:2:2
     RDKit          3D

 57 60  0  0  1  0  0  0  0  0999 V2000
    4.0284    0.3791    5.5777 C   0  0  0  0  0  0  0  0  0  0  0  0
    4.1612   -0.0633    4.3111 C   0  0  0  0  0  0  0  0  0  0  0  0
    5.5679   -0.2600    3.7440 C   0  0  0  0  0  0  0  0  0  0  0  0
    5.7465   -1.4856    2.8739 C   0  0  0  0  0  0  0  0  0  0  0  0
    5.1773   -2.7023    3.0062 C   0  0  0  0  0  0  0  0  0  0  0  0
    4.9987   -3.5675    1.7689 C   0  0  1  0  0  0  0  0  0  0  0  0
    5.3428   -5.0462    2.0590 C   0  0  0  0  0  0  0  0  0  0  0  0
    4.6196   -5.6281    3.2939 C   0  0  1  0  0  0  0  0  0  0  0  0
    5.0015   -7.1012    3.5354 C   0  0  0  0  0  0  0  0  0  0  0  0
    4.8172   -4.7213    4.5303 C   0  0  1  0  0  0  0  0  0  0  0  0
    6.1591   -4.9035    4.9632 O   0  0  0  0  0  0  0  0  0  0  0  0
    4.4793   -3.2130    4.2606 C   0  0  1  0  0  0  0  0  0  0  0  0
    4.9591   -2.5649    5.4318 O   0  0  0  0  0  0  0  0  0  0  0  0
    2.9557   -2.9235    4.1086 C   0  0  1  0  0  0  0  0  0  0  0  0
    2.3485   -2.7537    5.3812 O   0  0  0  0  0  0  0  0  0  0  0  0
    2.4970   -1.7896    3.0999 C   0  0  1  0  0  0  0  0  0  0  0  0
    0.9488   -1.8032    3.1633 C   0  0  0  0  0  0  0  0  0  0  0  0
    2.9105   -0.3148    3.4530 C   0  0  2  0  0  0  0  0  0  0  0  0
    2.9023    0.4590    2.1259 C   0  0  0  0  0  0  0  0  0  0  0  0
    3.2400   -0.5377    1.0106 C   0  0  1  0  0  0  0  0  0  0  0  0
    4.5548   -0.2981    0.5545 O   0  0  0  0  0  0  0  0  0  0  0  0
    2.8748   -1.9616    1.5554 C   0  0  1  0  0  0  0  0  0  0  0  0
    3.6404   -3.2534    1.0157 C   0  0  0  0  0  0  0  0  0  0  0  0
    3.9659   -3.1033   -0.4958 C   0  0  0  0  0  0  0  0  0  0  0  0
    2.6213   -4.4318    0.9915 C   0  0  0  0  0  0  0  0  0  0  0  0
    3.0576    0.5500    6.0220 H   0  0  0  0  0  0  0  0  0  0  0  0
    4.8972    0.5774    6.1895 H   0  0  0  0  0  0  0  0  0  0  0  0
    5.7824    0.5855    3.0993 H   0  0  0  0  0  0  0  0  0  0  0  0
    6.3234   -0.2428    4.5288 H   0  0  0  0  0  0  0  0  0  0  0  0
    6.2420   -1.2575    1.9430 H   0  0  0  0  0  0  0  0  0  0  0  0
    5.7961   -3.2456    1.0995 H   0  0  0  0  0  0  0  0  0  0  0  0
    5.1629   -5.6649    1.1793 H   0  0  0  0  0  0  0  0  0  0  0  0
    6.4189   -5.1182    2.2272 H   0  0  0  0  0  0  0  0  0  0  0  0
    3.5552   -5.6630    3.0970 H   0  0  0  0  0  0  0  0  0  0  0  0
    6.0740   -7.2346    3.6947 H   0  0  0  0  0  0  0  0  0  0  0  0
    4.7176   -7.7123    2.6762 H   0  0  0  0  0  0  0  0  0  0  0  0
    4.4803   -7.5015    4.4075 H   0  0  0  0  0  0  0  0  0  0  0  0
    4.1887   -5.0784    5.3444 H   0  0  0  0  0  0  0  0  0  0  0  0
    6.7353   -4.6758    4.2493 H   0  0  0  0  0  0  0  0  0  0  0  0
    4.8122   -1.6357    5.3292 H   0  0  0  0  0  0  0  0  0  0  0  0
    2.5017   -3.8466    3.7761 H   0  0  0  0  0  0  0  0  0  0  0  0
    2.7465   -2.0018    5.7943 H   0  0  0  0  0  0  0  0  0  0  0  0
    0.5125   -1.0792    2.4736 H   0  0  0  0  0  0  0  0  0  0  0  0
    0.5519   -1.5601    4.1492 H   0  0  0  0  0  0  0  0  0  0  0  0
    0.5637   -2.7869    2.8952 H   0  0  0  0  0  0  0  0  0  0  0  0
    2.1091    0.1184    4.0560 H   0  0  0  0  0  0  0  0  0  0  0  0
    1.8921    0.8391    1.9521 H   0  0  0  0  0  0  0  0  0  0  0  0
    3.5506    1.3339    2.1436 H   0  0  0  0  0  0  0  0  0  0  0  0
    2.6256   -0.3110    0.1439 H   0  0  0  0  0  0  0  0  0  0  0  0
    4.5797    0.5559    0.1421 H   0  0  0  0  0  0  0  0  0  0  0  0
    1.9116   -2.0903    1.0598 H   0  0  0  0  0  0  0  0  0  0  0  0
    3.1073   -2.7360   -1.0586 H   0  0  0  0  0  0  0  0  0  0  0  0
    4.2557   -4.0600   -0.9363 H   0  0  0  0  0  0  0  0  0  0  0  0
    4.7906   -2.4212   -0.6922 H   0  0  0  0  0  0  0  0  0  0  0  0
    1.8412   -4.2426    0.2510 H   0  0  0  0  0  0  0  0  0  0  0  0
    2.0922   -4.5866    1.9238 H   0  0  0  0  0  0  0  0  0  0  0  0
    3.0648   -5.3800    0.6946 H   0  0  0  0  0  0  0  0  0  0  0  0
  1  2  2  0
  1 26  1  0
  1 27  1  0
  2 18  1  0
  2  3  1  0
  3  4  1  0
  3 28  1  0
  3 29  1  0
  4  5  2  3
  4 30  1  0
  5 12  1  0
  5  6  1  0
  6 23  1  0
  6  7  1  0
  6 31  1  6
  7  8  1  0
  7 32  1  0
  7 33  1  0
  8  9  1  0
  8 10  1  0
  8 34  1  6
  9 35  1  0
  9 36  1  0
  9 37  1  0
 10 11  1  0
 10 12  1  0
 10 38  1  1
 11 39  1  0
 12 13  1  1
 12 14  1  0
 13 40  1  0
 14 15  1  0
 14 16  1  0
 14 41  1  6
 15 42  1  0
 16 22  1  0
 16 17  1  6
 16 18  1  0
 17 43  1  0
 17 44  1  0
 17 45  1  0
 18 19  1  0
 18 46  1  1
 19 20  1  0
 19 47  1  0
 19 48  1  0
 20 21  1  0
 20 22  1  0
 20 49  1  6
 21 50  1  0
 22 23  1  0
 22 51  1  6
 23 24  1  0
 23 25  1  0
 24 52  1  0
 24 53  1  0
 24 54  1  0
 25 55  1  0
 25 56  1  0
 25 57  1  0
M  END
>  <i_m_ct_stereo_status>  (185) 
1

>  <s_m_source_file>  (185) 
/var/tmp/pbs.5076255.sched01/tmph8v5ro6p/78zitxkb1g.sdf

>  <i_m_source_file_index>  (185) 
3

>  <i_lp_mmshare_version>  (185) 
48012

>  <i_f3d_flags>  (185) 
0

>  <s_epik_input>  (185) 
W0NIXT0xXFtDSDJdQyg9W0NIMl0pW0NAQEhdKFtDSDJdW0NASF0yW09IXSlbQ0BdKFtDSDNdKShbQ0BASF0zW09IXSlbQ0BASF0yQyhbQ0gzXSkoW0NIM10pW0NASF0oXEMxW0NAQF0zNFtPSF0pW0NIMl1bQ0BASF0oW0NIM10pW0NASF00W09IXQ==

>  <s_epik_cmdline>  (185) 
J2VwaWtfcHl0aG9uJywgJy1waHQnLCAnMi4wJywgJy1waCcsICc3LjAnLCAnLXRuJywgJzgnLCAnLW1hJywgJzIwMCcsICctaW1hZScsICc8aW5maWxlLm1hZT4nLCAnLW9tYWUnLCAnPG91dGZpbGUubWFlPic=

>  <r_lp_tautomer_probability>  (185) 
1

>  <r_epik_Ionization_Penalty>  (185) 
8.64734e-07

>  <r_epik_Ionization_Penalty_Charging>  (185) 
0

>  <r_epik_Ionization_Penalty_Neutral>  (185) 
8.64734e-07

>  <r_epik_State_Penalty>  (185) 
-0

>  <r_epik_Charging_Adjusted_Penalty>  (185) 
0

>  <i_epik_Tot_Q>  (185) 
0

>  <i_epik_Tot_abs_Q>  (185) 
0

>  <s_lp_Force_Field>  (185) 
OPLS3e

>  <r_lp_Energy>  (185) 
84.9494

>  <b_lp_Chiralities_Consistent>  (185) 
1

>  <s_lp_Variant>  (185) 
61:0-3

>  <s_i_glide_gridfile>  (185) 
pfpi4k_grid

>  <i_i_glide_lignum>  (185) 
3

>  <i_i_glide_rotatable_bonds>  (185) 
4

>  <r_i_docking_score>  (185) 
-2.85595

>  <r_i_glide_ligand_efficiency>  (185) 
-0.114238

>  <r_i_glide_ligand_efficiency_sa>  (185) 
-0.334034

>  <r_i_glide_ligand_efficiency_ln>  (185) 
-0.676946

>  <r_i_glide_gscore>  (185) 
-2.85595

>  <r_i_glide_lipo>  (185) 
-0.396443

>  <r_i_glide_hbond>  (185) 
-0.24965

>  <r_i_glide_metal>  (185) 
-0

>  <r_i_glide_rewards>  (185) 
-1.03312

>  <r_i_glide_evdw>  (185) 
-16.2613

>  <r_i_glide_ecoul>  (185) 
-2.4245

>  <r_i_glide_erotb>  (185) 
0

>  <r_i_glide_esite>  (185) 
0

>  <r_i_glide_emodel>  (185) 
-23.9172

>  <r_i_glide_energy>  (185) 
-18.6858

>  <r_i_glide_einternal>  (185) 
0.390006

>  <r_i_glide_intrahb_reward>  (185) 
-0

>  <i_i_glide_confnum>  (185) 
2

>  <i_i_glide_posenum>  (185) 
14

>  <r_i_glide_eff_state_penalty>  (185) 
0

>  <ligand_id>  (185) 
61

>  <original_smiles>  (185) 
C=C1CC=C2C3CC(C)C(O)C2(O)C(O)C2(C)C1CC(O)C2C3(C)C

>  <smiles>  (185) 
[H]OC1([H])C2(O[H])C3=C([H])C([H])([H])C(=C([H])[H])C4([H])C([H])([H])C([H])(O[H])C([H])(C(C([H])([H])[H])(C([H])([H])[H])C3([H])C([H])([H])C1([H])C([H])([H])[H])C4(C([H])([H])[H])C2([H])O[H]

$$$$
61:3:0
     RDKit          3D

 57 60  0  0  1  0  0  0  0  0999 V2000
    4.4213   -5.3961    5.3051 C   0  0  0  0  0  0  0  0  0  0  0  0
    4.4261   -4.4715    4.3290 C   0  0  0  0  0  0  0  0  0  0  0  0
    5.7062   -4.3046    3.5127 C   0  0  0  0  0  0  0  0  0  0  0  0
    5.3909   -4.6636    2.1171 C   0  0  0  0  0  0  0  0  0  0  0  0
    4.9773   -3.8043    1.1671 C   0  0  0  0  0  0  0  0  0  0  0  0
    5.3225   -2.3078    1.0272 C   0  0  1  0  0  0  0  0  0  0  0  0
    5.2174   -1.8632   -0.4584 C   0  0  0  0  0  0  0  0  0  0  0  0
    3.8033   -2.1062   -0.9947 C   0  0  1  0  0  0  0  0  0  0  0  0
    3.5718   -1.4434   -2.3698 C   0  0  0  0  0  0  0  0  0  0  0  0
    3.5302   -3.6041   -0.9582 C   0  0  1  0  0  0  0  0  0  0  0  0
    4.4384   -4.1505   -1.9053 O   0  0  0  0  0  0  0  0  0  0  0  0
    3.7731   -4.2825    0.4248 C   0  0  1  0  0  0  0  0  0  0  0  0
    3.8688   -5.6723    0.0954 O   0  0  0  0  0  0  0  0  0  0  0  0
    2.6102   -4.1008    1.4562 C   0  0  1  0  0  0  0  0  0  0  0  0
    2.1759   -5.3637    1.9640 O   0  0  0  0  0  0  0  0  0  0  0  0
    2.6792   -3.0959    2.7205 C   0  0  1  0  0  0  0  0  0  0  0  0
    1.1587   -2.9131    2.9905 C   0  0  0  0  0  0  0  0  0  0  0  0
    3.1867   -3.5662    4.1309 C   0  0  2  0  0  0  0  0  0  0  0  0
    3.2212   -2.2688    4.9826 C   0  0  0  0  0  0  0  0  0  0  0  0
    2.9272   -1.0905    4.0287 C   0  0  1  0  0  0  0  0  0  0  0  0
    3.4631    0.1331    4.4747 O   0  0  0  0  0  0  0  0  0  0  0  0
    3.2150   -1.6156    2.5842 C   0  0  1  0  0  0  0  0  0  0  0  0
    4.6712   -1.2686    2.0489 C   0  0  0  0  0  0  0  0  0  0  0  0
    5.7060   -0.9197    3.1478 C   0  0  0  0  0  0  0  0  0  0  0  0
    4.5089    0.1348    1.3814 C   0  0  0  0  0  0  0  0  0  0  0  0
    3.5538   -5.5525    5.9312 H   0  0  0  0  0  0  0  0  0  0  0  0
    5.2810   -6.0211    5.4864 H   0  0  0  0  0  0  0  0  0  0  0  0
    6.1418   -3.3051    3.5556 H   0  0  0  0  0  0  0  0  0  0  0  0
    6.4709   -4.9984    3.8727 H   0  0  0  0  0  0  0  0  0  0  0  0
    5.0430   -5.6863    2.1049 H   0  0  0  0  0  0  0  0  0  0  0  0
    6.4004   -2.2995    1.1832 H   0  0  0  0  0  0  0  0  0  0  0  0
    5.5428   -0.8491   -0.6605 H   0  0  0  0  0  0  0  0  0  0  0  0
    5.9253   -2.4659   -1.0349 H   0  0  0  0  0  0  0  0  0  0  0  0
    3.0646   -1.6550   -0.3281 H   0  0  0  0  0  0  0  0  0  0  0  0
    4.2718   -1.7931   -3.1319 H   0  0  0  0  0  0  0  0  0  0  0  0
    3.6797   -0.3574   -2.3032 H   0  0  0  0  0  0  0  0  0  0  0  0
    2.5531   -1.6360   -2.7334 H   0  0  0  0  0  0  0  0  0  0  0  0
    2.5180   -3.7841   -1.3110 H   0  0  0  0  0  0  0  0  0  0  0  0
    3.9653   -4.8618   -2.3323 H   0  0  0  0  0  0  0  0  0  0  0  0
    3.6062   -5.8018   -0.7988 H   0  0  0  0  0  0  0  0  0  0  0  0
    1.8072   -3.7685    0.8197 H   0  0  0  0  0  0  0  0  0  0  0  0
    2.9082   -5.7627    2.4140 H   0  0  0  0  0  0  0  0  0  0  0  0
    0.8286   -2.5165    3.9501 H   0  0  0  0  0  0  0  0  0  0  0  0
    0.6196   -3.8594    2.9837 H   0  0  0  0  0  0  0  0  0  0  0  0
    0.7437   -2.2441    2.2271 H   0  0  0  0  0  0  0  0  0  0  0  0
    2.4004   -4.1954    4.5516 H   0  0  0  0  0  0  0  0  0  0  0  0
    2.4423   -2.3161    5.7458 H   0  0  0  0  0  0  0  0  0  0  0  0
    4.1561   -2.1754    5.5316 H   0  0  0  0  0  0  0  0  0  0  0  0
    1.8809   -0.8165    4.0973 H   0  0  0  0  0  0  0  0  0  0  0  0
    4.4045    0.0678    4.4421 H   0  0  0  0  0  0  0  0  0  0  0  0
    2.5319   -1.1031    1.9016 H   0  0  0  0  0  0  0  0  0  0  0  0
    5.7371    0.1275    3.4222 H   0  0  0  0  0  0  0  0  0  0  0  0
    6.7108   -1.0767    2.7901 H   0  0  0  0  0  0  0  0  0  0  0  0
    5.5783   -1.4594    4.0756 H   0  0  0  0  0  0  0  0  0  0  0  0
    4.1114    0.8563    2.0990 H   0  0  0  0  0  0  0  0  0  0  0  0
    3.8205    0.1607    0.5433 H   0  0  0  0  0  0  0  0  0  0  0  0
    5.4746    0.5161    1.0345 H   0  0  0  0  0  0  0  0  0  0  0  0
  1  2  2  0
  1 26  1  0
  1 27  1  0
  2 18  1  0
  2  3  1  0
  3  4  1  0
  3 28  1  0
  3 29  1  0
  4  5  2  3
  4 30  1  0
  5 12  1  0
  5  6  1  0
  6 23  1  0
  6  7  1  0
  6 31  1  1
  7  8  1  0
  7 32  1  0
  7 33  1  0
  8  9  1  0
  8 10  1  0
  8 34  1  1
  9 35  1  0
  9 36  1  0
  9 37  1  0
 10 11  1  0
 10 12  1  0
 10 38  1  6
 11 39  1  0
 12 13  1  6
 12 14  1  0
 13 40  1  0
 14 15  1  0
 14 16  1  0
 14 41  1  6
 15 42  1  0
 16 22  1  0
 16 17  1  1
 16 18  1  0
 17 43  1  0
 17 44  1  0
 17 45  1  0
 18 19  1  0
 18 46  1  1
 19 20  1  0
 19 47  1  0
 19 48  1  0
 20 21  1  0
 20 22  1  0
 20 49  1  6
 21 50  1  0
 22 23  1  0
 22 51  1  6
 23 24  1  0
 23 25  1  0
 24 52  1  0
 24 53  1  0
 24 54  1  0
 25 55  1  0
 25 56  1  0
 25 57  1  0
M  END
>  <i_m_ct_stereo_status>  (186) 
1

>  <s_m_source_file>  (186) 
/var/tmp/pbs.5076255.sched01/tmph8v5ro6p/78zitxkb1g.sdf

>  <i_m_source_file_index>  (186) 
4

>  <i_lp_mmshare_version>  (186) 
48012

>  <i_f3d_flags>  (186) 
0

>  <s_epik_input>  (186) 
W0NIXT0xXFtDSDJdQyg9W0NIMl0pW0NAQEhdKFtDSDJdW0NASF0yW09IXSlbQ0BdKFtDSDNdKShbQ0BASF0zW09IXSlbQ0BASF0yQyhbQ0gzXSkoW0NIM10pW0NASF0oXEMxW0NAQF0zNFtPSF0pW0NIMl1bQ0BASF0oW0NIM10pW0NASF00W09IXQ==

>  <s_epik_cmdline>  (186) 
J2VwaWtfcHl0aG9uJywgJy1waHQnLCAnMi4wJywgJy1waCcsICc3LjAnLCAnLXRuJywgJzgnLCAnLW1hJywgJzIwMCcsICctaW1hZScsICc8aW5maWxlLm1hZT4nLCAnLW9tYWUnLCAnPG91dGZpbGUubWFlPic=

>  <r_lp_tautomer_probability>  (186) 
1

>  <r_epik_Ionization_Penalty>  (186) 
8.64734e-07

>  <r_epik_Ionization_Penalty_Charging>  (186) 
0

>  <r_epik_Ionization_Penalty_Neutral>  (186) 
8.64734e-07

>  <r_epik_State_Penalty>  (186) 
-0

>  <r_epik_Charging_Adjusted_Penalty>  (186) 
0

>  <i_epik_Tot_Q>  (186) 
0

>  <i_epik_Tot_abs_Q>  (186) 
0

>  <s_lp_Force_Field>  (186) 
OPLS3e

>  <r_lp_Energy>  (186) 
131.005

>  <b_lp_Chiralities_Consistent>  (186) 
1

>  <s_lp_Variant>  (186) 
61:0-4

>  <s_i_glide_gridfile>  (186) 
pfpi4k_grid

>  <i_i_glide_lignum>  (186) 
4

>  <i_i_glide_rotatable_bonds>  (186) 
4

>  <r_i_docking_score>  (186) 
-3.31812

>  <r_i_glide_ligand_efficiency>  (186) 
-0.132725

>  <r_i_glide_ligand_efficiency_sa>  (186) 
-0.38809

>  <r_i_glide_ligand_efficiency_ln>  (186) 
-0.786495

>  <r_i_glide_gscore>  (186) 
-3.31812

>  <r_i_glide_lipo>  (186) 
-0.367732

>  <r_i_glide_hbond>  (186) 
0

>  <r_i_glide_metal>  (186) 
-0

>  <r_i_glide_rewards>  (186) 
-1.03312

>  <r_i_glide_evdw>  (186) 
-8.98122

>  <r_i_glide_ecoul>  (186) 
-9.78811

>  <r_i_glide_erotb>  (186) 
0

>  <r_i_glide_esite>  (186) 
0

>  <r_i_glide_emodel>  (186) 
-21.8548

>  <r_i_glide_energy>  (186) 
-18.7693

>  <r_i_glide_einternal>  (186) 
1.37544

>  <r_i_glide_intrahb_reward>  (186) 
-0

>  <i_i_glide_confnum>  (186) 
2

>  <i_i_glide_posenum>  (186) 
26

>  <r_i_glide_eff_state_penalty>  (186) 
0

>  <ligand_id>  (186) 
61

>  <original_smiles>  (186) 
C=C1CC=C2C3CC(C)C(O)C2(O)C(O)C2(C)C1CC(O)C2C3(C)C

>  <smiles>  (186) 
[H]OC1([H])C2(O[H])C3=C([H])C([H])([H])C(=C([H])[H])C4([H])C([H])([H])C([H])(O[H])C([H])(C(C([H])([H])[H])(C([H])([H])[H])C3([H])C([H])([H])C1([H])C([H])([H])[H])C4(C([H])([H])[H])C2([H])O[H]

$$$$
61:3:1
     RDKit          3D

 57 60  0  0  1  0  0  0  0  0999 V2000
    4.9114   -5.6007    4.2886 C   0  0  0  0  0  0  0  0  0  0  0  0
    4.9611   -4.6662    3.3207 C   0  0  0  0  0  0  0  0  0  0  0  0
    5.7945   -4.9827    2.0628 C   0  0  0  0  0  0  0  0  0  0  0  0
    4.8239   -5.0639    0.9150 C   0  0  0  0  0  0  0  0  0  0  0  0
    4.4708   -4.0562    0.1245 C   0  0  0  0  0  0  0  0  0  0  0  0
    5.3031   -2.8169   -0.2621 C   0  0  1  0  0  0  0  0  0  0  0  0
    4.8779   -2.2526   -1.6221 C   0  0  0  0  0  0  0  0  0  0  0  0
    3.4302   -1.8039   -1.5459 C   0  0  1  0  0  0  0  0  0  0  0  0
    3.0877   -0.9942   -2.7834 C   0  0  0  0  0  0  0  0  0  0  0  0
    2.5637   -3.0343   -1.3241 C   0  0  1  0  0  0  0  0  0  0  0  0
    2.4980   -3.6660   -2.5970 O   0  0  0  0  0  0  0  0  0  0  0  0
    2.9851   -3.8972   -0.0822 C   0  0  1  0  0  0  0  0  0  0  0  0
    2.3059   -5.1137   -0.3233 O   0  0  0  0  0  0  0  0  0  0  0  0
    2.4880   -3.3683    1.3470 C   0  0  1  0  0  0  0  0  0  0  0  0
    1.9059   -4.4275    2.0907 O   0  0  0  0  0  0  0  0  0  0  0  0
    3.3729   -2.5649    2.3986 C   0  0  1  0  0  0  0  0  0  0  0  0
    2.2100   -1.8093    3.1647 C   0  0  0  0  0  0  0  0  0  0  0  0
    4.1689   -3.3332    3.5338 C   0  0  2  0  0  0  0  0  0  0  0  0
    5.0182   -2.2553    4.2184 C   0  0  0  0  0  0  0  0  0  0  0  0
    4.9158   -0.9894    3.3429 C   0  0  1  0  0  0  0  0  0  0  0  0
    6.0206   -0.1121    3.4379 O   0  0  0  0  0  0  0  0  0  0  0  0
    4.3884   -1.4442    1.9383 C   0  0  1  0  0  0  0  0  0  0  0  0
    5.5170   -1.6853    0.8201 C   0  0  0  0  0  0  0  0  0  0  0  0
    6.9273   -1.9320    1.2980 C   0  0  0  0  0  0  0  0  0  0  0  0
    5.7178   -0.2819    0.2245 C   0  0  0  0  0  0  0  0  0  0  0  0
    4.3361   -5.4520    5.1913 H   0  0  0  0  0  0  0  0  0  0  0  0
    5.4332   -6.5399    4.1841 H   0  0  0  0  0  0  0  0  0  0  0  0
    6.6338   -4.3548    1.8768 H   0  0  0  0  0  0  0  0  0  0  0  0
    6.2466   -5.9661    2.1721 H   0  0  0  0  0  0  0  0  0  0  0  0
    4.0837   -5.8229    1.1525 H   0  0  0  0  0  0  0  0  0  0  0  0
    6.2510   -3.2835   -0.5308 H   0  0  0  0  0  0  0  0  0  0  0  0
    5.5077   -1.4491   -1.9675 H   0  0  0  0  0  0  0  0  0  0  0  0
    5.0048   -3.0338   -2.3837 H   0  0  0  0  0  0  0  0  0  0  0  0
    3.2564   -1.1586   -0.6804 H   0  0  0  0  0  0  0  0  0  0  0  0
    3.2023   -1.5341   -3.7349 H   0  0  0  0  0  0  0  0  0  0  0  0
    3.6593   -0.0617   -2.8408 H   0  0  0  0  0  0  0  0  0  0  0  0
    2.0666   -0.7284   -2.6275 H   0  0  0  0  0  0  0  0  0  0  0  0
    1.5265   -2.8159   -1.1726 H   0  0  0  0  0  0  0  0  0  0  0  0
    2.9160   -4.5256   -2.5445 H   0  0  0  0  0  0  0  0  0  0  0  0
    2.5618   -5.4427   -1.1861 H   0  0  0  0  0  0  0  0  0  0  0  0
    1.6851   -2.6936    1.0830 H   0  0  0  0  0  0  0  0  0  0  0  0
    1.5096   -4.0566    2.8850 H   0  0  0  0  0  0  0  0  0  0  0  0
    2.4701   -1.4133    4.1516 H   0  0  0  0  0  0  0  0  0  0  0  0
    1.3478   -2.4390    3.3873 H   0  0  0  0  0  0  0  0  0  0  0  0
    1.8216   -0.9655    2.5751 H   0  0  0  0  0  0  0  0  0  0  0  0
    3.4072   -3.6295    4.2679 H   0  0  0  0  0  0  0  0  0  0  0  0
    4.6345   -2.0443    5.2193 H   0  0  0  0  0  0  0  0  0  0  0  0
    6.0325   -2.6372    4.3474 H   0  0  0  0  0  0  0  0  0  0  0  0
    4.1681   -0.3325    3.7791 H   0  0  0  0  0  0  0  0  0  0  0  0
    6.7440   -0.4977    2.9679 H   0  0  0  0  0  0  0  0  0  0  0  0
    3.7597   -0.6347    1.5573 H   0  0  0  0  0  0  0  0  0  0  0  0
    7.4937   -1.0312    1.5328 H   0  0  0  0  0  0  0  0  0  0  0  0
    7.6093   -2.5262    0.6734 H   0  0  0  0  0  0  0  0  0  0  0  0
    6.7944   -2.4340    2.2529 H   0  0  0  0  0  0  0  0  0  0  0  0
    5.9373    0.4567    0.9938 H   0  0  0  0  0  0  0  0  0  0  0  0
    4.8511    0.1121   -0.3089 H   0  0  0  0  0  0  0  0  0  0  0  0
    6.5847   -0.3073   -0.4239 H   0  0  0  0  0  0  0  0  0  0  0  0
  1  2  2  0
  1 26  1  0
  1 27  1  0
  2 18  1  0
  2  3  1  0
  3  4  1  0
  3 28  1  0
  3 29  1  0
  4  5  2  3
  4 30  1  0
  5 12  1  0
  5  6  1  0
  6 23  1  0
  6  7  1  0
  6 31  1  6
  7  8  1  0
  7 32  1  0
  7 33  1  0
  8  9  1  0
  8 10  1  0
  8 34  1  1
  9 35  1  0
  9 36  1  0
  9 37  1  0
 10 11  1  0
 10 12  1  0
 10 38  1  1
 11 39  1  0
 12 13  1  6
 12 14  1  0
 13 40  1  0
 14 15  1  0
 14 16  1  0
 14 41  1  6
 15 42  1  0
 16 22  1  0
 16 17  1  1
 16 18  1  0
 17 43  1  0
 17 44  1  0
 17 45  1  0
 18 19  1  0
 18 46  1  1
 19 20  1  0
 19 47  1  0
 19 48  1  0
 20 21  1  0
 20 22  1  0
 20 49  1  1
 21 50  1  0
 22 23  1  0
 22 51  1  6
 23 24  1  0
 23 25  1  0
 24 52  1  0
 24 53  1  0
 24 54  1  0
 25 55  1  0
 25 56  1  0
 25 57  1  0
M  END
>  <i_m_ct_stereo_status>  (187) 
1

>  <s_m_source_file>  (187) 
/var/tmp/pbs.5076255.sched01/tmph8v5ro6p/78zitxkb1g.sdf

>  <i_m_source_file_index>  (187) 
4

>  <i_lp_mmshare_version>  (187) 
48012

>  <i_f3d_flags>  (187) 
0

>  <s_epik_input>  (187) 
W0NIXT0xXFtDSDJdQyg9W0NIMl0pW0NAQEhdKFtDSDJdW0NASF0yW09IXSlbQ0BdKFtDSDNdKShbQ0BASF0zW09IXSlbQ0BASF0yQyhbQ0gzXSkoW0NIM10pW0NASF0oXEMxW0NAQF0zNFtPSF0pW0NIMl1bQ0BASF0oW0NIM10pW0NASF00W09IXQ==

>  <s_epik_cmdline>  (187) 
J2VwaWtfcHl0aG9uJywgJy1waHQnLCAnMi4wJywgJy1waCcsICc3LjAnLCAnLXRuJywgJzgnLCAnLW1hJywgJzIwMCcsICctaW1hZScsICc8aW5maWxlLm1hZT4nLCAnLW9tYWUnLCAnPG91dGZpbGUubWFlPic=

>  <r_lp_tautomer_probability>  (187) 
1

>  <r_epik_Ionization_Penalty>  (187) 
8.64734e-07

>  <r_epik_Ionization_Penalty_Charging>  (187) 
0

>  <r_epik_Ionization_Penalty_Neutral>  (187) 
8.64734e-07

>  <r_epik_State_Penalty>  (187) 
-0

>  <r_epik_Charging_Adjusted_Penalty>  (187) 
0

>  <i_epik_Tot_Q>  (187) 
0

>  <i_epik_Tot_abs_Q>  (187) 
0

>  <s_lp_Force_Field>  (187) 
OPLS3e

>  <r_lp_Energy>  (187) 
131.005

>  <b_lp_Chiralities_Consistent>  (187) 
1

>  <s_lp_Variant>  (187) 
61:0-4

>  <s_i_glide_gridfile>  (187) 
pfpi4k_grid

>  <i_i_glide_lignum>  (187) 
4

>  <i_i_glide_rotatable_bonds>  (187) 
4

>  <r_i_docking_score>  (187) 
-3.24621

>  <r_i_glide_ligand_efficiency>  (187) 
-0.129849

>  <r_i_glide_ligand_efficiency_sa>  (187) 
-0.379679

>  <r_i_glide_ligand_efficiency_ln>  (187) 
-0.76945

>  <r_i_glide_gscore>  (187) 
-3.24621

>  <r_i_glide_lipo>  (187) 
-0.490206

>  <r_i_glide_hbond>  (187) 
-0.00338328

>  <r_i_glide_metal>  (187) 
-0

>  <r_i_glide_rewards>  (187) 
-1.03312

>  <r_i_glide_evdw>  (187) 
4.39101

>  <r_i_glide_ecoul>  (187) 
-12.9271

>  <r_i_glide_erotb>  (187) 
0

>  <r_i_glide_esite>  (187) 
0

>  <r_i_glide_emodel>  (187) 
-9.82894

>  <r_i_glide_energy>  (187) 
-8.53605

>  <r_i_glide_einternal>  (187) 
1.97155

>  <r_i_glide_intrahb_reward>  (187) 
-0

>  <i_i_glide_confnum>  (187) 
2

>  <i_i_glide_posenum>  (187) 
39

>  <r_i_glide_eff_state_penalty>  (187) 
0

>  <ligand_id>  (187) 
61

>  <original_smiles>  (187) 
C=C1CC=C2C3CC(C)C(O)C2(O)C(O)C2(C)C1CC(O)C2C3(C)C

>  <smiles>  (187) 
[H]OC1([H])C2(O[H])C3=C([H])C([H])([H])C(=C([H])[H])C4([H])C([H])([H])C([H])(O[H])C([H])(C(C([H])([H])[H])(C([H])([H])[H])C3([H])C([H])([H])C1([H])C([H])([H])[H])C4(C([H])([H])[H])C2([H])O[H]

$$$$
61:3:2
     RDKit          3D

 57 60  0  0  1  0  0  0  0  0999 V2000
    4.0113   -3.4927    7.2488 C   0  0  0  0  0  0  0  0  0  0  0  0
    4.0385   -3.0567    5.9806 C   0  0  0  0  0  0  0  0  0  0  0  0
    5.3118   -3.3110    5.1570 C   0  0  0  0  0  0  0  0  0  0  0  0
    4.9230   -4.2311    4.0590 C   0  0  0  0  0  0  0  0  0  0  0  0
    4.4921   -3.8568    2.8361 C   0  0  0  0  0  0  0  0  0  0  0  0
    4.8796   -2.5872    2.0555 C   0  0  1  0  0  0  0  0  0  0  0  0
    4.7407   -2.8565    0.5339 C   0  0  0  0  0  0  0  0  0  0  0  0
    3.2980   -3.2342    0.1625 C   0  0  1  0  0  0  0  0  0  0  0  0
    3.0596   -3.2036   -1.3598 C   0  0  0  0  0  0  0  0  0  0  0  0
    2.9868   -4.5787    0.8183 C   0  0  1  0  0  0  0  0  0  0  0  0
    3.7326   -5.5835    0.1365 O   0  0  0  0  0  0  0  0  0  0  0  0
    3.2464   -4.5755    2.3680 C   0  0  1  0  0  0  0  0  0  0  0  0
    3.3286   -5.9697    2.6589 O   0  0  0  0  0  0  0  0  0  0  0  0
    2.1024   -3.9399    3.2396 C   0  0  1  0  0  0  0  0  0  0  0  0
    1.6885   -4.8386    4.2664 O   0  0  0  0  0  0  0  0  0  0  0  0
    2.2149   -2.4971    3.9398 C   0  0  1  0  0  0  0  0  0  0  0  0
    0.6673   -2.2023    4.0791 C   0  0  0  0  0  0  0  0  0  0  0  0
    2.7888   -2.3200    5.4114 C   0  0  2  0  0  0  0  0  0  0  0  0
    2.8670   -0.7866    5.6260 C   0  0  0  0  0  0  0  0  0  0  0  0
    2.5892   -0.1211    4.2638 C   0  0  1  0  0  0  0  0  0  0  0  0
    3.2009    1.1389    4.1408 O   0  0  0  0  0  0  0  0  0  0  0  0
    2.8240   -1.2354    3.1843 C   0  0  1  0  0  0  0  0  0  0  0  0
    4.2914   -1.2000    2.5460 C   0  0  0  0  0  0  0  0  0  0  0  0
    5.3937   -0.4899    3.4047 C   0  0  0  0  0  0  0  0  0  0  0  0
    4.1754   -0.2021    1.3496 C   0  0  0  0  0  0  0  0  0  0  0  0
    3.1468   -3.3444    7.8869 H   0  0  0  0  0  0  0  0  0  0  0  0
    4.8581   -4.0089    7.6845 H   0  0  0  0  0  0  0  0  0  0  0  0
    5.8218   -2.4336    4.8181 H   0  0  0  0  0  0  0  0  0  0  0  0
    6.0476   -3.8244    5.7747 H   0  0  0  0  0  0  0  0  0  0  0  0
    4.5345   -5.1347    4.5001 H   0  0  0  0  0  0  0  0  0  0  0  0
    5.9599   -2.5596    2.1835 H   0  0  0  0  0  0  0  0  0  0  0  0
    5.0964   -2.0301   -0.0830 H   0  0  0  0  0  0  0  0  0  0  0  0
    5.4187   -3.6665    0.2640 H   0  0  0  0  0  0  0  0  0  0  0  0
    2.6078   -2.5121    0.5894 H   0  0  0  0  0  0  0  0  0  0  0  0
    3.7427   -3.8553   -1.9091 H   0  0  0  0  0  0  0  0  0  0  0  0
    3.1949   -2.1877   -1.7386 H   0  0  0  0  0  0  0  0  0  0  0  0
    2.0388   -3.5022   -1.5996 H   0  0  0  0  0  0  0  0  0  0  0  0
    1.9411   -4.8280    0.6421 H   0  0  0  0  0  0  0  0  0  0  0  0
    3.4573   -5.5958   -0.7755 H   0  0  0  0  0  0  0  0  0  0  0  0
    3.9410   -6.3366    2.0256 H   0  0  0  0  0  0  0  0  0  0  0  0
    1.2524   -3.9150    2.5593 H   0  0  0  0  0  0  0  0  0  0  0  0
    2.4353   -5.0021    4.8279 H   0  0  0  0  0  0  0  0  0  0  0  0
    0.4055   -1.4265    4.7948 H   0  0  0  0  0  0  0  0  0  0  0  0
    0.0931   -3.0559    4.4407 H   0  0  0  0  0  0  0  0  0  0  0  0
    0.2372   -1.9233    3.1165 H   0  0  0  0  0  0  0  0  0  0  0  0
    1.9924   -2.6714    6.0756 H   0  0  0  0  0  0  0  0  0  0  0  0
    2.1171   -0.4655    6.3469 H   0  0  0  0  0  0  0  0  0  0  0  0
    3.8220   -0.4906    6.0537 H   0  0  0  0  0  0  0  0  0  0  0  0
    1.5429    0.1803    4.2200 H   0  0  0  0  0  0  0  0  0  0  0  0
    2.9371    1.5253    3.3130 H   0  0  0  0  0  0  0  0  0  0  0  0
    2.1431   -1.0355    2.3516 H   0  0  0  0  0  0  0  0  0  0  0  0
    5.4514    0.5781    3.2172 H   0  0  0  0  0  0  0  0  0  0  0  0
    6.4062   -0.8185    3.1881 H   0  0  0  0  0  0  0  0  0  0  0  0
    5.2430   -0.5434    4.4745 H   0  0  0  0  0  0  0  0  0  0  0  0
    3.8180    0.7762    1.6705 H   0  0  0  0  0  0  0  0  0  0  0  0
    3.4660   -0.5160    0.5836 H   0  0  0  0  0  0  0  0  0  0  0  0
    5.1402   -0.0306    0.8657 H   0  0  0  0  0  0  0  0  0  0  0  0
  1  2  2  0
  1 26  1  0
  1 27  1  0
  2 18  1  0
  2  3  1  0
  3  4  1  0
  3 28  1  0
  3 29  1  0
  4  5  2  3
  4 30  1  0
  5 12  1  0
  5  6  1  0
  6 23  1  0
  6  7  1  0
  6 31  1  6
  7  8  1  0
  7 32  1  0
  7 33  1  0
  8  9  1  0
  8 10  1  0
  8 34  1  1
  9 35  1  0
  9 36  1  0
  9 37  1  0
 10 11  1  0
 10 12  1  0
 10 38  1  1
 11 39  1  0
 12 13  1  1
 12 14  1  0
 13 40  1  0
 14 15  1  0
 14 16  1  0
 14 41  1  6
 15 42  1  0
 16 22  1  0
 16 17  1  1
 16 18  1  0
 17 43  1  0
 17 44  1  0
 17 45  1  0
 18 19  1  0
 18 46  1  1
 19 20  1  0
 19 47  1  0
 19 48  1  0
 20 21  1  0
 20 22  1  0
 20 49  1  1
 21 50  1  0
 22 23  1  0
 22 51  1  6
 23 24  1  0
 23 25  1  0
 24 52  1  0
 24 53  1  0
 24 54  1  0
 25 55  1  0
 25 56  1  0
 25 57  1  0
M  END
>  <i_m_ct_stereo_status>  (188) 
1

>  <s_m_source_file>  (188) 
/var/tmp/pbs.5076255.sched01/tmph8v5ro6p/78zitxkb1g.sdf

>  <i_m_source_file_index>  (188) 
4

>  <i_lp_mmshare_version>  (188) 
48012

>  <i_f3d_flags>  (188) 
0

>  <s_epik_input>  (188) 
W0NIXT0xXFtDSDJdQyg9W0NIMl0pW0NAQEhdKFtDSDJdW0NASF0yW09IXSlbQ0BdKFtDSDNdKShbQ0BASF0zW09IXSlbQ0BASF0yQyhbQ0gzXSkoW0NIM10pW0NASF0oXEMxW0NAQF0zNFtPSF0pW0NIMl1bQ0BASF0oW0NIM10pW0NASF00W09IXQ==

>  <s_epik_cmdline>  (188) 
J2VwaWtfcHl0aG9uJywgJy1waHQnLCAnMi4wJywgJy1waCcsICc3LjAnLCAnLXRuJywgJzgnLCAnLW1hJywgJzIwMCcsICctaW1hZScsICc8aW5maWxlLm1hZT4nLCAnLW9tYWUnLCAnPG91dGZpbGUubWFlPic=

>  <r_lp_tautomer_probability>  (188) 
1

>  <r_epik_Ionization_Penalty>  (188) 
8.64734e-07

>  <r_epik_Ionization_Penalty_Charging>  (188) 
0

>  <r_epik_Ionization_Penalty_Neutral>  (188) 
8.64734e-07

>  <r_epik_State_Penalty>  (188) 
-0

>  <r_epik_Charging_Adjusted_Penalty>  (188) 
0

>  <i_epik_Tot_Q>  (188) 
0

>  <i_epik_Tot_abs_Q>  (188) 
0

>  <s_lp_Force_Field>  (188) 
OPLS3e

>  <r_lp_Energy>  (188) 
131.005

>  <b_lp_Chiralities_Consistent>  (188) 
1

>  <s_lp_Variant>  (188) 
61:0-4

>  <s_i_glide_gridfile>  (188) 
pfpi4k_grid

>  <i_i_glide_lignum>  (188) 
4

>  <i_i_glide_rotatable_bonds>  (188) 
4

>  <r_i_docking_score>  (188) 
-3.09039

>  <r_i_glide_ligand_efficiency>  (188) 
-0.123616

>  <r_i_glide_ligand_efficiency_sa>  (188) 
-0.361454

>  <r_i_glide_ligand_efficiency_ln>  (188) 
-0.732515

>  <r_i_glide_gscore>  (188) 
-3.09039

>  <r_i_glide_lipo>  (188) 
-0.450393

>  <r_i_glide_hbond>  (188) 
0

>  <r_i_glide_metal>  (188) 
-0

>  <r_i_glide_rewards>  (188) 
-1.03312

>  <r_i_glide_evdw>  (188) 
-19.6793

>  <r_i_glide_ecoul>  (188) 
-4.15277

>  <r_i_glide_erotb>  (188) 
0

>  <r_i_glide_esite>  (188) 
0

>  <r_i_glide_emodel>  (188) 
-27.7948

>  <r_i_glide_energy>  (188) 
-23.8321

>  <r_i_glide_einternal>  (188) 
0.680083

>  <r_i_glide_intrahb_reward>  (188) 
-0

>  <i_i_glide_confnum>  (188) 
2

>  <i_i_glide_posenum>  (188) 
38

>  <r_i_glide_eff_state_penalty>  (188) 
0

>  <ligand_id>  (188) 
61

>  <original_smiles>  (188) 
C=C1CC=C2C3CC(C)C(O)C2(O)C(O)C2(C)C1CC(O)C2C3(C)C

>  <smiles>  (188) 
[H]OC1([H])C2(O[H])C3=C([H])C([H])([H])C(=C([H])[H])C4([H])C([H])([H])C([H])(O[H])C([H])(C(C([H])([H])[H])(C([H])([H])[H])C3([H])C([H])([H])C1([H])C([H])([H])[H])C4(C([H])([H])[H])C2([H])O[H]

$$$$
63:0:0
     RDKit          3D

 79 83  0  0  1  0  0  0  0  0999 V2000
    4.6885    0.3478    4.1854 C   0  0  0  0  0  0  0  0  0  0  0  0
    4.4984   -0.8489    3.6065 C   0  0  0  0  0  0  0  0  0  0  0  0
    4.7714   -2.1712    4.2985 C   0  0  0  0  0  0  0  0  0  0  0  0
    4.7088   -3.1716    3.1414 C   0  0  1  0  0  0  0  0  0  0  0  0
    4.5323   -4.6685    3.3900 C   0  0  0  0  0  0  0  0  0  0  0  0
    4.1109   -5.1484    4.5747 C   0  0  0  0  0  0  0  0  0  0  0  0
    3.6722   -6.5667    4.8193 C   0  0  0  0  0  0  0  0  0  0  0  0
    3.4186   -7.3769    3.5269 C   0  0  2  0  0  0  0  0  0  0  0  0
    3.1995   -8.9033    3.8178 C   0  0  2  0  0  0  0  0  0  0  0  0
    1.9906   -9.2829    4.7342 C   0  0  1  0  0  0  0  0  0  0  0  0
    0.6971   -8.5008    4.4253 C   0  0  0  0  0  0  0  0  0  0  0  0
    1.7264  -10.8190    4.7123 C   0  0  1  0  0  0  0  0  0  0  0  0
    1.0212  -11.3276    3.4391 C   0  0  0  0  0  0  0  0  0  0  0  0
    3.0147  -11.6197    4.9855 C   0  0  0  0  0  0  0  0  0  0  0  0
    4.1724  -11.2050    4.0609 C   0  0  0  0  0  0  0  0  0  0  0  0
    4.5063   -9.6970    4.1910 C   0  0  2  0  0  0  0  0  0  0  0  0
    5.0577   -9.4699    5.6275 C   0  0  0  0  0  0  0  0  0  0  0  0
    5.6322   -9.3426    3.1902 C   0  0  0  0  0  0  0  0  0  0  0  0
    5.7924   -7.8263    2.9112 C   0  0  0  0  0  0  0  0  0  0  0  0
    4.4932   -7.1145    2.4151 C   0  0  1  0  0  0  0  0  0  0  0  0
    4.0638   -7.8011    1.0853 C   0  0  0  0  0  0  0  0  0  0  0  0
    4.6878   -5.5396    2.1232 C   0  0  2  0  0  0  0  0  0  0  0  0
    6.1008   -5.3260    1.4965 C   0  0  0  0  0  0  0  0  0  0  0  0
    3.6453   -4.9613    1.0929 C   0  0  0  0  0  0  0  0  0  0  0  0
    3.6727   -3.4144    0.8900 C   0  0  1  0  0  0  0  0  0  0  0  0
    2.6121   -3.0762    0.0228 O   0  0  0  0  0  0  0  0  0  0  0  0
    3.5903   -2.6230    2.2281 C   0  0  1  0  0  0  0  0  0  0  0  0
    2.1920   -2.8522    2.8882 C   0  0  0  0  0  0  0  0  0  0  0  0
    3.9458   -1.0884    2.1953 C   0  0  0  0  0  0  0  0  0  0  0  0
    2.7401   -0.1672    1.8811 C   0  0  0  0  0  0  0  0  0  0  0  0
    5.0556   -0.7411    1.1724 C   0  0  0  0  0  0  0  0  0  0  0  0
    4.4641    1.2673    3.6643 H   0  0  0  0  0  0  0  0  0  0  0  0
    5.0796    0.4207    5.1902 H   0  0  0  0  0  0  0  0  0  0  0  0
    5.7353   -2.1702    4.8075 H   0  0  0  0  0  0  0  0  0  0  0  0
    3.9920   -2.3266    5.0445 H   0  0  0  0  0  0  0  0  0  0  0  0
    5.6696   -3.0578    2.6489 H   0  0  0  0  0  0  0  0  0  0  0  0
    4.0002   -4.4901    5.4207 H   0  0  0  0  0  0  0  0  0  0  0  0
    4.4218   -6.9995    5.4677 H   0  0  0  0  0  0  0  0  0  0  0  0
    2.7535   -6.5185    5.4023 H   0  0  0  0  0  0  0  0  0  0  0  0
    2.4873   -6.9935    3.1114 H   0  0  0  0  0  0  0  0  0  0  0  0
    2.8871   -9.3064    2.8588 H   0  0  0  0  0  0  0  0  0  0  0  0
    2.2416   -9.0239    5.7610 H   0  0  0  0  0  0  0  0  0  0  0  0
    0.4243   -8.5717    3.3727 H   0  0  0  0  0  0  0  0  0  0  0  0
    0.7977   -7.4450    4.6704 H   0  0  0  0  0  0  0  0  0  0  0  0
   -0.1377   -8.8836    5.0131 H   0  0  0  0  0  0  0  0  0  0  0  0
    1.0445  -11.0489    5.5335 H   0  0  0  0  0  0  0  0  0  0  0  0
    1.6010  -11.1247    2.5384 H   0  0  0  0  0  0  0  0  0  0  0  0
    0.0342  -10.8817    3.3162 H   0  0  0  0  0  0  0  0  0  0  0  0
    0.8645  -12.4043    3.4933 H   0  0  0  0  0  0  0  0  0  0  0  0
    3.3024  -11.4887    6.0298 H   0  0  0  0  0  0  0  0  0  0  0  0
    2.8192  -12.6874    4.8770 H   0  0  0  0  0  0  0  0  0  0  0  0
    5.0508  -11.8159    4.2741 H   0  0  0  0  0  0  0  0  0  0  0  0
    3.9010  -11.4398    3.0306 H   0  0  0  0  0  0  0  0  0  0  0  0
    5.6511  -10.3240    5.9554 H   0  0  0  0  0  0  0  0  0  0  0  0
    4.2772   -9.3392    6.3755 H   0  0  0  0  0  0  0  0  0  0  0  0
    5.7304   -8.6176    5.6951 H   0  0  0  0  0  0  0  0  0  0  0  0
    6.5802   -9.7254    3.5682 H   0  0  0  0  0  0  0  0  0  0  0  0
    5.4822   -9.8817    2.2555 H   0  0  0  0  0  0  0  0  0  0  0  0
    6.1571   -7.3295    3.8101 H   0  0  0  0  0  0  0  0  0  0  0  0
    6.5979   -7.7368    2.1838 H   0  0  0  0  0  0  0  0  0  0  0  0
    4.7310   -7.5587    0.2581 H   0  0  0  0  0  0  0  0  0  0  0  0
    3.0553   -7.4928    0.8232 H   0  0  0  0  0  0  0  0  0  0  0  0
    4.0251   -8.8859    1.1160 H   0  0  0  0  0  0  0  0  0  0  0  0
    6.2991   -6.0268    0.6869 H   0  0  0  0  0  0  0  0  0  0  0  0
    6.8860   -5.4427    2.2428 H   0  0  0  0  0  0  0  0  0  0  0  0
    6.2472   -4.3437    1.0560 H   0  0  0  0  0  0  0  0  0  0  0  0
    3.7912   -5.4053    0.1075 H   0  0  0  0  0  0  0  0  0  0  0  0
    2.6414   -5.2557    1.3981 H   0  0  0  0  0  0  0  0  0  0  0  0
    4.5880   -3.1607    0.3609 H   0  0  0  0  0  0  0  0  0  0  0  0
    2.5241   -2.1308   -0.0355 H   0  0  0  0  0  0  0  0  0  0  0  0
    1.3826   -2.5031    2.2470 H   0  0  0  0  0  0  0  0  0  0  0  0
    2.0838   -2.3217    3.8344 H   0  0  0  0  0  0  0  0  0  0  0  0
    1.9899   -3.9014    3.0960 H   0  0  0  0  0  0  0  0  0  0  0  0
    2.2600   -0.4470    0.9448 H   0  0  0  0  0  0  0  0  0  0  0  0
    3.0440    0.8738    1.7768 H   0  0  0  0  0  0  0  0  0  0  0  0
    1.9805   -0.1933    2.6607 H   0  0  0  0  0  0  0  0  0  0  0  0
    4.7145   -0.8807    0.1472 H   0  0  0  0  0  0  0  0  0  0  0  0
    5.9587   -1.3343    1.3125 H   0  0  0  0  0  0  0  0  0  0  0  0
    5.3539    0.3014    1.2570 H   0  0  0  0  0  0  0  0  0  0  0  0
  1  2  2  0
  1 32  1  0
  1 33  1  0
  2 29  1  0
  2  3  1  0
  3  4  1  0
  3 34  1  0
  3 35  1  0
  4 27  1  0
  4  5  1  0
  4 36  1  6
  5 22  1  0
  5  6  2  0
  6  7  1  0
  6 37  1  0
  7  8  1  0
  7 38  1  0
  7 39  1  0
  8 20  1  0
  8  9  1  0
  8 40  1  6
  9 16  1  0
  9 10  1  0
  9 41  1  6
 10 11  1  0
 10 12  1  0
 10 42  1  1
 11 43  1  0
 11 44  1  0
 11 45  1  0
 12 13  1  0
 12 14  1  0
 12 46  1  1
 13 47  1  0
 13 48  1  0
 13 49  1  0
 14 15  1  0
 14 50  1  0
 14 51  1  0
 15 16  1  0
 15 52  1  0
 15 53  1  0
 16 17  1  1
 16 18  1  0
 17 54  1  0
 17 55  1  0
 17 56  1  0
 18 19  1  0
 18 57  1  0
 18 58  1  0
 19 20  1  0
 19 59  1  0
 19 60  1  0
 20 21  1  6
 20 22  1  0
 21 61  1  0
 21 62  1  0
 21 63  1  0
 22 23  1  6
 22 24  1  0
 23 64  1  0
 23 65  1  0
 23 66  1  0
 24 25  1  0
 24 67  1  0
 24 68  1  0
 25 26  1  0
 25 27  1  0
 25 69  1  6
 26 70  1  0
 27 28  1  1
 27 29  1  0
 28 71  1  0
 28 72  1  0
 28 73  1  0
 29 30  1  0
 29 31  1  0
 30 74  1  0
 30 75  1  0
 30 76  1  0
 31 77  1  0
 31 78  1  0
 31 79  1  0
M  END
>  <i_m_ct_stereo_status>  (189) 
1

>  <s_m_source_file>  (189) 
/var/tmp/pbs.5076255.sched01/tmph8v5ro6p/78zitxkb1g.sdf

>  <i_m_source_file_index>  (189) 
6

>  <i_lp_mmshare_version>  (189) 
48012

>  <i_f3d_flags>  (189) 
0

>  <s_epik_input>  (189) 
W0NIMl09QyhbQ0gyXTEpQyhbQ0gzXSkoW0NIM10pW0NAQF0oW0NIM10pKFtDQEBIXShbQ0gyXTIpW09IXSlbQ0BASF0xQyg9W0NIXVtDSDJdMylbQ0BAXTIoW0NIM10pW0NAQF0oW0NIM10pKFtDSDJdW0NIMl00KVtDQEhdM1tDQEBIXShbQ0BdNDVbQ0gzXSlbQ0BASF0oW0NIM10pW0NAQEhdKFtDSDNdKVtDSDJdW0NIMl01

>  <s_epik_cmdline>  (189) 
J2VwaWtfcHl0aG9uJywgJy1waHQnLCAnMi4wJywgJy1waCcsICc3LjAnLCAnLXRuJywgJzgnLCAnLW1hJywgJzIwMCcsICctaW1hZScsICc8aW5maWxlLm1hZT4nLCAnLW9tYWUnLCAnPG91dGZpbGUubWFlPic=

>  <r_lp_tautomer_probability>  (189) 
1

>  <r_epik_Ionization_Penalty>  (189) 
1.42021e-06

>  <r_epik_Ionization_Penalty_Charging>  (189) 
0

>  <r_epik_Ionization_Penalty_Neutral>  (189) 
1.42021e-06

>  <r_epik_State_Penalty>  (189) 
-0

>  <r_epik_Charging_Adjusted_Penalty>  (189) 
0

>  <i_epik_Tot_Q>  (189) 
0

>  <i_epik_Tot_abs_Q>  (189) 
0

>  <s_lp_Force_Field>  (189) 
OPLS3e

>  <r_lp_Energy>  (189) 
84.7805

>  <b_lp_Chiralities_Consistent>  (189) 
1

>  <s_lp_Variant>  (189) 
63:0-1

>  <s_i_glide_gridfile>  (189) 
pfpi4k_grid

>  <i_i_glide_lignum>  (189) 
6

>  <i_i_glide_rotatable_bonds>  (189) 
1

>  <r_i_docking_score>  (189) 
-2.84444

>  <r_i_glide_ligand_efficiency>  (189) 
-0.0917562

>  <r_i_glide_ligand_efficiency_sa>  (189) 
-0.288241

>  <r_i_glide_ligand_efficiency_ln>  (189) 
-0.641509

>  <r_i_glide_gscore>  (189) 
-2.84444

>  <r_i_glide_lipo>  (189) 
-0.694269

>  <r_i_glide_hbond>  (189) 
-0.0357635

>  <r_i_glide_metal>  (189) 
-0

>  <r_i_glide_rewards>  (189) 
-0.513399

>  <r_i_glide_evdw>  (189) 
-28.0142

>  <r_i_glide_ecoul>  (189) 
-1.33534

>  <r_i_glide_erotb>  (189) 
0

>  <r_i_glide_esite>  (189) 
0

>  <r_i_glide_emodel>  (189) 
-34.4805

>  <r_i_glide_energy>  (189) 
-29.3496

>  <r_i_glide_einternal>  (189) 
0.453997

>  <r_i_glide_intrahb_reward>  (189) 
-0

>  <i_i_glide_confnum>  (189) 
1

>  <i_i_glide_posenum>  (189) 
32

>  <r_i_glide_eff_state_penalty>  (189) 
0

>  <ligand_id>  (189) 
63

>  <original_smiles>  (189) 
C=C1CC2C3=CCC4C5C(C)C(C)CCC5(C)CCC4(C)C3(C)CC(O)C2(C)C1(C)C

>  <smiles>  (189) 
[H]OC1([H])C([H])([H])C2(C([H])([H])[H])C(=C([H])C([H])([H])C3([H])C4([H])C([H])(C([H])([H])[H])C([H])(C([H])([H])[H])C([H])([H])C([H])([H])C4(C([H])([H])[H])C([H])([H])C([H])([H])C32C([H])([H])[H])C2([H])C([H])([H])C(=C([H])[H])C(C([H])([H])[H])(C([H])([H])[H])C12C([H])([H])[H]

$$$$
63:0:1
     RDKit          3D

 79 83  0  0  1  0  0  0  0  0999 V2000
    4.6656    0.4631    4.2277 C   0  0  0  0  0  0  0  0  0  0  0  0
    4.5107   -0.7199    3.6193 C   0  0  0  0  0  0  0  0  0  0  0  0
    4.6170   -2.0505    4.3380 C   0  0  0  0  0  0  0  0  0  0  0  0
    4.6751   -3.0457    3.1778 C   0  0  1  0  0  0  0  0  0  0  0  0
    4.3969   -4.5299    3.3948 C   0  0  0  0  0  0  0  0  0  0  0  0
    3.7803   -4.9870    4.5017 C   0  0  0  0  0  0  0  0  0  0  0  0
    3.2480   -6.3836    4.6710 C   0  0  0  0  0  0  0  0  0  0  0  0
    3.1518   -7.1825    3.3499 C   0  0  2  0  0  0  0  0  0  0  0  0
    2.8210   -8.6945    3.6015 C   0  0  2  0  0  0  0  0  0  0  0  0
    1.4731   -9.0133    4.3304 C   0  0  1  0  0  0  0  0  0  0  0  0
    0.2783   -8.1758    3.8304 C   0  0  0  0  0  0  0  0  0  0  0  0
    1.1433  -10.5340    4.2716 C   0  0  1  0  0  0  0  0  0  0  0  0
    0.6215  -11.0023    2.9025 C   0  0  0  0  0  0  0  0  0  0  0  0
    2.3373  -11.3949    4.7240 C   0  0  0  0  0  0  0  0  0  0  0  0
    3.6377  -11.0397    3.9786 C   0  0  0  0  0  0  0  0  0  0  0  0
    4.0180   -9.5485    4.1611 C   0  0  2  0  0  0  0  0  0  0  0  0
    4.3599   -9.3430    5.6642 C   0  0  0  0  0  0  0  0  0  0  0  0
    5.2951   -9.2509    3.3407 C   0  0  0  0  0  0  0  0  0  0  0  0
    5.5661   -7.7451    3.0924 C   0  0  0  0  0  0  0  0  0  0  0  0
    4.3905   -6.9732    2.4107 C   0  0  1  0  0  0  0  0  0  0  0  0
    4.1427   -7.6401    1.0242 C   0  0  0  0  0  0  0  0  0  0  0  0
    4.6977   -5.4099    2.1605 C   0  0  2  0  0  0  0  0  0  0  0  0
    6.1979   -5.2657    1.7539 C   0  0  0  0  0  0  0  0  0  0  0  0
    3.8444   -4.7891    0.9896 C   0  0  0  0  0  0  0  0  0  0  0  0
    3.9624   -3.2472    0.7946 C   0  0  1  0  0  0  0  0  0  0  0  0
    3.0673   -2.8575   -0.2284 O   0  0  0  0  0  0  0  0  0  0  0  0
    3.7289   -2.4480    2.1107 C   0  0  1  0  0  0  0  0  0  0  0  0
    2.2394   -2.6070    2.5538 C   0  0  0  0  0  0  0  0  0  0  0  0
    4.1599   -0.9359    2.1401 C   0  0  0  0  0  0  0  0  0  0  0  0
    3.0594    0.0405    1.6576 C   0  0  0  0  0  0  0  0  0  0  0  0
    5.4223   -0.6560    1.2908 C   0  0  0  0  0  0  0  0  0  0  0  0
    4.5599    1.3834    3.6801 H   0  0  0  0  0  0  0  0  0  0  0  0
    4.9061    0.5204    5.2800 H   0  0  0  0  0  0  0  0  0  0  0  0
    5.4955   -2.0879    4.9824 H   0  0  0  0  0  0  0  0  0  0  0  0
    3.7297   -2.1602    4.9618 H   0  0  0  0  0  0  0  0  0  0  0  0
    5.7031   -2.9804    2.8351 H   0  0  0  0  0  0  0  0  0  0  0  0
    3.5762   -4.3222    5.3256 H   0  0  0  0  0  0  0  0  0  0  0  0
    3.8769   -6.8456    5.4206 H   0  0  0  0  0  0  0  0  0  0  0  0
    2.2561   -6.2901    5.1106 H   0  0  0  0  0  0  0  0  0  0  0  0
    2.3126   -6.7574    2.8004 H   0  0  0  0  0  0  0  0  0  0  0  0
    2.6389   -9.0837    2.6049 H   0  0  0  0  0  0  0  0  0  0  0  0
    1.5805   -8.7597    5.3833 H   0  0  0  0  0  0  0  0  0  0  0  0
    0.1638   -8.2406    2.7480 H   0  0  0  0  0  0  0  0  0  0  0  0
    0.3892   -7.1248    4.0901 H   0  0  0  0  0  0  0  0  0  0  0  0
   -0.6509   -8.5194    4.2861 H   0  0  0  0  0  0  0  0  0  0  0  0
    0.3315  -10.7318    4.9782 H   0  0  0  0  0  0  0  0  0  0  0  0
    1.3244  -10.7572    2.1073 H   0  0  0  0  0  0  0  0  0  0  0  0
   -0.3323  -10.5411    2.6449 H   0  0  0  0  0  0  0  0  0  0  0  0
    0.4648  -12.0833    2.9080 H   0  0  0  0  0  0  0  0  0  0  0  0
    2.4837  -11.2714    5.7985 H   0  0  0  0  0  0  0  0  0  0  0  0
    2.1131  -12.4543    4.5842 H   0  0  0  0  0  0  0  0  0  0  0  0
    4.4449  -11.6880    4.3221 H   0  0  0  0  0  0  0  0  0  0  0  0
    3.5134  -11.2678    2.9188 H   0  0  0  0  0  0  0  0  0  0  0  0
    4.8584  -10.2237    6.0708 H   0  0  0  0  0  0  0  0  0  0  0  0
    3.4833   -9.1772    6.2890 H   0  0  0  0  0  0  0  0  0  0  0  0
    5.0539   -8.5222    5.8344 H   0  0  0  0  0  0  0  0  0  0  0  0
    6.1564   -9.6704    3.8614 H   0  0  0  0  0  0  0  0  0  0  0  0
    5.2629   -9.7904    2.3941 H   0  0  0  0  0  0  0  0  0  0  0  0
    5.8160   -7.2650    4.0379 H   0  0  0  0  0  0  0  0  0  0  0  0
    6.4753   -7.6969    2.4950 H   0  0  0  0  0  0  0  0  0  0  0  0
    4.9499   -7.4384    0.3200 H   0  0  0  0  0  0  0  0  0  0  0  0
    3.2160   -7.2742    0.5896 H   0  0  0  0  0  0  0  0  0  0  0  0
    4.0400   -8.7210    1.0503 H   0  0  0  0  0  0  0  0  0  0  0  0
    6.4805   -5.9781    0.9804 H   0  0  0  0  0  0  0  0  0  0  0  0
    6.8566   -5.4205    2.6090 H   0  0  0  0  0  0  0  0  0  0  0  0
    6.4549   -4.2925    1.3444 H   0  0  0  0  0  0  0  0  0  0  0  0
    4.1207   -5.2402    0.0358 H   0  0  0  0  0  0  0  0  0  0  0  0
    2.7949   -5.0396    1.1422 H   0  0  0  0  0  0  0  0  0  0  0  0
    4.9605   -3.0449    0.4137 H   0  0  0  0  0  0  0  0  0  0  0  0
    2.4609   -2.2050    0.1064 H   0  0  0  0  0  0  0  0  0  0  0  0
    1.5456   -2.2211    1.8044 H   0  0  0  0  0  0  0  0  0  0  0  0
    2.0245   -2.0688    3.4779 H   0  0  0  0  0  0  0  0  0  0  0  0
    1.9656   -3.6467    2.7259 H   0  0  0  0  0  0  0  0  0  0  0  0
    2.7167   -0.2237    0.6595 H   0  0  0  0  0  0  0  0  0  0  0  0
    3.4202    1.0655    1.6042 H   0  0  0  0  0  0  0  0  0  0  0  0
    2.1912    0.0538    2.3127 H   0  0  0  0  0  0  0  0  0  0  0  0
    5.2282   -0.7834    0.2269 H   0  0  0  0  0  0  0  0  0  0  0  0
    6.2676   -1.2870    1.5639 H   0  0  0  0  0  0  0  0  0  0  0  0
    5.7555    0.3704    1.4178 H   0  0  0  0  0  0  0  0  0  0  0  0
  1  2  2  0
  1 32  1  0
  1 33  1  0
  2 29  1  0
  2  3  1  0
  3  4  1  0
  3 34  1  0
  3 35  1  0
  4 27  1  0
  4  5  1  0
  4 36  1  6
  5 22  1  0
  5  6  2  0
  6  7  1  0
  6 37  1  0
  7  8  1  0
  7 38  1  0
  7 39  1  0
  8 20  1  0
  8  9  1  0
  8 40  1  6
  9 16  1  0
  9 10  1  0
  9 41  1  6
 10 11  1  0
 10 12  1  0
 10 42  1  1
 11 43  1  0
 11 44  1  0
 11 45  1  0
 12 13  1  0
 12 14  1  0
 12 46  1  1
 13 47  1  0
 13 48  1  0
 13 49  1  0
 14 15  1  0
 14 50  1  0
 14 51  1  0
 15 16  1  0
 15 52  1  0
 15 53  1  0
 16 17  1  1
 16 18  1  0
 17 54  1  0
 17 55  1  0
 17 56  1  0
 18 19  1  0
 18 57  1  0
 18 58  1  0
 19 20  1  0
 19 59  1  0
 19 60  1  0
 20 21  1  6
 20 22  1  0
 21 61  1  0
 21 62  1  0
 21 63  1  0
 22 23  1  6
 22 24  1  0
 23 64  1  0
 23 65  1  0
 23 66  1  0
 24 25  1  0
 24 67  1  0
 24 68  1  0
 25 26  1  0
 25 27  1  0
 25 69  1  6
 26 70  1  0
 27 28  1  1
 27 29  1  0
 28 71  1  0
 28 72  1  0
 28 73  1  0
 29 30  1  0
 29 31  1  0
 30 74  1  0
 30 75  1  0
 30 76  1  0
 31 77  1  0
 31 78  1  0
 31 79  1  0
M  END
>  <i_m_ct_stereo_status>  (190) 
1

>  <s_m_source_file>  (190) 
/var/tmp/pbs.5076255.sched01/tmph8v5ro6p/78zitxkb1g.sdf

>  <i_m_source_file_index>  (190) 
6

>  <i_lp_mmshare_version>  (190) 
48012

>  <i_f3d_flags>  (190) 
0

>  <s_epik_input>  (190) 
W0NIMl09QyhbQ0gyXTEpQyhbQ0gzXSkoW0NIM10pW0NAQF0oW0NIM10pKFtDQEBIXShbQ0gyXTIpW09IXSlbQ0BASF0xQyg9W0NIXVtDSDJdMylbQ0BAXTIoW0NIM10pW0NAQF0oW0NIM10pKFtDSDJdW0NIMl00KVtDQEhdM1tDQEBIXShbQ0BdNDVbQ0gzXSlbQ0BASF0oW0NIM10pW0NAQEhdKFtDSDNdKVtDSDJdW0NIMl01

>  <s_epik_cmdline>  (190) 
J2VwaWtfcHl0aG9uJywgJy1waHQnLCAnMi4wJywgJy1waCcsICc3LjAnLCAnLXRuJywgJzgnLCAnLW1hJywgJzIwMCcsICctaW1hZScsICc8aW5maWxlLm1hZT4nLCAnLW9tYWUnLCAnPG91dGZpbGUubWFlPic=

>  <r_lp_tautomer_probability>  (190) 
1

>  <r_epik_Ionization_Penalty>  (190) 
1.42021e-06

>  <r_epik_Ionization_Penalty_Charging>  (190) 
0

>  <r_epik_Ionization_Penalty_Neutral>  (190) 
1.42021e-06

>  <r_epik_State_Penalty>  (190) 
-0

>  <r_epik_Charging_Adjusted_Penalty>  (190) 
0

>  <i_epik_Tot_Q>  (190) 
0

>  <i_epik_Tot_abs_Q>  (190) 
0

>  <s_lp_Force_Field>  (190) 
OPLS3e

>  <r_lp_Energy>  (190) 
84.7805

>  <b_lp_Chiralities_Consistent>  (190) 
1

>  <s_lp_Variant>  (190) 
63:0-1

>  <s_i_glide_gridfile>  (190) 
pfpi4k_grid

>  <i_i_glide_lignum>  (190) 
6

>  <i_i_glide_rotatable_bonds>  (190) 
1

>  <r_i_docking_score>  (190) 
-2.68703

>  <r_i_glide_ligand_efficiency>  (190) 
-0.0866783

>  <r_i_glide_ligand_efficiency_sa>  (190) 
-0.27229

>  <r_i_glide_ligand_efficiency_ln>  (190) 
-0.606007

>  <r_i_glide_gscore>  (190) 
-2.68703

>  <r_i_glide_lipo>  (190) 
-0.570171

>  <r_i_glide_hbond>  (190) 
-0.036443

>  <r_i_glide_metal>  (190) 
-0

>  <r_i_glide_rewards>  (190) 
-0.513399

>  <r_i_glide_evdw>  (190) 
-28.1841

>  <r_i_glide_ecoul>  (190) 
-1.05205

>  <r_i_glide_erotb>  (190) 
0

>  <r_i_glide_esite>  (190) 
0

>  <r_i_glide_emodel>  (190) 
-33.4665

>  <r_i_glide_energy>  (190) 
-29.2362

>  <r_i_glide_einternal>  (190) 
1.34123

>  <r_i_glide_intrahb_reward>  (190) 
-0

>  <i_i_glide_confnum>  (190) 
1

>  <i_i_glide_posenum>  (190) 
27

>  <r_i_glide_eff_state_penalty>  (190) 
0

>  <ligand_id>  (190) 
63

>  <original_smiles>  (190) 
C=C1CC2C3=CCC4C5C(C)C(C)CCC5(C)CCC4(C)C3(C)CC(O)C2(C)C1(C)C

>  <smiles>  (190) 
[H]OC1([H])C([H])([H])C2(C([H])([H])[H])C(=C([H])C([H])([H])C3([H])C4([H])C([H])(C([H])([H])[H])C([H])(C([H])([H])[H])C([H])([H])C([H])([H])C4(C([H])([H])[H])C([H])([H])C([H])([H])C32C([H])([H])[H])C2([H])C([H])([H])C(=C([H])[H])C(C([H])([H])[H])(C([H])([H])[H])C12C([H])([H])[H]

$$$$
63:0:2
     RDKit          3D

 79 83  0  0  1  0  0  0  0  0999 V2000
   -1.9233    3.5126    3.4386 C   0  0  0  0  0  0  0  0  0  0  0  0
   -0.7818    2.8321    3.6344 C   0  0  0  0  0  0  0  0  0  0  0  0
   -0.5156    1.4473    3.0748 C   0  0  0  0  0  0  0  0  0  0  0  0
    0.7367    1.0142    3.8479 C   0  0  1  0  0  0  0  0  0  0  0  0
    1.6137   -0.1400    3.3668 C   0  0  0  0  0  0  0  0  0  0  0  0
    1.5371   -0.6174    2.1141 C   0  0  0  0  0  0  0  0  0  0  0  0
    2.5251   -1.5695    1.4966 C   0  0  0  0  0  0  0  0  0  0  0  0
    3.8440   -1.7083    2.2858 C   0  0  2  0  0  0  0  0  0  0  0  0
    4.7345   -2.8785    1.7376 C   0  0  2  0  0  0  0  0  0  0  0  0
    5.2034   -2.7733    0.2519 C   0  0  1  0  0  0  0  0  0  0  0  0
    5.6708   -1.3622   -0.1612 C   0  0  0  0  0  0  0  0  0  0  0  0
    6.2937   -3.8381   -0.0764 C   0  0  1  0  0  0  0  0  0  0  0  0
    7.7004   -3.5205    0.4740 C   0  0  0  0  0  0  0  0  0  0  0  0
    5.8514   -5.2507    0.3590 C   0  0  0  0  0  0  0  0  0  0  0  0
    5.3966   -5.2976    1.8272 C   0  0  0  0  0  0  0  0  0  0  0  0
    4.2247   -4.3228    2.0995 C   0  0  2  0  0  0  0  0  0  0  0  0
    3.0006   -4.8444    1.2930 C   0  0  0  0  0  0  0  0  0  0  0  0
    3.8611   -4.3796    3.6016 C   0  0  0  0  0  0  0  0  0  0  0  0
    3.0050   -3.1879    4.1037 C   0  0  0  0  0  0  0  0  0  0  0  0
    3.6258   -1.7754    3.8355 C   0  0  1  0  0  0  0  0  0  0  0  0
    4.9991   -1.7124    4.5757 C   0  0  0  0  0  0  0  0  0  0  0  0
    2.7115   -0.5597    4.3723 C   0  0  2  0  0  0  0  0  0  0  0  0
    2.0588   -0.9909    5.7220 C   0  0  0  0  0  0  0  0  0  0  0  0
    3.5343    0.7526    4.6553 C   0  0  0  0  0  0  0  0  0  0  0  0
    2.6979    2.0179    5.0219 C   0  0  1  0  0  0  0  0  0  0  0  0
    3.5706    3.1236    5.1475 O   0  0  0  0  0  0  0  0  0  0  0  0
    1.5621    2.3125    3.9966 C   0  0  1  0  0  0  0  0  0  0  0  0
    2.2001    2.7093    2.6248 C   0  0  0  0  0  0  0  0  0  0  0  0
    0.4389    3.3365    4.4144 C   0  0  0  0  0  0  0  0  0  0  0  0
    0.7775    4.8097    4.0760 C   0  0  0  0  0  0  0  0  0  0  0  0
    0.0974    3.2904    5.9243 C   0  0  0  0  0  0  0  0  0  0  0  0
   -2.0552    4.4994    3.8520 H   0  0  0  0  0  0  0  0  0  0  0  0
   -2.7306    3.0853    2.8609 H   0  0  0  0  0  0  0  0  0  0  0  0
   -1.3663    0.7827    3.2277 H   0  0  0  0  0  0  0  0  0  0  0  0
   -0.3484    1.5457    2.0018 H   0  0  0  0  0  0  0  0  0  0  0  0
    0.3467    0.7170    4.8169 H   0  0  0  0  0  0  0  0  0  0  0  0
    0.7688   -0.2659    1.4407 H   0  0  0  0  0  0  0  0  0  0  0  0
    1.9920   -2.4996    1.3581 H   0  0  0  0  0  0  0  0  0  0  0  0
    2.7359   -1.1913    0.4975 H   0  0  0  0  0  0  0  0  0  0  0  0
    4.3908   -0.7803    2.1198 H   0  0  0  0  0  0  0  0  0  0  0  0
    5.6706   -2.7613    2.2753 H   0  0  0  0  0  0  0  0  0  0  0  0
    4.3526   -2.9875   -0.3938 H   0  0  0  0  0  0  0  0  0  0  0  0
    6.4332   -0.9734    0.5137 H   0  0  0  0  0  0  0  0  0  0  0  0
    4.8458   -0.6508   -0.1702 H   0  0  0  0  0  0  0  0  0  0  0  0
    6.0804   -1.3737   -1.1705 H   0  0  0  0  0  0  0  0  0  0  0  0
    6.4032   -3.8575   -1.1618 H   0  0  0  0  0  0  0  0  0  0  0  0
    7.7000   -3.4485    1.5609 H   0  0  0  0  0  0  0  0  0  0  0  0
    8.0999   -2.5908    0.0652 H   0  0  0  0  0  0  0  0  0  0  0  0
    8.4090   -4.3072    0.2104 H   0  0  0  0  0  0  0  0  0  0  0  0
    5.0487   -5.5975   -0.2922 H   0  0  0  0  0  0  0  0  0  0  0  0
    6.6691   -5.9574    0.2126 H   0  0  0  0  0  0  0  0  0  0  0  0
    5.1238   -6.3199    2.0962 H   0  0  0  0  0  0  0  0  0  0  0  0
    6.2430   -5.0477    2.4679 H   0  0  0  0  0  0  0  0  0  0  0  0
    2.9821   -5.9355    1.2713 H   0  0  0  0  0  0  0  0  0  0  0  0
    2.9958   -4.5218    0.2540 H   0  0  0  0  0  0  0  0  0  0  0  0
    2.0498   -4.5562    1.7369 H   0  0  0  0  0  0  0  0  0  0  0  0
    3.3233   -5.3068    3.8066 H   0  0  0  0  0  0  0  0  0  0  0  0
    4.7669   -4.4622    4.2019 H   0  0  0  0  0  0  0  0  0  0  0  0
    2.0135   -3.2446    3.6535 H   0  0  0  0  0  0  0  0  0  0  0  0
    2.8478   -3.3577    5.1673 H   0  0  0  0  0  0  0  0  0  0  0  0
    4.8749   -1.6731    5.6566 H   0  0  0  0  0  0  0  0  0  0  0  0
    5.5812   -0.8434    4.2694 H   0  0  0  0  0  0  0  0  0  0  0  0
    5.6468   -2.5642    4.3913 H   0  0  0  0  0  0  0  0  0  0  0  0
    2.7857   -1.4296    6.4035 H   0  0  0  0  0  0  0  0  0  0  0  0
    1.2623   -1.7197    5.5645 H   0  0  0  0  0  0  0  0  0  0  0  0
    1.6126   -0.1704    6.2792 H   0  0  0  0  0  0  0  0  0  0  0  0
    4.2279    0.5944    5.4813 H   0  0  0  0  0  0  0  0  0  0  0  0
    4.1564    0.9773    3.7879 H   0  0  0  0  0  0  0  0  0  0  0  0
    2.2747    1.8607    6.0108 H   0  0  0  0  0  0  0  0  0  0  0  0
    3.8691    3.3585    4.2825 H   0  0  0  0  0  0  0  0  0  0  0  0
    2.8139    3.6092    2.6922 H   0  0  0  0  0  0  0  0  0  0  0  0
    1.4422    2.9179    1.8685 H   0  0  0  0  0  0  0  0  0  0  0  0
    2.8374    1.9289    2.2109 H   0  0  0  0  0  0  0  0  0  0  0  0
    1.7298    5.1007    4.5157 H   0  0  0  0  0  0  0  0  0  0  0  0
    0.0277    5.5000    4.4591 H   0  0  0  0  0  0  0  0  0  0  0  0
    0.8398    4.9862    3.0019 H   0  0  0  0  0  0  0  0  0  0  0  0
    0.9282    3.6525    6.5303 H   0  0  0  0  0  0  0  0  0  0  0  0
   -0.1558    2.2888    6.2687 H   0  0  0  0  0  0  0  0  0  0  0  0
   -0.7580    3.9256    6.1535 H   0  0  0  0  0  0  0  0  0  0  0  0
  1  2  2  0
  1 32  1  0
  1 33  1  0
  2 29  1  0
  2  3  1  0
  3  4  1  0
  3 34  1  0
  3 35  1  0
  4 27  1  0
  4  5  1  0
  4 36  1  1
  5 22  1  0
  5  6  2  0
  6  7  1  0
  6 37  1  0
  7  8  1  0
  7 38  1  0
  7 39  1  0
  8 20  1  0
  8  9  1  0
  8 40  1  1
  9 16  1  0
  9 10  1  0
  9 41  1  1
 10 11  1  0
 10 12  1  0
 10 42  1  6
 11 43  1  0
 11 44  1  0
 11 45  1  0
 12 13  1  0
 12 14  1  0
 12 46  1  6
 13 47  1  0
 13 48  1  0
 13 49  1  0
 14 15  1  0
 14 50  1  0
 14 51  1  0
 15 16  1  0
 15 52  1  0
 15 53  1  0
 16 17  1  6
 16 18  1  0
 17 54  1  0
 17 55  1  0
 17 56  1  0
 18 19  1  0
 18 57  1  0
 18 58  1  0
 19 20  1  0
 19 59  1  0
 19 60  1  0
 20 21  1  1
 20 22  1  0
 21 61  1  0
 21 62  1  0
 21 63  1  0
 22 23  1  1
 22 24  1  0
 23 64  1  0
 23 65  1  0
 23 66  1  0
 24 25  1  0
 24 67  1  0
 24 68  1  0
 25 26  1  0
 25 27  1  0
 25 69  1  1
 26 70  1  0
 27 28  1  6
 27 29  1  0
 28 71  1  0
 28 72  1  0
 28 73  1  0
 29 30  1  0
 29 31  1  0
 30 74  1  0
 30 75  1  0
 30 76  1  0
 31 77  1  0
 31 78  1  0
 31 79  1  0
M  END
>  <i_m_ct_stereo_status>  (191) 
1

>  <s_m_source_file>  (191) 
/var/tmp/pbs.5076255.sched01/tmph8v5ro6p/78zitxkb1g.sdf

>  <i_m_source_file_index>  (191) 
6

>  <i_lp_mmshare_version>  (191) 
48012

>  <i_f3d_flags>  (191) 
0

>  <s_epik_input>  (191) 
W0NIMl09QyhbQ0gyXTEpQyhbQ0gzXSkoW0NIM10pW0NAQF0oW0NIM10pKFtDQEBIXShbQ0gyXTIpW09IXSlbQ0BASF0xQyg9W0NIXVtDSDJdMylbQ0BAXTIoW0NIM10pW0NAQF0oW0NIM10pKFtDSDJdW0NIMl00KVtDQEhdM1tDQEBIXShbQ0BdNDVbQ0gzXSlbQ0BASF0oW0NIM10pW0NAQEhdKFtDSDNdKVtDSDJdW0NIMl01

>  <s_epik_cmdline>  (191) 
J2VwaWtfcHl0aG9uJywgJy1waHQnLCAnMi4wJywgJy1waCcsICc3LjAnLCAnLXRuJywgJzgnLCAnLW1hJywgJzIwMCcsICctaW1hZScsICc8aW5maWxlLm1hZT4nLCAnLW9tYWUnLCAnPG91dGZpbGUubWFlPic=

>  <r_lp_tautomer_probability>  (191) 
1

>  <r_epik_Ionization_Penalty>  (191) 
1.42021e-06

>  <r_epik_Ionization_Penalty_Charging>  (191) 
0

>  <r_epik_Ionization_Penalty_Neutral>  (191) 
1.42021e-06

>  <r_epik_State_Penalty>  (191) 
-0

>  <r_epik_Charging_Adjusted_Penalty>  (191) 
0

>  <i_epik_Tot_Q>  (191) 
0

>  <i_epik_Tot_abs_Q>  (191) 
0

>  <s_lp_Force_Field>  (191) 
OPLS3e

>  <r_lp_Energy>  (191) 
84.7805

>  <b_lp_Chiralities_Consistent>  (191) 
1

>  <s_lp_Variant>  (191) 
63:0-1

>  <s_i_glide_gridfile>  (191) 
pfpi4k_grid

>  <i_i_glide_lignum>  (191) 
6

>  <i_i_glide_rotatable_bonds>  (191) 
1

>  <r_i_docking_score>  (191) 
-2.63626

>  <r_i_glide_ligand_efficiency>  (191) 
-0.0850408

>  <r_i_glide_ligand_efficiency_sa>  (191) 
-0.267145

>  <r_i_glide_ligand_efficiency_ln>  (191) 
-0.594558

>  <r_i_glide_gscore>  (191) 
-2.63626

>  <r_i_glide_lipo>  (191) 
-0.523088

>  <r_i_glide_hbond>  (191) 
0

>  <r_i_glide_metal>  (191) 
-0

>  <r_i_glide_rewards>  (191) 
-0.513399

>  <r_i_glide_evdw>  (191) 
-30.0264

>  <r_i_glide_ecoul>  (191) 
-0.656378

>  <r_i_glide_erotb>  (191) 
0

>  <r_i_glide_esite>  (191) 
0

>  <r_i_glide_emodel>  (191) 
-35.6224

>  <r_i_glide_energy>  (191) 
-30.6828

>  <r_i_glide_einternal>  (191) 
0.0348466

>  <r_i_glide_intrahb_reward>  (191) 
-0

>  <i_i_glide_confnum>  (191) 
2

>  <i_i_glide_posenum>  (191) 
24

>  <r_i_glide_eff_state_penalty>  (191) 
0

>  <ligand_id>  (191) 
63

>  <original_smiles>  (191) 
C=C1CC2C3=CCC4C5C(C)C(C)CCC5(C)CCC4(C)C3(C)CC(O)C2(C)C1(C)C

>  <smiles>  (191) 
[H]OC1([H])C([H])([H])C2(C([H])([H])[H])C(=C([H])C([H])([H])C3([H])C4([H])C([H])(C([H])([H])[H])C([H])(C([H])([H])[H])C([H])([H])C([H])([H])C4(C([H])([H])[H])C([H])([H])C([H])([H])C32C([H])([H])[H])C2([H])C([H])([H])C(=C([H])[H])C(C([H])([H])[H])(C([H])([H])[H])C12C([H])([H])[H]

$$$$
64:0:0
     RDKit          3D

 69 74  0  0  1  0  0  0  0  0999 V2000
    2.0661   -5.3899    3.1898 C   0  0  0  0  0  0  0  0  0  0  0  0
    2.1417   -4.2107    3.8309 C   0  0  0  0  0  0  0  0  0  0  0  0
    1.0507   -3.7039    4.7500 C   0  0  0  0  0  0  0  0  0  0  0  0
    0.5332   -2.3461    4.2427 C   0  0  0  0  0  0  0  0  0  0  0  0
    1.6786   -1.3054    4.1255 C   0  0  2  0  0  0  0  0  0  0  0  0
    1.2263    0.1720    3.7985 C   0  0  1  0  0  0  0  0  0  0  0  0
    0.1749    0.2732    2.6468 C   0  0  0  0  0  0  0  0  0  0  0  0
    0.1840    1.5949    1.8740 C   0  0  0  0  0  0  0  0  0  0  0  0
    1.2651    1.1144    5.0913 C   0  0  1  0  0  0  0  0  0  0  0  0
    2.7525    1.5973    5.2671 C   0  0  2  0  0  0  0  0  0  0  0  0
    3.1592    2.6308    4.1970 C   0  0  0  0  0  0  0  0  0  0  0  0
    2.0242    3.5756    3.8292 C   0  0  0  0  0  0  0  0  0  0  0  0
    0.7557    3.5069    4.3000 C   0  0  0  0  0  0  0  0  0  0  0  0
   -0.2583    4.5980    3.9575 C   0  0  0  0  0  0  0  0  0  0  0  0
   -1.7073    4.1597    3.8011 C   0  0  1  0  0  0  0  0  0  0  0  0
   -2.0847    3.7511    2.5287 O   0  0  0  0  0  0  0  0  0  0  0  0
   -2.1668    3.2168    4.9038 C   0  0  0  0  0  0  0  0  0  0  0  0
   -1.2094    2.0378    5.1502 C   0  0  0  0  0  0  0  0  0  0  0  0
    0.3128    2.3929    5.2651 C   0  0  1  0  0  0  0  0  0  0  0  0
    0.4509    2.9909    6.6999 C   0  0  0  0  0  0  0  0  0  0  0  0
    3.8191    0.5295    5.6028 C   0  0  2  0  0  0  0  0  0  0  0  0
    5.1985    1.0413    6.0811 C   0  0  0  0  0  0  0  0  0  0  0  0
    5.8808    0.1144    5.1064 C   0  0  1  0  0  0  0  0  0  0  0  0
    5.5103   -1.2687    5.1686 O   0  0  0  0  0  0  0  0  0  0  0  0
    4.5617   -0.3650    4.5812 C   0  0  1  0  0  0  0  0  0  0  0  0
    4.0750   -0.8245    3.1799 C   0  0  1  0  0  0  0  0  0  0  0  0
    5.2512   -1.3868    2.3437 C   0  0  0  0  0  0  0  0  0  0  0  0
    2.8640   -1.8219    3.2423 C   0  0  1  0  0  0  0  0  0  0  0  0
    3.3096   -3.2496    3.6760 C   0  0  0  0  0  0  0  0  0  0  0  0
    2.8439   -5.7221    2.5178 H   0  0  0  0  0  0  0  0  0  0  0  0
    1.2167   -6.0471    3.3099 H   0  0  0  0  0  0  0  0  0  0  0  0
    0.2449   -4.4359    4.8230 H   0  0  0  0  0  0  0  0  0  0  0  0
    1.4627   -3.6068    5.7555 H   0  0  0  0  0  0  0  0  0  0  0  0
    0.0598   -2.5139    3.2793 H   0  0  0  0  0  0  0  0  0  0  0  0
   -0.2431   -1.9889    4.9196 H   0  0  0  0  0  0  0  0  0  0  0  0
    2.0706   -1.3023    5.1348 H   0  0  0  0  0  0  0  0  0  0  0  0
    2.0173    0.5967    3.2128 H   0  0  0  0  0  0  0  0  0  0  0  0
    0.3809   -0.4875    1.8929 H   0  0  0  0  0  0  0  0  0  0  0  0
   -0.8400    0.0281    2.9688 H   0  0  0  0  0  0  0  0  0  0  0  0
   -0.2071    1.5451    0.8661 H   0  0  0  0  0  0  0  0  0  0  0  0
    1.0876    2.2097    1.8674 H   0  0  0  0  0  0  0  0  0  0  0  0
   -0.5278    2.1139    2.4429 H   0  0  0  0  0  0  0  0  0  0  0  0
    1.0179    0.4772    5.9434 H   0  0  0  0  0  0  0  0  0  0  0  0
    2.7592    2.1774    6.1867 H   0  0  0  0  0  0  0  0  0  0  0  0
    3.9845    3.2415    4.5567 H   0  0  0  0  0  0  0  0  0  0  0  0
    3.5291    2.1389    3.3009 H   0  0  0  0  0  0  0  0  0  0  0  0
    2.2884    4.3568    3.1347 H   0  0  0  0  0  0  0  0  0  0  0  0
   -0.2439    5.2712    4.8130 H   0  0  0  0  0  0  0  0  0  0  0  0
    0.0895    5.1840    3.0992 H   0  0  0  0  0  0  0  0  0  0  0  0
   -2.3670    5.0064    3.7801 H   0  0  0  0  0  0  0  0  0  0  0  0
   -1.3048    3.7539    1.9632 H   0  0  0  0  0  0  0  0  0  0  0  0
   -2.2434    3.8160    5.8066 H   0  0  0  0  0  0  0  0  0  0  0  0
   -3.1707    2.8467    4.7015 H   0  0  0  0  0  0  0  0  0  0  0  0
   -1.5259    1.4845    6.0398 H   0  0  0  0  0  0  0  0  0  0  0  0
   -1.4161    1.3548    4.3539 H   0  0  0  0  0  0  0  0  0  0  0  0
    0.4277    2.2225    7.4724 H   0  0  0  0  0  0  0  0  0  0  0  0
   -0.3426    3.6972    6.9317 H   0  0  0  0  0  0  0  0  0  0  0  0
    1.3664    3.5661    6.8365 H   0  0  0  0  0  0  0  0  0  0  0  0
    3.4125   -0.1105    6.3835 H   0  0  0  0  0  0  0  0  0  0  0  0
    5.3705    2.1149    5.9459 H   0  0  0  0  0  0  0  0  0  0  0  0
    5.4238    0.7683    7.1089 H   0  0  0  0  0  0  0  0  0  0  0  0
    6.7428    0.3894    4.5041 H   0  0  0  0  0  0  0  0  0  0  0  0
    3.7940    0.0353    2.5775 H   0  0  0  0  0  0  0  0  0  0  0  0
    5.7722   -2.2028    2.8401 H   0  0  0  0  0  0  0  0  0  0  0  0
    5.9970   -0.6224    2.1388 H   0  0  0  0  0  0  0  0  0  0  0  0
    4.9215   -1.7648    1.3790 H   0  0  0  0  0  0  0  0  0  0  0  0
    2.4842   -1.9285    2.2260 H   0  0  0  0  0  0  0  0  0  0  0  0
    3.8404   -3.2118    4.6283 H   0  0  0  0  0  0  0  0  0  0  0  0
    4.0090   -3.6799    2.9584 H   0  0  0  0  0  0  0  0  0  0  0  0
  1  2  2  0
  1 30  1  0
  1 31  1  0
  2 29  1  0
  2  3  1  0
  3  4  1  0
  3 32  1  0
  3 33  1  0
  4  5  1  0
  4 34  1  0
  4 35  1  0
  5 28  1  0
  5  6  1  0
  5 36  1  1
  6  7  1  0
  6  9  1  0
  6 37  1  6
  7  8  1  0
  7 38  1  0
  7 39  1  0
  8 40  1  0
  8 41  1  0
  8 42  1  0
  9 19  1  0
  9 10  1  0
  9 43  1  1
 10 11  1  0
 10 21  1  0
 10 44  1  1
 11 12  1  0
 11 45  1  0
 11 46  1  0
 12 13  2  0
 12 47  1  0
 13 19  1  0
 13 14  1  0
 14 15  1  0
 14 48  1  0
 14 49  1  0
 15 16  1  0
 15 17  1  0
 15 50  1  1
 16 51  1  0
 17 18  1  0
 17 52  1  0
 17 53  1  0
 18 19  1  0
 18 54  1  0
 18 55  1  0
 19 20  1  1
 20 56  1  0
 20 57  1  0
 20 58  1  0
 21 25  1  0
 21 22  1  0
 21 59  1  1
 22 23  1  0
 22 60  1  0
 22 61  1  0
 23 25  1  0
 23 24  1  0
 23 62  1  6
 25 24  1  1
 25 26  1  0
 26 27  1  0
 26 28  1  0
 26 63  1  6
 27 64  1  0
 27 65  1  0
 27 66  1  0
 28 29  1  0
 28 67  1  6
 29 68  1  0
 29 69  1  0
M  END
>  <i_m_ct_stereo_status>  (192) 
1

>  <s_m_source_file>  (192) 
/var/tmp/pbs.5076255.sched01/tmph8v5ro6p/78zitxkb1g.sdf

>  <i_m_source_file_index>  (192) 
7

>  <i_lp_mmshare_version>  (192) 
48012

>  <i_f3d_flags>  (192) 
0

>  <s_epik_input>  (192) 
W0NIMl0xW0NIMl1DKD1bQ0gyXSlbQ0gyXVtDQEhdKFtDQEBIXTJbQ0gzXSlbQ0BIXTFbQ0BASF0oW0NIMl1bQ0gzXSlbQ0BASF0oW0NASF0zW0NAQEhdKFtDQEBdMjQ1KVtDSDJdW0NASF00TzUpW0NAQF02KFtDSDNdKUMoPVtDSF1bQ0gyXTMpW0NIMl1bQ0BASF0oW09IXSlbQ0gyXVtDSDJdNg==

>  <s_epik_cmdline>  (192) 
J2VwaWtfcHl0aG9uJywgJy1waHQnLCAnMi4wJywgJy1waCcsICc3LjAnLCAnLXRuJywgJzgnLCAnLW1hJywgJzIwMCcsICctaW1hZScsICc8aW5maWxlLm1hZT4nLCAnLW9tYWUnLCAnPG91dGZpbGUubWFlPic=

>  <r_lp_tautomer_probability>  (192) 
1

>  <r_epik_Ionization_Penalty>  (192) 
1.20472e-06

>  <r_epik_Ionization_Penalty_Charging>  (192) 
0

>  <r_epik_Ionization_Penalty_Neutral>  (192) 
1.20472e-06

>  <r_epik_State_Penalty>  (192) 
-0

>  <r_epik_Charging_Adjusted_Penalty>  (192) 
0

>  <i_epik_Tot_Q>  (192) 
0

>  <i_epik_Tot_abs_Q>  (192) 
0

>  <s_lp_Force_Field>  (192) 
OPLS3e

>  <r_lp_Energy>  (192) 
73.6644

>  <b_lp_Chiralities_Consistent>  (192) 
1

>  <s_lp_Variant>  (192) 
64:0-1

>  <s_i_glide_gridfile>  (192) 
pfpi4k_grid

>  <i_i_glide_lignum>  (192) 
7

>  <i_i_glide_rotatable_bonds>  (192) 
2

>  <r_i_docking_score>  (192) 
-2.32031

>  <r_i_glide_ligand_efficiency>  (192) 
-0.0800106

>  <r_i_glide_ligand_efficiency_sa>  (192) 
-0.245818

>  <r_i_glide_ligand_efficiency_ln>  (192) 
-0.531292

>  <r_i_glide_gscore>  (192) 
-2.32031

>  <r_i_glide_lipo>  (192) 
-0.321637

>  <r_i_glide_hbond>  (192) 
-0.16

>  <r_i_glide_metal>  (192) 
-0

>  <r_i_glide_rewards>  (192) 
-0.704964

>  <r_i_glide_evdw>  (192) 
-17.5788

>  <r_i_glide_ecoul>  (192) 
-1.69844

>  <r_i_glide_erotb>  (192) 
0

>  <r_i_glide_esite>  (192) 
0

>  <r_i_glide_emodel>  (192) 
-18.3153

>  <r_i_glide_energy>  (192) 
-19.2773

>  <r_i_glide_einternal>  (192) 
1.60741

>  <r_i_glide_intrahb_reward>  (192) 
-0

>  <i_i_glide_confnum>  (192) 
2

>  <i_i_glide_posenum>  (192) 
25

>  <r_i_glide_eff_state_penalty>  (192) 
0

>  <ligand_id>  (192) 
64

>  <original_smiles>  (192) 
C=C1CCC2C(CC)C3C(CC=C4CC(O)CCC43C)C3CC4OC43C(C)C2C1

>  <smiles>  (192) 
[H]OC1([H])C([H])([H])C2=C([H])C([H])([H])C3([H])C4([H])C([H])([H])C5([H])OC54C([H])(C([H])([H])[H])C4([H])C([H])([H])C(=C([H])[H])C([H])([H])C([H])([H])C4([H])C([H])(C([H])([H])C([H])([H])[H])C3([H])C2(C([H])([H])[H])C([H])([H])C1([H])[H]

$$$$
64:0:1
     RDKit          3D

 69 74  0  0  1  0  0  0  0  0999 V2000
    2.6645   -5.1207    4.0140 C   0  0  0  0  0  0  0  0  0  0  0  0
    2.6912   -3.8947    4.5679 C   0  0  0  0  0  0  0  0  0  0  0  0
    1.6029   -3.3857    5.4801 C   0  0  0  0  0  0  0  0  0  0  0  0
    0.9923   -2.0875    4.9111 C   0  0  0  0  0  0  0  0  0  0  0  0
    2.0879   -1.0107    4.6803 C   0  0  2  0  0  0  0  0  0  0  0  0
    1.5507    0.4128    4.2734 C   0  0  1  0  0  0  0  0  0  0  0  0
    0.3769    0.4433    3.2684 C   0  0  0  0  0  0  0  0  0  0  0  0
    0.7211    0.0525    1.8231 C   0  0  0  0  0  0  0  0  0  0  0  0
    1.5857    1.4143    5.4998 C   0  0  1  0  0  0  0  0  0  0  0  0
    3.0500    1.9781    5.5667 C   0  0  2  0  0  0  0  0  0  0  0  0
    3.3382    2.9804    4.4245 C   0  0  0  0  0  0  0  0  0  0  0  0
    2.1368    3.8135    4.0250 C   0  0  0  0  0  0  0  0  0  0  0  0
    0.8994    3.6991    4.5740 C   0  0  0  0  0  0  0  0  0  0  0  0
   -0.1779    4.7189    4.2359 C   0  0  0  0  0  0  0  0  0  0  0  0
   -1.5766    4.1067    4.0896 C   0  0  1  0  0  0  0  0  0  0  0  0
   -1.6558    3.3325    2.9094 O   0  0  0  0  0  0  0  0  0  0  0  0
   -1.9499    3.2950    5.3334 C   0  0  0  0  0  0  0  0  0  0  0  0
   -0.9276    2.1775    5.6223 C   0  0  0  0  0  0  0  0  0  0  0  0
    0.5716    2.6404    5.6297 C   0  0  1  0  0  0  0  0  0  0  0  0
    0.7226    3.3436    7.0205 C   0  0  0  0  0  0  0  0  0  0  0  0
    4.1857    1.0134    5.9530 C   0  0  2  0  0  0  0  0  0  0  0  0
    5.5644    1.6015    6.3357 C   0  0  0  0  0  0  0  0  0  0  0  0
    6.2556    0.6482    5.4095 C   0  0  1  0  0  0  0  0  0  0  0  0
    5.9967   -0.7459    5.5879 O   0  0  0  0  0  0  0  0  0  0  0  0
    4.9635    0.0612    5.0115 C   0  0  1  0  0  0  0  0  0  0  0  0
    4.4213   -0.4734    3.6525 C   0  0  1  0  0  0  0  0  0  0  0  0
    5.5622   -1.0240    2.7621 C   0  0  0  0  0  0  0  0  0  0  0  0
    3.2820   -1.5271    3.8092 C   0  0  1  0  0  0  0  0  0  0  0  0
    3.8036   -2.8955    4.3211 C   0  0  0  0  0  0  0  0  0  0  0  0
    3.4502   -5.4590    3.3533 H   0  0  0  0  0  0  0  0  0  0  0  0
    1.8601   -5.8103    4.2267 H   0  0  0  0  0  0  0  0  0  0  0  0
    0.8529   -4.1610    5.6340 H   0  0  0  0  0  0  0  0  0  0  0  0
    2.0640   -3.1990    6.4517 H   0  0  0  0  0  0  0  0  0  0  0  0
    0.4848   -2.3206    3.9731 H   0  0  0  0  0  0  0  0  0  0  0  0
    0.2256   -1.7208    5.5960 H   0  0  0  0  0  0  0  0  0  0  0  0
    2.5102   -0.9102    5.6726 H   0  0  0  0  0  0  0  0  0  0  0  0
    2.2481    0.8602    3.5952 H   0  0  0  0  0  0  0  0  0  0  0  0
   -0.4732   -0.1473    3.6047 H   0  0  0  0  0  0  0  0  0  0  0  0
    0.0533    1.4735    3.1481 H   0  0  0  0  0  0  0  0  0  0  0  0
   -0.1911   -0.2480    1.3319 H   0  0  0  0  0  0  0  0  0  0  0  0
    1.4365   -0.7580    1.7334 H   0  0  0  0  0  0  0  0  0  0  0  0
    1.0994    0.9025    1.2492 H   0  0  0  0  0  0  0  0  0  0  0  0
    1.4102    0.8246    6.3951 H   0  0  0  0  0  0  0  0  0  0  0  0
    3.0377    2.6242    6.4365 H   0  0  0  0  0  0  0  0  0  0  0  0
    4.1273    3.6671    4.7294 H   0  0  0  0  0  0  0  0  0  0  0  0
    3.6888    2.4606    3.5417 H   0  0  0  0  0  0  0  0  0  0  0  0
    2.3317    4.5752    3.3006 H   0  0  0  0  0  0  0  0  0  0  0  0
   -0.1874    5.4473    5.0491 H   0  0  0  0  0  0  0  0  0  0  0  0
    0.0965    5.2607    3.3343 H   0  0  0  0  0  0  0  0  0  0  0  0
   -2.3125    4.8894    3.9721 H   0  0  0  0  0  0  0  0  0  0  0  0
   -1.1355    3.7415    2.2331 H   0  0  0  0  0  0  0  0  0  0  0  0
   -2.0194    3.9654    6.1919 H   0  0  0  0  0  0  0  0  0  0  0  0
   -2.9515    2.8745    5.2151 H   0  0  0  0  0  0  0  0  0  0  0  0
   -1.1725    1.7128    6.5755 H   0  0  0  0  0  0  0  0  0  0  0  0
   -1.1420    1.4024    4.9049 H   0  0  0  0  0  0  0  0  0  0  0  0
    0.7722    2.6299    7.8429 H   0  0  0  0  0  0  0  0  0  0  0  0
   -0.0985    4.0238    7.2410 H   0  0  0  0  0  0  0  0  0  0  0  0
    1.6060    3.9793    7.0829 H   0  0  0  0  0  0  0  0  0  0  0  0
    3.8674    0.4280    6.8139 H   0  0  0  0  0  0  0  0  0  0  0  0
    5.7030    2.6384    6.0728 H   0  0  0  0  0  0  0  0  0  0  0  0
    5.7673    1.4521    7.3915 H   0  0  0  0  0  0  0  0  0  0  0  0
    6.9747    1.0031    4.6416 H   0  0  0  0  0  0  0  0  0  0  0  0
    4.0905    0.3632    3.0610 H   0  0  0  0  0  0  0  0  0  0  0  0
    6.1313   -1.7960    3.2730 H   0  0  0  0  0  0  0  0  0  0  0  0
    6.2538   -0.2302    2.4861 H   0  0  0  0  0  0  0  0  0  0  0  0
    5.1714   -1.4679    1.8392 H   0  0  0  0  0  0  0  0  0  0  0  0
    2.8983   -1.7672    2.8196 H   0  0  0  0  0  0  0  0  0  0  0  0
    4.3618   -2.7740    5.2505 H   0  0  0  0  0  0  0  0  0  0  0  0
    4.4902   -3.3355    3.5979 H   0  0  0  0  0  0  0  0  0  0  0  0
  1  2  2  0
  1 30  1  0
  1 31  1  0
  2 29  1  0
  2  3  1  0
  3  4  1  0
  3 32  1  0
  3 33  1  0
  4  5  1  0
  4 34  1  0
  4 35  1  0
  5 28  1  0
  5  6  1  0
  5 36  1  1
  6  7  1  0
  6  9  1  0
  6 37  1  6
  7  8  1  0
  7 38  1  0
  7 39  1  0
  8 40  1  0
  8 41  1  0
  8 42  1  0
  9 19  1  0
  9 10  1  0
  9 43  1  1
 10 11  1  0
 10 21  1  0
 10 44  1  1
 11 12  1  0
 11 45  1  0
 11 46  1  0
 12 13  2  0
 12 47  1  0
 13 19  1  0
 13 14  1  0
 14 15  1  0
 14 48  1  0
 14 49  1  0
 15 16  1  0
 15 17  1  0
 15 50  1  6
 16 51  1  0
 17 18  1  0
 17 52  1  0
 17 53  1  0
 18 19  1  0
 18 54  1  0
 18 55  1  0
 19 20  1  1
 20 56  1  0
 20 57  1  0
 20 58  1  0
 21 25  1  0
 21 22  1  0
 21 59  1  1
 22 23  1  0
 22 60  1  0
 22 61  1  0
 23 25  1  0
 23 24  1  0
 23 62  1  6
 25 24  1  1
 25 26  1  0
 26 27  1  0
 26 28  1  0
 26 63  1  6
 27 64  1  0
 27 65  1  0
 27 66  1  0
 28 29  1  0
 28 67  1  6
 29 68  1  0
 29 69  1  0
M  END
>  <i_m_ct_stereo_status>  (193) 
1

>  <s_m_source_file>  (193) 
/var/tmp/pbs.5076255.sched01/tmph8v5ro6p/78zitxkb1g.sdf

>  <i_m_source_file_index>  (193) 
7

>  <i_lp_mmshare_version>  (193) 
48012

>  <i_f3d_flags>  (193) 
0

>  <s_epik_input>  (193) 
W0NIMl0xW0NIMl1DKD1bQ0gyXSlbQ0gyXVtDQEhdKFtDQEBIXTJbQ0gzXSlbQ0BIXTFbQ0BASF0oW0NIMl1bQ0gzXSlbQ0BASF0oW0NASF0zW0NAQEhdKFtDQEBdMjQ1KVtDSDJdW0NASF00TzUpW0NAQF02KFtDSDNdKUMoPVtDSF1bQ0gyXTMpW0NIMl1bQ0BASF0oW09IXSlbQ0gyXVtDSDJdNg==

>  <s_epik_cmdline>  (193) 
J2VwaWtfcHl0aG9uJywgJy1waHQnLCAnMi4wJywgJy1waCcsICc3LjAnLCAnLXRuJywgJzgnLCAnLW1hJywgJzIwMCcsICctaW1hZScsICc8aW5maWxlLm1hZT4nLCAnLW9tYWUnLCAnPG91dGZpbGUubWFlPic=

>  <r_lp_tautomer_probability>  (193) 
1

>  <r_epik_Ionization_Penalty>  (193) 
1.20472e-06

>  <r_epik_Ionization_Penalty_Charging>  (193) 
0

>  <r_epik_Ionization_Penalty_Neutral>  (193) 
1.20472e-06

>  <r_epik_State_Penalty>  (193) 
-0

>  <r_epik_Charging_Adjusted_Penalty>  (193) 
0

>  <i_epik_Tot_Q>  (193) 
0

>  <i_epik_Tot_abs_Q>  (193) 
0

>  <s_lp_Force_Field>  (193) 
OPLS3e

>  <r_lp_Energy>  (193) 
73.6644

>  <b_lp_Chiralities_Consistent>  (193) 
1

>  <s_lp_Variant>  (193) 
64:0-1

>  <s_i_glide_gridfile>  (193) 
pfpi4k_grid

>  <i_i_glide_lignum>  (193) 
7

>  <i_i_glide_rotatable_bonds>  (193) 
2

>  <r_i_docking_score>  (193) 
-2.19103

>  <r_i_glide_ligand_efficiency>  (193) 
-0.0755527

>  <r_i_glide_ligand_efficiency_sa>  (193) 
-0.232122

>  <r_i_glide_ligand_efficiency_ln>  (193) 
-0.50169

>  <r_i_glide_gscore>  (193) 
-2.19103

>  <r_i_glide_lipo>  (193) 
-0.408184

>  <r_i_glide_hbond>  (193) 
-0.16

>  <r_i_glide_metal>  (193) 
-0

>  <r_i_glide_rewards>  (193) 
-0.704964

>  <r_i_glide_evdw>  (193) 
-16.745

>  <r_i_glide_ecoul>  (193) 
-0.537522

>  <r_i_glide_erotb>  (193) 
0

>  <r_i_glide_esite>  (193) 
0

>  <r_i_glide_emodel>  (193) 
-18.8014

>  <r_i_glide_energy>  (193) 
-17.2826

>  <r_i_glide_einternal>  (193) 
1.05397

>  <r_i_glide_intrahb_reward>  (193) 
-0

>  <i_i_glide_confnum>  (193) 
1

>  <i_i_glide_posenum>  (193) 
17

>  <r_i_glide_eff_state_penalty>  (193) 
0

>  <ligand_id>  (193) 
64

>  <original_smiles>  (193) 
C=C1CCC2C(CC)C3C(CC=C4CC(O)CCC43C)C3CC4OC43C(C)C2C1

>  <smiles>  (193) 
[H]OC1([H])C([H])([H])C2=C([H])C([H])([H])C3([H])C4([H])C([H])([H])C5([H])OC54C([H])(C([H])([H])[H])C4([H])C([H])([H])C(=C([H])[H])C([H])([H])C([H])([H])C4([H])C([H])(C([H])([H])C([H])([H])[H])C3([H])C2(C([H])([H])[H])C([H])([H])C1([H])[H]

$$$$
64:0:2
     RDKit          3D

 69 74  0  0  1  0  0  0  0  0999 V2000
    1.0209   -5.8546    3.0267 C   0  0  0  0  0  0  0  0  0  0  0  0
    1.4738   -4.7511    3.6538 C   0  0  0  0  0  0  0  0  0  0  0  0
    1.0779   -4.3952    5.0670 C   0  0  0  0  0  0  0  0  0  0  0  0
    0.4286   -3.0028    5.0817 C   0  0  0  0  0  0  0  0  0  0  0  0
    1.3727   -1.9253    4.5098 C   0  0  2  0  0  0  0  0  0  0  0  0
    0.8597   -0.4510    4.6990 C   0  0  1  0  0  0  0  0  0  0  0  0
   -0.6151   -0.1545    4.2837 C   0  0  0  0  0  0  0  0  0  0  0  0
   -1.8141   -0.6739    5.1186 C   0  0  0  0  0  0  0  0  0  0  0  0
    1.6732    0.3499    5.8153 C   0  0  1  0  0  0  0  0  0  0  0  0
    3.0338    0.8255    5.1754 C   0  0  2  0  0  0  0  0  0  0  0  0
    2.8448    1.9953    4.1895 C   0  0  0  0  0  0  0  0  0  0  0  0
    1.7313    2.9462    4.5897 C   0  0  0  0  0  0  0  0  0  0  0  0
    0.9279    2.7973    5.6910 C   0  0  0  0  0  0  0  0  0  0  0  0
   -0.0419    3.9055    6.0748 C   0  0  0  0  0  0  0  0  0  0  0  0
   -1.3877    3.3943    6.6173 C   0  0  1  0  0  0  0  0  0  0  0  0
   -2.1695    2.8477    5.5609 O   0  0  0  0  0  0  0  0  0  0  0  0
   -1.1671    2.4149    7.7755 C   0  0  0  0  0  0  0  0  0  0  0  0
   -0.3063    1.2254    7.2974 C   0  0  0  0  0  0  0  0  0  0  0  0
    1.0550    1.5835    6.6165 C   0  0  1  0  0  0  0  0  0  0  0  0
    1.9822    2.0108    7.7931 C   0  0  0  0  0  0  0  0  0  0  0  0
    4.0946   -0.2720    4.7614 C   0  0  2  0  0  0  0  0  0  0  0  0
    5.5099    0.1967    4.4866 C   0  0  0  0  0  0  0  0  0  0  0  0
    5.5526   -0.5772    3.1760 C   0  0  1  0  0  0  0  0  0  0  0  0
    5.2112   -1.9604    3.2426 O   0  0  0  0  0  0  0  0  0  0  0  0
    4.1169   -1.0331    3.4037 C   0  0  1  0  0  0  0  0  0  0  0  0
    2.9332   -1.2786    2.4687 C   0  0  1  0  0  0  0  0  0  0  0  0
    3.4306   -1.7004    1.0746 C   0  0  0  0  0  0  0  0  0  0  0  0
    1.8830   -2.2918    3.0657 C   0  0  1  0  0  0  0  0  0  0  0  0
    2.4254   -3.7584    3.0118 C   0  0  0  0  0  0  0  0  0  0  0  0
    1.3193   -6.0881    2.0174 H   0  0  0  0  0  0  0  0  0  0  0  0
    0.3498   -6.5396    3.5200 H   0  0  0  0  0  0  0  0  0  0  0  0
    0.4050   -5.1542    5.4738 H   0  0  0  0  0  0  0  0  0  0  0  0
    1.9739   -4.4072    5.6851 H   0  0  0  0  0  0  0  0  0  0  0  0
   -0.4910   -3.0423    4.5031 H   0  0  0  0  0  0  0  0  0  0  0  0
    0.1575   -2.7442    6.1102 H   0  0  0  0  0  0  0  0  0  0  0  0
    2.2603   -2.0378    5.1244 H   0  0  0  0  0  0  0  0  0  0  0  0
    1.2427    0.0460    3.8308 H   0  0  0  0  0  0  0  0  0  0  0  0
   -0.7032    0.9184    4.1427 H   0  0  0  0  0  0  0  0  0  0  0  0
   -0.7435   -0.5427    3.2749 H   0  0  0  0  0  0  0  0  0  0  0  0
   -2.5907    0.0886    5.1226 H   0  0  0  0  0  0  0  0  0  0  0  0
   -1.5399   -0.8773    6.1410 H   0  0  0  0  0  0  0  0  0  0  0  0
   -2.2895   -1.5509    4.6662 H   0  0  0  0  0  0  0  0  0  0  0  0
    1.9045   -0.3876    6.5838 H   0  0  0  0  0  0  0  0  0  0  0  0
    3.5499    1.2962    6.0030 H   0  0  0  0  0  0  0  0  0  0  0  0
    3.7618    2.5847    4.1356 H   0  0  0  0  0  0  0  0  0  0  0  0
    2.6553    1.6373    3.1818 H   0  0  0  0  0  0  0  0  0  0  0  0
    1.6237    3.8223    3.9530 H   0  0  0  0  0  0  0  0  0  0  0  0
    0.4431    4.4662    6.8733 H   0  0  0  0  0  0  0  0  0  0  0  0
   -0.1914    4.5904    5.2375 H   0  0  0  0  0  0  0  0  0  0  0  0
   -1.9653    4.2460    6.9894 H   0  0  0  0  0  0  0  0  0  0  0  0
   -1.6515    2.2024    5.0964 H   0  0  0  0  0  0  0  0  0  0  0  0
   -0.7828    2.9518    8.6430 H   0  0  0  0  0  0  0  0  0  0  0  0
   -2.1345    2.0171    8.0742 H   0  0  0  0  0  0  0  0  0  0  0  0
   -0.1299    0.5371    8.1383 H   0  0  0  0  0  0  0  0  0  0  0  0
   -0.8914    0.8027    6.5824 H   0  0  0  0  0  0  0  0  0  0  0  0
    2.3237    1.1353    8.3642 H   0  0  0  0  0  0  0  0  0  0  0  0
    1.4637    2.6644    8.5080 H   0  0  0  0  0  0  0  0  0  0  0  0
    2.8647    2.5867    7.4826 H   0  0  0  0  0  0  0  0  0  0  0  0
    4.1374   -0.9717    5.5810 H   0  0  0  0  0  0  0  0  0  0  0  0
    5.6272    1.2966    4.3961 H   0  0  0  0  0  0  0  0  0  0  0  0
    6.2254   -0.1531    5.2291 H   0  0  0  0  0  0  0  0  0  0  0  0
    5.8681   -0.1061    2.2675 H   0  0  0  0  0  0  0  0  0  0  0  0
    2.4279   -0.3323    2.2551 H   0  0  0  0  0  0  0  0  0  0  0  0
    4.0963   -2.5657    1.1142 H   0  0  0  0  0  0  0  0  0  0  0  0
    3.9840   -0.8973    0.5907 H   0  0  0  0  0  0  0  0  0  0  0  0
    2.6069   -1.9651    0.4120 H   0  0  0  0  0  0  0  0  0  0  0  0
    1.0141   -2.2736    2.4013 H   0  0  0  0  0  0  0  0  0  0  0  0
    3.3819   -3.8256    3.5284 H   0  0  0  0  0  0  0  0  0  0  0  0
    2.6087   -4.0786    1.9880 H   0  0  0  0  0  0  0  0  0  0  0  0
  1  2  2  0
  1 30  1  0
  1 31  1  0
  2 29  1  0
  2  3  1  0
  3  4  1  0
  3 32  1  0
  3 33  1  0
  4  5  1  0
  4 34  1  0
  4 35  1  0
  5 28  1  0
  5  6  1  0
  5 36  1  1
  6  7  1  0
  6  9  1  0
  6 37  1  6
  7  8  1  0
  7 38  1  0
  7 39  1  0
  8 40  1  0
  8 41  1  0
  8 42  1  0
  9 19  1  0
  9 10  1  0
  9 43  1  1
 10 11  1  0
 10 21  1  0
 10 44  1  1
 11 12  1  0
 11 45  1  0
 11 46  1  0
 12 13  2  0
 12 47  1  0
 13 19  1  0
 13 14  1  0
 14 15  1  0
 14 48  1  0
 14 49  1  0
 15 16  1  0
 15 17  1  0
 15 50  1  1
 16 51  1  0
 17 18  1  0
 17 52  1  0
 17 53  1  0
 18 19  1  0
 18 54  1  0
 18 55  1  0
 19 20  1  1
 20 56  1  0
 20 57  1  0
 20 58  1  0
 21 25  1  0
 21 22  1  0
 21 59  1  1
 22 23  1  0
 22 60  1  0
 22 61  1  0
 23 25  1  0
 23 24  1  0
 23 62  1  6
 25 24  1  1
 25 26  1  0
 26 27  1  0
 26 28  1  0
 26 63  1  6
 27 64  1  0
 27 65  1  0
 27 66  1  0
 28 29  1  0
 28 67  1  6
 29 68  1  0
 29 69  1  0
M  END
>  <i_m_ct_stereo_status>  (194) 
1

>  <s_m_source_file>  (194) 
/var/tmp/pbs.5076255.sched01/tmph8v5ro6p/78zitxkb1g.sdf

>  <i_m_source_file_index>  (194) 
7

>  <i_lp_mmshare_version>  (194) 
48012

>  <i_f3d_flags>  (194) 
0

>  <s_epik_input>  (194) 
W0NIMl0xW0NIMl1DKD1bQ0gyXSlbQ0gyXVtDQEhdKFtDQEBIXTJbQ0gzXSlbQ0BIXTFbQ0BASF0oW0NIMl1bQ0gzXSlbQ0BASF0oW0NASF0zW0NAQEhdKFtDQEBdMjQ1KVtDSDJdW0NASF00TzUpW0NAQF02KFtDSDNdKUMoPVtDSF1bQ0gyXTMpW0NIMl1bQ0BASF0oW09IXSlbQ0gyXVtDSDJdNg==

>  <s_epik_cmdline>  (194) 
J2VwaWtfcHl0aG9uJywgJy1waHQnLCAnMi4wJywgJy1waCcsICc3LjAnLCAnLXRuJywgJzgnLCAnLW1hJywgJzIwMCcsICctaW1hZScsICc8aW5maWxlLm1hZT4nLCAnLW9tYWUnLCAnPG91dGZpbGUubWFlPic=

>  <r_lp_tautomer_probability>  (194) 
1

>  <r_epik_Ionization_Penalty>  (194) 
1.20472e-06

>  <r_epik_Ionization_Penalty_Charging>  (194) 
0

>  <r_epik_Ionization_Penalty_Neutral>  (194) 
1.20472e-06

>  <r_epik_State_Penalty>  (194) 
-0

>  <r_epik_Charging_Adjusted_Penalty>  (194) 
0

>  <i_epik_Tot_Q>  (194) 
0

>  <i_epik_Tot_abs_Q>  (194) 
0

>  <s_lp_Force_Field>  (194) 
OPLS3e

>  <r_lp_Energy>  (194) 
73.6644

>  <b_lp_Chiralities_Consistent>  (194) 
1

>  <s_lp_Variant>  (194) 
64:0-1

>  <s_i_glide_gridfile>  (194) 
pfpi4k_grid

>  <i_i_glide_lignum>  (194) 
7

>  <i_i_glide_rotatable_bonds>  (194) 
2

>  <r_i_docking_score>  (194) 
-1.89294

>  <r_i_glide_ligand_efficiency>  (194) 
-0.0652739

>  <r_i_glide_ligand_efficiency_sa>  (194) 
-0.200542

>  <r_i_glide_ligand_efficiency_ln>  (194) 
-0.433436

>  <r_i_glide_gscore>  (194) 
-1.89294

>  <r_i_glide_lipo>  (194) 
-0.268623

>  <r_i_glide_hbond>  (194) 
0

>  <r_i_glide_metal>  (194) 
-0

>  <r_i_glide_rewards>  (194) 
-0.704964

>  <r_i_glide_evdw>  (194) 
-17.2182

>  <r_i_glide_ecoul>  (194) 
-0.389636

>  <r_i_glide_erotb>  (194) 
0

>  <r_i_glide_esite>  (194) 
0

>  <r_i_glide_emodel>  (194) 
-18.6112

>  <r_i_glide_energy>  (194) 
-17.6078

>  <r_i_glide_einternal>  (194) 
0.637784

>  <r_i_glide_intrahb_reward>  (194) 
-0

>  <i_i_glide_confnum>  (194) 
1

>  <i_i_glide_posenum>  (194) 
21

>  <r_i_glide_eff_state_penalty>  (194) 
0

>  <ligand_id>  (194) 
64

>  <original_smiles>  (194) 
C=C1CCC2C(CC)C3C(CC=C4CC(O)CCC43C)C3CC4OC43C(C)C2C1

>  <smiles>  (194) 
[H]OC1([H])C([H])([H])C2=C([H])C([H])([H])C3([H])C4([H])C([H])([H])C5([H])OC54C([H])(C([H])([H])[H])C4([H])C([H])([H])C(=C([H])[H])C([H])([H])C([H])([H])C4([H])C([H])(C([H])([H])C([H])([H])[H])C3([H])C2(C([H])([H])[H])C([H])([H])C1([H])[H]

$$$$
65:1:0
     RDKit          3D

 88 96  0  0  1  0  0  0  0  0999 V2000
    8.5942   -4.6608    0.4828 C   0  0  0  0  0  0  0  0  0  0  0  0
    7.2127   -5.0334    1.0454 C   0  0  0  0  0  0  0  0  0  0  0  0
    6.3671   -3.8409    1.2763 N   0  0  1  0  0  0  0  0  0  0  0  0
    5.9111   -3.1148    0.0280 C   0  0  0  0  0  0  0  0  0  0  0  0
    4.3942   -2.6782   -0.0262 C   0  0  0  0  0  0  0  0  0  0  0  0
    4.2961   -1.5796   -1.1319 C   0  0  0  0  0  0  0  0  0  0  0  0
    3.5204   -3.8315   -0.5935 C   0  0  0  0  0  0  0  0  0  0  0  0
    3.9311   -2.1352    1.4167 C   0  0  1  0  0  0  0  0  0  0  0  0
    2.5141   -1.6446    1.6921 C   0  0  0  0  0  0  0  0  0  0  0  0
    2.5628   -1.0739    3.1057 C   0  0  2  0  0  0  0  0  0  0  0  0
    1.4857    0.0519    3.1410 C   0  0  0  0  0  0  0  0  0  0  0  0
    3.9977   -0.2640    3.2530 C   0  0  0  0  0  0  0  0  0  0  0  0
    5.3679   -1.0380    2.8205 C   0  0  0  0  0  0  0  0  0  0  0  0
    4.8512   -2.5132    2.7612 C   0  0  1  0  0  0  0  0  0  0  0  0
    4.6718   -2.5720    4.3917 C   0  0  2  0  0  0  0  0  0  0  0  0
    5.1005   -3.6285    5.4518 C   0  0  1  0  0  0  0  0  0  0  0  0
    6.1730   -3.3040    6.3262 O   0  0  0  0  0  0  0  0  0  0  0  0
    3.6518   -3.5723    6.0224 C   0  0  2  0  0  0  0  0  0  0  0  0
    3.6473   -3.1936    7.4474 C   0  0  0  0  0  0  0  0  0  0  0  0
    3.6522   -2.8911    8.5655 N   0  0  0  0  0  0  0  0  0  0  0  0
    2.7524   -4.7698    5.8470 C   0  0  0  0  0  0  0  0  0  0  0  0
    2.7253   -5.7245    6.6215 O   0  0  0  0  0  0  0  0  0  0  0  0
    1.8732   -4.7100    4.8058 O   0  0  0  0  0  0  0  0  0  0  0  0
    1.9866   -3.8563    3.6688 C   0  0  2  0  0  0  0  0  0  0  0  0
    2.7627   -4.7665    2.6015 C   0  0  1  0  0  0  0  0  0  0  0  0
    4.3351   -5.1326    2.7559 C   0  0  1  0  0  0  0  0  0  0  0  0
    4.6183   -6.5249    2.1615 C   0  0  1  0  0  0  0  0  0  0  0  0
    5.6242   -7.5897    2.6133 C   0  0  0  0  0  0  0  0  0  0  0  0
    4.5561   -8.5782    2.3695 N   0  0  0  0  0  0  0  0  0  0  0  0
    3.5977   -7.5185    2.6595 C   0  0  2  0  0  0  0  0  0  0  0  0
    2.3167   -7.3548    1.8911 C   0  0  2  0  0  0  0  0  0  0  0  0
    1.8647   -5.8813    1.9267 C   0  0  1  0  0  0  0  0  0  0  0  0
    0.9764   -6.9862    2.4844 C   0  0  0  0  0  0  0  0  0  0  0  0
   -0.2692   -7.3351    1.6823 C   0  0  0  0  0  0  0  0  0  0  0  0
    0.6805   -7.2428    3.9501 C   0  0  0  0  0  0  0  0  0  0  0  0
    5.3614   -3.9288    2.3779 C   0  0  2  0  0  0  0  0  0  0  0  0
    2.2320   -2.3142    4.1452 C   0  0  2  0  0  0  0  0  0  0  0  0
    0.9603   -1.9806    4.9818 C   0  0  0  0  0  0  0  0  0  0  0  0
    3.3692   -2.3730    5.0946 C   0  0  2  0  0  0  0  0  0  0  0  0
    9.2037   -5.5625    0.3680 H   0  0  0  0  0  0  0  0  0  0  0  0
    9.1300   -3.9834    1.1553 H   0  0  0  0  0  0  0  0  0  0  0  0
    8.5278   -4.1833   -0.4992 H   0  0  0  0  0  0  0  0  0  0  0  0
    6.7138   -5.7392    0.3791 H   0  0  0  0  0  0  0  0  0  0  0  0
    7.3795   -5.5410    1.9988 H   0  0  0  0  0  0  0  0  0  0  0  0
    6.5430   -2.2251   -0.0414 H   0  0  0  0  0  0  0  0  0  0  0  0
    6.1441   -3.7103   -0.8581 H   0  0  0  0  0  0  0  0  0  0  0  0
    3.2703   -1.2157   -1.2443 H   0  0  0  0  0  0  0  0  0  0  0  0
    4.6111   -1.9617   -2.1050 H   0  0  0  0  0  0  0  0  0  0  0  0
    4.9303   -0.7128   -0.9206 H   0  0  0  0  0  0  0  0  0  0  0  0
    2.4555   -3.6000   -0.5233 H   0  0  0  0  0  0  0  0  0  0  0  0
    3.6821   -4.8006   -0.1251 H   0  0  0  0  0  0  0  0  0  0  0  0
    3.7346   -4.0081   -1.6467 H   0  0  0  0  0  0  0  0  0  0  0  0
    4.1682   -1.1435    1.0508 H   0  0  0  0  0  0  0  0  0  0  0  0
    2.2463   -0.8716    0.9652 H   0  0  0  0  0  0  0  0  0  0  0  0
    1.7195   -2.3719    1.5668 H   0  0  0  0  0  0  0  0  0  0  0  0
    1.4793    0.5905    4.0898 H   0  0  0  0  0  0  0  0  0  0  0  0
    0.4784   -0.3161    2.9402 H   0  0  0  0  0  0  0  0  0  0  0  0
    1.6760    0.8123    2.3800 H   0  0  0  0  0  0  0  0  0  0  0  0
    3.9481    0.6319    2.6305 H   0  0  0  0  0  0  0  0  0  0  0  0
    4.0924    0.1431    4.2616 H   0  0  0  0  0  0  0  0  0  0  0  0
    5.8290   -0.6553    1.9042 H   0  0  0  0  0  0  0  0  0  0  0  0
    6.1992   -0.8105    3.4907 H   0  0  0  0  0  0  0  0  0  0  0  0
    5.2543   -1.7892    4.8771 H   0  0  0  0  0  0  0  0  0  0  0  0
    5.4077   -4.5890    5.0911 H   0  0  0  0  0  0  0  0  0  0  0  0
    5.9528   -2.5212    6.8074 H   0  0  0  0  0  0  0  0  0  0  0  0
    0.9812   -3.8184    3.2529 H   0  0  0  0  0  0  0  0  0  0  0  0
    2.7451   -4.1371    1.7520 H   0  0  0  0  0  0  0  0  0  0  0  0
    4.3606   -5.3872    3.7868 H   0  0  0  0  0  0  0  0  0  0  0  0
    4.6111   -6.5107    1.0643 H   0  0  0  0  0  0  0  0  0  0  0  0
    6.4804   -7.7358    1.9543 H   0  0  0  0  0  0  0  0  0  0  0  0
    5.9103   -7.5041    3.6670 H   0  0  0  0  0  0  0  0  0  0  0  0
    4.5230   -8.9243    1.4179 H   0  0  0  0  0  0  0  0  0  0  0  0
    3.4683   -7.4655    3.7437 H   0  0  0  0  0  0  0  0  0  0  0  0
    2.3054   -7.8330    0.9116 H   0  0  0  0  0  0  0  0  0  0  0  0
    1.4836   -5.5113    0.9748 H   0  0  0  0  0  0  0  0  0  0  0  0
   -1.0945   -6.6795    1.9475 H   0  0  0  0  0  0  0  0  0  0  0  0
   -0.5769   -8.3661    1.8583 H   0  0  0  0  0  0  0  0  0  0  0  0
   -0.0867   -7.2353    0.6101 H   0  0  0  0  0  0  0  0  0  0  0  0
   -0.0789   -6.5481    4.3078 H   0  0  0  0  0  0  0  0  0  0  0  0
    1.5663   -7.1392    4.5693 H   0  0  0  0  0  0  0  0  0  0  0  0
    0.3091   -8.2595    4.0865 H   0  0  0  0  0  0  0  0  0  0  0  0
    4.7908   -4.2604    1.5572 H   0  0  0  0  0  0  0  0  0  0  0  0
    0.7871   -2.6982    5.7825 H   0  0  0  0  0  0  0  0  0  0  0  0
    0.0600   -1.9955    4.3657 H   0  0  0  0  0  0  0  0  0  0  0  0
    1.0185   -1.0162    5.4870 H   0  0  0  0  0  0  0  0  0  0  0  0
    3.4189   -1.4712    5.7111 H   0  0  0  0  0  0  0  0  0  0  0  0
    4.5379   -9.3036    3.0699 H   0  0  0  0  0  0  0  0  0  0  0  0
    7.0295   -3.1897    1.6710 H   0  0  0  0  0  0  0  0  0  0  0  0
  1  2  1  0
  1 40  1  0
  1 41  1  0
  1 42  1  0
  2  3  1  0
  2 43  1  0
  2 44  1  0
  3 36  1  0
  3  4  1  0
  3 88  1  1
  4  5  1  0
  4 45  1  0
  4 46  1  0
  5  6  1  0
  5  7  1  0
  5  8  1  0
  6 47  1  0
  6 48  1  0
  6 49  1  0
  7 50  1  0
  7 51  1  0
  7 52  1  0
  8 14  1  0
  8  9  1  0
  8 53  1  6
  9 10  1  0
  9 54  1  0
  9 55  1  0
 10 37  1  0
 10 11  1  6
 10 12  1  0
 11 56  1  0
 11 57  1  0
 11 58  1  0
 12 13  1  0
 12 59  1  0
 12 60  1  0
 14 13  1  1
 13 61  1  0
 13 62  1  0
 14 36  1  0
 14 15  1  0
 15 39  1  0
 15 16  1  0
 15 63  1  1
 16 17  1  0
 16 18  1  0
 16 64  1  6
 17 65  1  0
 18 39  1  0
 18 19  1  1
 18 21  1  0
 19 20  3  0
 21 22  2  0
 21 23  1  0
 23 24  1  0
 24 25  1  0
 24 37  1  0
 24 66  1  6
 25 32  1  0
 25 26  1  0
 25 67  1  6
 26 27  1  0
 26 36  1  0
 26 68  1  1
 27 30  1  0
 27 28  1  0
 27 69  1  6
 28 29  1  0
 28 70  1  0
 28 71  1  0
 29 30  1  0
 29 72  1  0
 29 87  1  0
 30 31  1  0
 30 73  1  1
 31 33  1  0
 31 32  1  0
 31 74  1  6
 32 33  1  0
 32 75  1  6
 33 34  1  0
 33 35  1  0
 34 76  1  0
 34 77  1  0
 34 78  1  0
 35 79  1  0
 35 80  1  0
 35 81  1  0
 36 82  1  1
 37 38  1  1
 37 39  1  0
 38 83  1  0
 38 84  1  0
 38 85  1  0
 39 86  1  1
M  CHG  2   3   1  29   1
M  END
>  <i_m_ct_stereo_status>  (195) 
1

>  <s_m_source_file>  (195) 
/var/tmp/pbs.5076255.sched01/tmph8v5ro6p/78zitxkb1g.sdf

>  <i_m_source_file_index>  (195) 
9

>  <i_lp_mmshare_version>  (195) 
48012

>  <i_f3d_flags>  (195) 
0

>  <s_epik_input>  (195) 
QzEyM1tDQEhdNEMoW0NIM10pKFtDSDNdKVtDSDJdTihbQ0gyXVtDSDNdKVtDQEhdM1tDQEhdNVtDQEBIXShbQ0BIXTZbQ0BIXShDNihbQ0gzXSlbQ0gzXSlbQ0BASF03W0NAQEhdNVtDSDJdW05IXTcpW0NAQEhdOFtDQF0oW0NIM10pKFtDQEBdKFtDSDJdNCkoW0NIM10pW0NIMl1bQ0gyXTEpW0NAQEhdOVtDQEhdMltDQEBIXShbT0hdKVtDQF05KEMjTilDKD1PKU84

>  <s_epik_cmdline>  (195) 
J2VwaWtfcHl0aG9uJywgJy1waHQnLCAnMi4wJywgJy1waCcsICc3LjAnLCAnLXRuJywgJzgnLCAnLW1hJywgJzIwMCcsICctaW1hZScsICc8aW5maWxlLm1hZT4nLCAnLW9tYWUnLCAnPG91dGZpbGUubWFlPic=

>  <r_epik_Ionization_Penalty>  (195) 
0.00174118

>  <r_epik_Ionization_Penalty_Charging>  (195) 
0.0016825

>  <r_epik_Ionization_Penalty_Neutral>  (195) 
5.86737e-05

>  <r_epik_State_Penalty>  (195) 
0.000934132

>  <r_epik_Charging_Adjusted_Penalty>  (195) 
0.00261664

>  <i_epik_Tot_Q>  (195) 
2

>  <i_epik_Tot_abs_Q>  (195) 
2

>  <s_epik_Chemistry_Notes>  (195) 
This compound has an ester and may undergo hydrolysis at high or low pH.

>  <s_lp_Force_Field>  (195) 
OPLS3e

>  <r_lp_Energy>  (195) 
380.935

>  <b_lp_Chiralities_Consistent>  (195) 
1

>  <s_lp_Variant>  (195) 
65:0-2

>  <s_i_glide_gridfile>  (195) 
pfpi4k_grid

>  <i_i_glide_lignum>  (195) 
9

>  <i_i_glide_rotatable_bonds>  (195) 
3

>  <r_i_docking_score>  (195) 
-2.64854

>  <r_i_glide_ligand_efficiency>  (195) 
-0.0679113

>  <r_i_glide_ligand_efficiency_sa>  (195) 
-0.230302

>  <r_i_glide_ligand_efficiency_ln>  (195) 
-0.567922

>  <r_i_glide_gscore>  (195) 
-2.64854

>  <r_i_glide_lipo>  (195) 
-0.435418

>  <r_i_glide_hbond>  (195) 
0

>  <r_i_glide_metal>  (195) 
-0

>  <r_i_glide_rewards>  (195) 
0

>  <r_i_glide_evdw>  (195) 
-33.0513

>  <r_i_glide_ecoul>  (195) 
-3.68117

>  <r_i_glide_erotb>  (195) 
0

>  <r_i_glide_esite>  (195) 
-0.00837961

>  <r_i_glide_emodel>  (195) 
-42.1879

>  <r_i_glide_energy>  (195) 
-36.7325

>  <r_i_glide_einternal>  (195) 
0.734011

>  <r_i_glide_intrahb_reward>  (195) 
-0

>  <i_i_glide_confnum>  (195) 
1

>  <i_i_glide_posenum>  (195) 
25

>  <r_i_glide_eff_state_penalty>  (195) 
0

>  <ligand_id>  (195) 
65

>  <original_smiles>  (195) 
CCN1CC(C)(C)C2CC3(C)CCC24C2C(O)C5(C#N)C(=O)OC(C6C(C7CNC7C7C6C7(C)C)C14)C3(C)C25

>  <smiles>  (195) 
[H]OC1([H])C2(C#N)C(=O)OC3([H])C4([H])C5([H])C([H])(C5(C([H])([H])[H])C([H])([H])[H])C5([H])C([H])(C4([H])C4([H])C67C([H])([H])C([H])([H])C(C([H])([H])[H])(C([H])([H])C6([H])C(C([H])([H])[H])(C([H])([H])[H])C([H])([H])[N+]4([H])C([H])([H])C([H])([H])[H])C3(C([H])([H])[H])C2([H])C17[H])C([H])([H])[N+]5([H])[H]

$$$$
65:1:1
     RDKit          3D

 88 96  0  0  1  0  0  0  0  0999 V2000
   -2.5994    3.4391    3.0117 C   0  0  0  0  0  0  0  0  0  0  0  0
   -1.9010    3.1972    4.3593 C   0  0  0  0  0  0  0  0  0  0  0  0
   -0.5059    2.7344    4.1830 N   0  0  1  0  0  0  0  0  0  0  0  0
    0.4746    3.7796    3.6978 C   0  0  0  0  0  0  0  0  0  0  0  0
    1.8661    3.8494    4.4328 C   0  0  0  0  0  0  0  0  0  0  0  0
    2.8172    4.6307    3.4729 C   0  0  0  0  0  0  0  0  0  0  0  0
    1.7808    4.7755    5.6795 C   0  0  0  0  0  0  0  0  0  0  0  0
    2.3950    2.3589    4.7348 C   0  0  1  0  0  0  0  0  0  0  0  0
    3.7177    2.0844    5.4453 C   0  0  0  0  0  0  0  0  0  0  0  0
    3.8944    0.5705    5.3680 C   0  0  2  0  0  0  0  0  0  0  0  0
    5.4335    0.3274    5.3484 C   0  0  0  0  0  0  0  0  0  0  0  0
    3.3926    0.0950    3.8634 C   0  0  0  0  0  0  0  0  0  0  0  0
    1.9286    0.5980    3.3431 C   0  0  0  0  0  0  0  0  0  0  0  0
    1.3073    1.0887    4.6894 C   0  0  1  0  0  0  0  0  0  0  0  0
    1.1939   -0.4484    5.2548 C   0  0  2  0  0  0  0  0  0  0  0  0
    0.0356   -1.2232    5.9471 C   0  0  1  0  0  0  0  0  0  0  0  0
   -0.6331   -2.2406    5.2182 O   0  0  0  0  0  0  0  0  0  0  0  0
    1.0512   -1.6687    7.0397 C   0  0  2  0  0  0  0  0  0  0  0  0
    1.1261   -3.1383    7.1367 C   0  0  0  0  0  0  0  0  0  0  0  0
    1.1746   -4.2942    7.2043 N   0  0  0  0  0  0  0  0  0  0  0  0
    0.8952   -1.1106    8.4268 C   0  0  0  0  0  0  0  0  0  0  0  0
    0.1358   -1.5922    9.2670 O   0  0  0  0  0  0  0  0  0  0  0  0
    1.6935   -0.0514    8.7413 O   0  0  0  0  0  0  0  0  0  0  0  0
    2.3408    0.8092    7.8026 C   0  0  2  0  0  0  0  0  0  0  0  0
    1.2936    2.0103    7.6252 C   0  0  1  0  0  0  0  0  0  0  0  0
   -0.1083    1.8271    6.8297 C   0  0  1  0  0  0  0  0  0  0  0  0
   -1.1893    2.7422    7.4397 C   0  0  1  0  0  0  0  0  0  0  0  0
   -2.6962    2.5081    7.5880 C   0  0  0  0  0  0  0  0  0  0  0  0
   -2.5674    3.0866    8.9403 N   0  0  0  0  0  0  0  0  0  0  0  0
   -1.1908    2.6095    8.9435 C   0  0  2  0  0  0  0  0  0  0  0  0
   -0.0617    3.4152    9.5217 C   0  0  2  0  0  0  0  0  0  0  0  0
    1.2658    3.0287    8.8369 C   0  0  1  0  0  0  0  0  0  0  0  0
    1.0817    2.8605   10.3404 C   0  0  0  0  0  0  0  0  0  0  0  0
    1.8449    3.8305   11.2362 C   0  0  0  0  0  0  0  0  0  0  0  0
    0.9353    1.5437   11.0804 C   0  0  0  0  0  0  0  0  0  0  0  0
    0.0191    1.7821    5.2071 C   0  0  2  0  0  0  0  0  0  0  0  0
    3.1584   -0.0734    6.6982 C   0  0  2  0  0  0  0  0  0  0  0  0
    4.1971   -0.8610    7.5510 C   0  0  0  0  0  0  0  0  0  0  0  0
    2.1840   -1.0664    6.1879 C   0  0  2  0  0  0  0  0  0  0  0  0
   -3.6409    3.7314    3.1648 H   0  0  0  0  0  0  0  0  0  0  0  0
   -2.6116    2.5322    2.3984 H   0  0  0  0  0  0  0  0  0  0  0  0
   -2.1115    4.2320    2.4366 H   0  0  0  0  0  0  0  0  0  0  0  0
   -1.9343    4.0988    4.9717 H   0  0  0  0  0  0  0  0  0  0  0  0
   -2.4729    2.4241    4.8737 H   0  0  0  0  0  0  0  0  0  0  0  0
    0.6603    3.5194    2.6558 H   0  0  0  0  0  0  0  0  0  0  0  0
    0.0100    4.7680    3.6960 H   0  0  0  0  0  0  0  0  0  0  0  0
    3.8157    4.7317    3.9050 H   0  0  0  0  0  0  0  0  0  0  0  0
    2.4474    5.6393    3.2693 H   0  0  0  0  0  0  0  0  0  0  0  0
    2.9257    4.1444    2.4965 H   0  0  0  0  0  0  0  0  0  0  0  0
    2.6983    4.7318    6.2720 H   0  0  0  0  0  0  0  0  0  0  0  0
    0.9467    4.5623    6.3436 H   0  0  0  0  0  0  0  0  0  0  0  0
    1.6389    5.8177    5.3926 H   0  0  0  0  0  0  0  0  0  0  0  0
    2.9433    2.4286    3.8021 H   0  0  0  0  0  0  0  0  0  0  0  0
    4.5251    2.6013    4.9200 H   0  0  0  0  0  0  0  0  0  0  0  0
    3.8085    2.4626    6.4590 H   0  0  0  0  0  0  0  0  0  0  0  0
    5.6858   -0.7266    5.2223 H   0  0  0  0  0  0  0  0  0  0  0  0
    5.9333    0.7003    6.2442 H   0  0  0  0  0  0  0  0  0  0  0  0
    5.9097    0.8398    4.5093 H   0  0  0  0  0  0  0  0  0  0  0  0
    4.1138    0.4611    3.1289 H   0  0  0  0  0  0  0  0  0  0  0  0
    3.4771   -0.9897    3.7710 H   0  0  0  0  0  0  0  0  0  0  0  0
    1.9724    1.3372    2.5374 H   0  0  0  0  0  0  0  0  0  0  0  0
    1.3924   -0.1747    2.7863 H   0  0  0  0  0  0  0  0  0  0  0  0
    1.2459   -1.1719    4.4422 H   0  0  0  0  0  0  0  0  0  0  0  0
   -0.7925   -0.6480    6.3033 H   0  0  0  0  0  0  0  0  0  0  0  0
    0.0152   -2.7966    4.8117 H   0  0  0  0  0  0  0  0  0  0  0  0
    3.1413    1.2842    8.3677 H   0  0  0  0  0  0  0  0  0  0  0  0
    1.8402    2.6629    6.9984 H   0  0  0  0  0  0  0  0  0  0  0  0
   -0.4247    0.9031    7.2435 H   0  0  0  0  0  0  0  0  0  0  0  0
   -1.0384    3.7919    7.1611 H   0  0  0  0  0  0  0  0  0  0  0  0
   -3.3308    3.1101    6.9367 H   0  0  0  0  0  0  0  0  0  0  0  0
   -2.9738    1.4495    7.5841 H   0  0  0  0  0  0  0  0  0  0  0  0
   -2.6516    4.0946    8.9642 H   0  0  0  0  0  0  0  0  0  0  0  0
   -1.1953    1.5654    9.2658 H   0  0  0  0  0  0  0  0  0  0  0  0
   -0.2578    4.4843    9.6116 H   0  0  0  0  0  0  0  0  0  0  0  0
    1.9220    3.8711    8.6167 H   0  0  0  0  0  0  0  0  0  0  0  0
    2.8576    3.4730   11.4173 H   0  0  0  0  0  0  0  0  0  0  0  0
    1.3444    3.9552   12.1963 H   0  0  0  0  0  0  0  0  0  0  0  0
    1.9166    4.8162   10.7737 H   0  0  0  0  0  0  0  0  0  0  0  0
    1.9132    1.0829   11.2178 H   0  0  0  0  0  0  0  0  0  0  0  0
    0.2929    0.8459   10.5538 H   0  0  0  0  0  0  0  0  0  0  0  0
    0.4920    1.7112   12.0634 H   0  0  0  0  0  0  0  0  0  0  0  0
    0.3067    2.7072    5.6255 H   0  0  0  0  0  0  0  0  0  0  0  0
    3.7335   -1.4261    8.3586 H   0  0  0  0  0  0  0  0  0  0  0  0
    4.9130   -0.1914    8.0293 H   0  0  0  0  0  0  0  0  0  0  0  0
    4.7503   -1.6069    6.9786 H   0  0  0  0  0  0  0  0  0  0  0  0
    2.6866   -1.9005    5.6900 H   0  0  0  0  0  0  0  0  0  0  0  0
   -3.1275    2.6113    9.6320 H   0  0  0  0  0  0  0  0  0  0  0  0
   -0.5834    2.1415    3.3673 H   0  0  0  0  0  0  0  0  0  0  0  0
  1  2  1  0
  1 40  1  0
  1 41  1  0
  1 42  1  0
  2  3  1  0
  2 43  1  0
  2 44  1  0
  3 36  1  0
  3  4  1  0
  3 88  1  6
  4  5  1  0
  4 45  1  0
  4 46  1  0
  5  6  1  0
  5  7  1  0
  5  8  1  0
  6 47  1  0
  6 48  1  0
  6 49  1  0
  7 50  1  0
  7 51  1  0
  7 52  1  0
  8 14  1  0
  8  9  1  0
  8 53  1  6
  9 10  1  0
  9 54  1  0
  9 55  1  0
 10 37  1  0
 10 11  1  1
 10 12  1  0
 11 56  1  0
 11 57  1  0
 11 58  1  0
 12 13  1  0
 12 59  1  0
 12 60  1  0
 14 13  1  6
 13 61  1  0
 13 62  1  0
 14 36  1  0
 14 15  1  0
 15 39  1  0
 15 16  1  0
 15 63  1  6
 16 17  1  0
 16 18  1  0
 16 64  1  1
 17 65  1  0
 18 39  1  0
 18 19  1  1
 18 21  1  0
 19 20  3  0
 21 22  2  0
 21 23  1  0
 23 24  1  0
 24 25  1  0
 24 37  1  0
 24 66  1  1
 25 32  1  0
 25 26  1  0
 25 67  1  6
 26 27  1  0
 26 36  1  0
 26 68  1  1
 27 30  1  0
 27 28  1  0
 27 69  1  1
 28 29  1  0
 28 70  1  0
 28 71  1  0
 29 30  1  0
 29 72  1  0
 29 87  1  0
 30 31  1  0
 30 73  1  6
 31 33  1  0
 31 32  1  0
 31 74  1  1
 32 33  1  0
 32 75  1  1
 33 34  1  0
 33 35  1  0
 34 76  1  0
 34 77  1  0
 34 78  1  0
 35 79  1  0
 35 80  1  0
 35 81  1  0
 36 82  1  6
 37 38  1  1
 37 39  1  0
 38 83  1  0
 38 84  1  0
 38 85  1  0
 39 86  1  6
M  CHG  2   3   1  29   1
M  END
>  <i_m_ct_stereo_status>  (196) 
1

>  <s_m_source_file>  (196) 
/var/tmp/pbs.5076255.sched01/tmph8v5ro6p/78zitxkb1g.sdf

>  <i_m_source_file_index>  (196) 
9

>  <i_lp_mmshare_version>  (196) 
48012

>  <i_f3d_flags>  (196) 
0

>  <s_epik_input>  (196) 
QzEyM1tDQEhdNEMoW0NIM10pKFtDSDNdKVtDSDJdTihbQ0gyXVtDSDNdKVtDQEhdM1tDQEhdNVtDQEBIXShbQ0BIXTZbQ0BIXShDNihbQ0gzXSlbQ0gzXSlbQ0BASF03W0NAQEhdNVtDSDJdW05IXTcpW0NAQEhdOFtDQF0oW0NIM10pKFtDQEBdKFtDSDJdNCkoW0NIM10pW0NIMl1bQ0gyXTEpW0NAQEhdOVtDQEhdMltDQEBIXShbT0hdKVtDQF05KEMjTilDKD1PKU84

>  <s_epik_cmdline>  (196) 
J2VwaWtfcHl0aG9uJywgJy1waHQnLCAnMi4wJywgJy1waCcsICc3LjAnLCAnLXRuJywgJzgnLCAnLW1hJywgJzIwMCcsICctaW1hZScsICc8aW5maWxlLm1hZT4nLCAnLW9tYWUnLCAnPG91dGZpbGUubWFlPic=

>  <r_epik_Ionization_Penalty>  (196) 
0.00174118

>  <r_epik_Ionization_Penalty_Charging>  (196) 
0.0016825

>  <r_epik_Ionization_Penalty_Neutral>  (196) 
5.86737e-05

>  <r_epik_State_Penalty>  (196) 
0.000934132

>  <r_epik_Charging_Adjusted_Penalty>  (196) 
0.00261664

>  <i_epik_Tot_Q>  (196) 
2

>  <i_epik_Tot_abs_Q>  (196) 
2

>  <s_epik_Chemistry_Notes>  (196) 
This compound has an ester and may undergo hydrolysis at high or low pH.

>  <s_lp_Force_Field>  (196) 
OPLS3e

>  <r_lp_Energy>  (196) 
380.935

>  <b_lp_Chiralities_Consistent>  (196) 
1

>  <s_lp_Variant>  (196) 
65:0-2

>  <s_i_glide_gridfile>  (196) 
pfpi4k_grid

>  <i_i_glide_lignum>  (196) 
9

>  <i_i_glide_rotatable_bonds>  (196) 
3

>  <r_i_docking_score>  (196) 
-2.34861

>  <r_i_glide_ligand_efficiency>  (196) 
-0.0602207

>  <r_i_glide_ligand_efficiency_sa>  (196) 
-0.204221

>  <r_i_glide_ligand_efficiency_ln>  (196) 
-0.503608

>  <r_i_glide_gscore>  (196) 
-2.34861

>  <r_i_glide_lipo>  (196) 
-0.215738

>  <r_i_glide_hbond>  (196) 
-0.139454

>  <r_i_glide_metal>  (196) 
-0

>  <r_i_glide_rewards>  (196) 
0

>  <r_i_glide_evdw>  (196) 
-26.6642

>  <r_i_glide_ecoul>  (196) 
-3.93994

>  <r_i_glide_erotb>  (196) 
0

>  <r_i_glide_esite>  (196) 
-0.0692142

>  <r_i_glide_emodel>  (196) 
-35.307

>  <r_i_glide_energy>  (196) 
-30.6042

>  <r_i_glide_einternal>  (196) 
0.88311

>  <r_i_glide_intrahb_reward>  (196) 
-0

>  <i_i_glide_confnum>  (196) 
1

>  <i_i_glide_posenum>  (196) 
15

>  <r_i_glide_eff_state_penalty>  (196) 
0

>  <ligand_id>  (196) 
65

>  <original_smiles>  (196) 
CCN1CC(C)(C)C2CC3(C)CCC24C2C(O)C5(C#N)C(=O)OC(C6C(C7CNC7C7C6C7(C)C)C14)C3(C)C25

>  <smiles>  (196) 
[H]OC1([H])C2(C#N)C(=O)OC3([H])C4([H])C5([H])C([H])(C5(C([H])([H])[H])C([H])([H])[H])C5([H])C([H])(C4([H])C4([H])C67C([H])([H])C([H])([H])C(C([H])([H])[H])(C([H])([H])C6([H])C(C([H])([H])[H])(C([H])([H])[H])C([H])([H])[N+]4([H])C([H])([H])C([H])([H])[H])C3(C([H])([H])[H])C2([H])C17[H])C([H])([H])[N+]5([H])[H]

$$$$
65:1:2
     RDKit          3D

 88 96  0  0  1  0  0  0  0  0999 V2000
    5.3359    7.1845    4.9628 C   0  0  0  0  0  0  0  0  0  0  0  0
    4.1767    6.1774    5.0119 C   0  0  0  0  0  0  0  0  0  0  0  0
    3.4387    6.2366    6.2841 N   0  0  1  0  0  0  0  0  0  0  0  0
    2.7035    7.5289    6.5521 C   0  0  0  0  0  0  0  0  0  0  0  0
    1.2323    7.4040    7.0979 C   0  0  0  0  0  0  0  0  0  0  0  0
    0.8749    8.7944    7.7142 C   0  0  0  0  0  0  0  0  0  0  0  0
    0.2261    7.2925    5.9174 C   0  0  0  0  0  0  0  0  0  0  0  0
    1.1441    6.2230    8.1815 C   0  0  1  0  0  0  0  0  0  0  0  0
   -0.1598    5.8508    8.8859 C   0  0  0  0  0  0  0  0  0  0  0  0
    0.2477    4.8145    9.9256 C   0  0  2  0  0  0  0  0  0  0  0  0
   -0.7670    4.9736   11.0966 C   0  0  0  0  0  0  0  0  0  0  0  0
    1.6896    5.3071   10.5694 C   0  0  0  0  0  0  0  0  0  0  0  0
    2.8972    5.6991    9.5413 C   0  0  0  0  0  0  0  0  0  0  0  0
    2.3582    5.0811    8.2116 C   0  0  1  0  0  0  0  0  0  0  0  0
    2.5700    3.5545    8.7715 C   0  0  2  0  0  0  0  0  0  0  0  0
    3.2283    2.2918    8.1502 C   0  0  1  0  0  0  0  0  0  0  0  0
    4.4669    1.8596    8.6953 O   0  0  0  0  0  0  0  0  0  0  0  0
    1.9680    1.4911    8.5793 C   0  0  2  0  0  0  0  0  0  0  0  0
    2.3248    0.3442    9.4515 C   0  0  0  0  0  0  0  0  0  0  0  0
    2.6170   -0.5416   10.1290 N   0  0  0  0  0  0  0  0  0  0  0  0
    1.0477    0.9734    7.5026 C   0  0  0  0  0  0  0  0  0  0  0  0
    1.1983   -0.0880    6.9278 O   0  0  0  0  0  0  0  0  0  0  0  0
   -0.0582    1.7497    7.2777 O   0  0  0  0  0  0  0  0  0  0  0  0
   -0.2254    3.1235    7.6297 C   0  0  2  0  0  0  0  0  0  0  0  0
    0.2588    3.8991    6.3161 C   0  0  1  0  0  0  0  0  0  0  0  0
    1.8155    3.9690    5.8606 C   0  0  1  0  0  0  0  0  0  0  0  0
    1.9159    4.0228    4.3261 C   0  0  1  0  0  0  0  0  0  0  0  0
    2.9632    3.4446    3.3816 C   0  0  0  0  0  0  0  0  0  0  0  0
    1.8417    3.0652    2.5123 N   0  0  0  0  0  0  0  0  0  0  0  0
    1.0329    2.9816    3.7009 C   0  0  2  0  0  0  0  0  0  0  0  0
   -0.3884    3.4401    3.7154 C   0  0  2  0  0  0  0  0  0  0  0  0
   -0.7909    3.8666    5.1320 C   0  0  1  0  0  0  0  0  0  0  0  0
   -1.5293    2.7513    4.4099 C   0  0  0  0  0  0  0  0  0  0  0  0
   -2.9318    3.0680    3.9191 C   0  0  0  0  0  0  0  0  0  0  0  0
   -1.4681    1.2765    4.7454 C   0  0  0  0  0  0  0  0  0  0  0  0
    2.7290    4.9999    6.7145 C   0  0  2  0  0  0  0  0  0  0  0  0
    0.1532    3.3410    9.2003 C   0  0  2  0  0  0  0  0  0  0  0  0
   -0.8603    2.4347    9.9606 C   0  0  0  0  0  0  0  0  0  0  0  0
    1.4871    2.7177    9.3677 C   0  0  2  0  0  0  0  0  0  0  0  0
    5.8921    7.0837    4.0247 H   0  0  0  0  0  0  0  0  0  0  0  0
    6.0467    7.0327    5.7813 H   0  0  0  0  0  0  0  0  0  0  0  0
    4.9882    8.2208    5.0123 H   0  0  0  0  0  0  0  0  0  0  0  0
    3.5214    6.3450    4.1641 H   0  0  0  0  0  0  0  0  0  0  0  0
    4.6072    5.1854    4.8949 H   0  0  0  0  0  0  0  0  0  0  0  0
    3.3005    8.0820    7.2721 H   0  0  0  0  0  0  0  0  0  0  0  0
    2.6890    8.1444    5.6606 H   0  0  0  0  0  0  0  0  0  0  0  0
   -0.1425    8.8163    8.1210 H   0  0  0  0  0  0  0  0  0  0  0  0
    0.9350    9.5924    6.9717 H   0  0  0  0  0  0  0  0  0  0  0  0
    1.5565    9.0861    8.5187 H   0  0  0  0  0  0  0  0  0  0  0  0
   -0.7795    7.0800    6.2840 H   0  0  0  0  0  0  0  0  0  0  0  0
    0.4773    6.5377    5.1768 H   0  0  0  0  0  0  0  0  0  0  0  0
    0.1721    8.2186    5.3407 H   0  0  0  0  0  0  0  0  0  0  0  0
    1.3008    6.9853    8.9392 H   0  0  0  0  0  0  0  0  0  0  0  0
   -0.5828    6.7416    9.3592 H   0  0  0  0  0  0  0  0  0  0  0  0
   -0.9746    5.5051    8.2555 H   0  0  0  0  0  0  0  0  0  0  0  0
   -0.5341    4.3260   11.9439 H   0  0  0  0  0  0  0  0  0  0  0  0
   -1.8008    4.7889   10.7967 H   0  0  0  0  0  0  0  0  0  0  0  0
   -0.7590    5.9854   11.5040 H   0  0  0  0  0  0  0  0  0  0  0  0
    1.5045    6.1959   11.1746 H   0  0  0  0  0  0  0  0  0  0  0  0
    2.0325    4.5800   11.3053 H   0  0  0  0  0  0  0  0  0  0  0  0
    3.1239    6.7677    9.5163 H   0  0  0  0  0  0  0  0  0  0  0  0
    3.8672    5.3618    9.9026 H   0  0  0  0  0  0  0  0  0  0  0  0
    3.2626    3.5386    9.6094 H   0  0  0  0  0  0  0  0  0  0  0  0
    3.4404    2.3094    7.0988 H   0  0  0  0  0  0  0  0  0  0  0  0
    4.7444    1.1131    8.1816 H   0  0  0  0  0  0  0  0  0  0  0  0
   -1.3052    3.2860    7.6194 H   0  0  0  0  0  0  0  0  0  0  0  0
    0.0364    4.8992    6.5836 H   0  0  0  0  0  0  0  0  0  0  0  0
    2.0816    2.9504    6.0097 H   0  0  0  0  0  0  0  0  0  0  0  0
    1.6380    5.0011    3.9294 H   0  0  0  0  0  0  0  0  0  0  0  0
    3.6305    4.1753    2.9326 H   0  0  0  0  0  0  0  0  0  0  0  0
    3.5031    2.6034    3.8241 H   0  0  0  0  0  0  0  0  0  0  0  0
    1.5099    3.7758    1.8521 H   0  0  0  0  0  0  0  0  0  0  0  0
    1.1857    2.0015    4.1599 H   0  0  0  0  0  0  0  0  0  0  0  0
   -0.6534    4.1383    2.9135 H   0  0  0  0  0  0  0  0  0  0  0  0
   -1.3878    4.7722    5.1724 H   0  0  0  0  0  0  0  0  0  0  0  0
   -3.6658    2.9488    4.7165 H   0  0  0  0  0  0  0  0  0  0  0  0
   -3.2181    2.4527    3.0673 H   0  0  0  0  0  0  0  0  0  0  0  0
   -2.9671    4.1019    3.5858 H   0  0  0  0  0  0  0  0  0  0  0  0
   -2.1132    1.0622    5.5965 H   0  0  0  0  0  0  0  0  0  0  0  0
   -0.4583    0.9663    4.9756 H   0  0  0  0  0  0  0  0  0  0  0  0
   -1.8036    0.6893    3.8910 H   0  0  0  0  0  0  0  0  0  0  0  0
    1.9580    5.4832    6.1677 H   0  0  0  0  0  0  0  0  0  0  0  0
   -0.8414    1.4046    9.6135 H   0  0  0  0  0  0  0  0  0  0  0  0
   -1.8848    2.7798    9.8223 H   0  0  0  0  0  0  0  0  0  0  0  0
   -0.6675    2.3604   11.0323 H   0  0  0  0  0  0  0  0  0  0  0  0
    1.7236    2.5178   10.4178 H   0  0  0  0  0  0  0  0  0  0  0  0
    1.9908    2.1662    2.0981 H   0  0  0  0  0  0  0  0  0  0  0  0
    4.1844    6.2814    6.9596 H   0  0  0  0  0  0  0  0  0  0  0  0
  1  2  1  0
  1 40  1  0
  1 41  1  0
  1 42  1  0
  2  3  1  0
  2 43  1  0
  2 44  1  0
  3 36  1  0
  3  4  1  0
  3 88  1  1
  4  5  1  0
  4 45  1  0
  4 46  1  0
  5  6  1  0
  5  7  1  0
  5  8  1  0
  6 47  1  0
  6 48  1  0
  6 49  1  0
  7 50  1  0
  7 51  1  0
  7 52  1  0
  8 14  1  0
  8  9  1  0
  8 53  1  1
  9 10  1  0
  9 54  1  0
  9 55  1  0
 10 37  1  0
 10 11  1  1
 10 12  1  0
 11 56  1  0
 11 57  1  0
 11 58  1  0
 12 13  1  0
 12 59  1  0
 12 60  1  0
 14 13  1  1
 13 61  1  0
 13 62  1  0
 14 36  1  0
 14 15  1  0
 15 39  1  0
 15 16  1  0
 15 63  1  1
 16 17  1  0
 16 18  1  0
 16 64  1  6
 17 65  1  0
 18 39  1  0
 18 19  1  1
 18 21  1  0
 19 20  3  0
 21 22  2  0
 21 23  1  0
 23 24  1  0
 24 25  1  0
 24 37  1  0
 24 66  1  1
 25 32  1  0
 25 26  1  0
 25 67  1  1
 26 27  1  0
 26 36  1  0
 26 68  1  1
 27 30  1  0
 27 28  1  0
 27 69  1  6
 28 29  1  0
 28 70  1  0
 28 71  1  0
 29 30  1  0
 29 72  1  0
 29 87  1  0
 30 31  1  0
 30 73  1  1
 31 33  1  0
 31 32  1  0
 31 74  1  6
 32 33  1  0
 32 75  1  6
 33 34  1  0
 33 35  1  0
 34 76  1  0
 34 77  1  0
 34 78  1  0
 35 79  1  0
 35 80  1  0
 35 81  1  0
 36 82  1  1
 37 38  1  1
 37 39  1  0
 38 83  1  0
 38 84  1  0
 38 85  1  0
 39 86  1  1
M  CHG  2   3   1  29   1
M  END
>  <i_m_ct_stereo_status>  (197) 
1

>  <s_m_source_file>  (197) 
/var/tmp/pbs.5076255.sched01/tmph8v5ro6p/78zitxkb1g.sdf

>  <i_m_source_file_index>  (197) 
9

>  <i_lp_mmshare_version>  (197) 
48012

>  <i_f3d_flags>  (197) 
0

>  <s_epik_input>  (197) 
QzEyM1tDQEhdNEMoW0NIM10pKFtDSDNdKVtDSDJdTihbQ0gyXVtDSDNdKVtDQEhdM1tDQEhdNVtDQEBIXShbQ0BIXTZbQ0BIXShDNihbQ0gzXSlbQ0gzXSlbQ0BASF03W0NAQEhdNVtDSDJdW05IXTcpW0NAQEhdOFtDQF0oW0NIM10pKFtDQEBdKFtDSDJdNCkoW0NIM10pW0NIMl1bQ0gyXTEpW0NAQEhdOVtDQEhdMltDQEBIXShbT0hdKVtDQF05KEMjTilDKD1PKU84

>  <s_epik_cmdline>  (197) 
J2VwaWtfcHl0aG9uJywgJy1waHQnLCAnMi4wJywgJy1waCcsICc3LjAnLCAnLXRuJywgJzgnLCAnLW1hJywgJzIwMCcsICctaW1hZScsICc8aW5maWxlLm1hZT4nLCAnLW9tYWUnLCAnPG91dGZpbGUubWFlPic=

>  <r_epik_Ionization_Penalty>  (197) 
0.00174118

>  <r_epik_Ionization_Penalty_Charging>  (197) 
0.0016825

>  <r_epik_Ionization_Penalty_Neutral>  (197) 
5.86737e-05

>  <r_epik_State_Penalty>  (197) 
0.000934132

>  <r_epik_Charging_Adjusted_Penalty>  (197) 
0.00261664

>  <i_epik_Tot_Q>  (197) 
2

>  <i_epik_Tot_abs_Q>  (197) 
2

>  <s_epik_Chemistry_Notes>  (197) 
This compound has an ester and may undergo hydrolysis at high or low pH.

>  <s_lp_Force_Field>  (197) 
OPLS3e

>  <r_lp_Energy>  (197) 
380.935

>  <b_lp_Chiralities_Consistent>  (197) 
1

>  <s_lp_Variant>  (197) 
65:0-2

>  <s_i_glide_gridfile>  (197) 
pfpi4k_grid

>  <i_i_glide_lignum>  (197) 
9

>  <i_i_glide_rotatable_bonds>  (197) 
3

>  <r_i_docking_score>  (197) 
-2.34712

>  <r_i_glide_ligand_efficiency>  (197) 
-0.0601827

>  <r_i_glide_ligand_efficiency_sa>  (197) 
-0.204092

>  <r_i_glide_ligand_efficiency_ln>  (197) 
-0.50329

>  <r_i_glide_gscore>  (197) 
-2.34712

>  <r_i_glide_lipo>  (197) 
-0.044882

>  <r_i_glide_hbond>  (197) 
-0.187219

>  <r_i_glide_metal>  (197) 
-0

>  <r_i_glide_rewards>  (197) 
0

>  <r_i_glide_evdw>  (197) 
-22.5884

>  <r_i_glide_ecoul>  (197) 
-5.9941

>  <r_i_glide_erotb>  (197) 
0

>  <r_i_glide_esite>  (197) 
-0.0864878

>  <r_i_glide_emodel>  (197) 
-32.7747

>  <r_i_glide_energy>  (197) 
-28.5825

>  <r_i_glide_einternal>  (197) 
1.82992

>  <r_i_glide_intrahb_reward>  (197) 
-0

>  <i_i_glide_confnum>  (197) 
2

>  <i_i_glide_posenum>  (197) 
2

>  <r_i_glide_eff_state_penalty>  (197) 
0

>  <ligand_id>  (197) 
65

>  <original_smiles>  (197) 
CCN1CC(C)(C)C2CC3(C)CCC24C2C(O)C5(C#N)C(=O)OC(C6C(C7CNC7C7C6C7(C)C)C14)C3(C)C25

>  <smiles>  (197) 
[H]OC1([H])C2(C#N)C(=O)OC3([H])C4([H])C5([H])C([H])(C5(C([H])([H])[H])C([H])([H])[H])C5([H])C([H])(C4([H])C4([H])C67C([H])([H])C([H])([H])C(C([H])([H])[H])(C([H])([H])C6([H])C(C([H])([H])[H])(C([H])([H])[H])C([H])([H])[N+]4([H])C([H])([H])C([H])([H])[H])C3(C([H])([H])[H])C2([H])C17[H])C([H])([H])[N+]5([H])[H]

$$$$
66:0:0
     RDKit          3D

 49 54  0  0  1  0  0  0  0  0999 V2000
    3.2066    0.1744   -4.4933 C   0  0  0  0  0  0  0  0  0  0  0  0
    3.8566   -0.9691   -3.7363 C   0  0  0  0  0  0  0  0  0  0  0  0
    4.2089   -1.9914   -4.3148 O   0  0  0  0  0  0  0  0  0  0  0  0
    4.0475   -0.7312   -2.4323 O   0  0  0  0  0  0  0  0  0  0  0  0
    4.8385   -1.6293   -1.6374 C   0  0  2  0  0  0  0  0  0  0  0  0
    4.2571   -3.0787   -1.5343 C   0  0  2  0  0  0  0  0  0  0  0  0
    3.0673   -2.8736   -0.5982 C   0  0  2  0  0  0  0  0  0  0  0  0
    3.3429   -1.5729    0.1375 C   0  0  0  0  0  0  0  0  0  0  0  0
    4.7980   -1.1907   -0.1482 C   0  0  1  0  0  0  0  0  0  0  0  0
    5.9223   -1.7268    0.8667 C   0  0  1  0  0  0  0  0  0  0  0  0
    7.1385   -1.0536    0.5119 O   0  0  0  0  0  0  0  0  0  0  0  0
    5.7833   -0.9643    2.2145 C   0  0  0  0  0  0  0  0  0  0  0  0
    4.5177   -1.2209    3.0163 C   0  0  0  0  0  0  0  0  0  0  0  0
    4.2122   -2.7212    3.0609 C   0  0  1  0  0  0  0  0  0  0  0  0
    2.8458   -2.9826    3.3255 O   0  0  0  0  0  0  0  0  0  0  0  0
    4.8094   -3.5915    1.8989 C   0  0  1  0  0  0  0  0  0  0  0  0
    3.9783   -4.4960    1.0358 N   0  0  1  0  0  0  0  0  0  0  0  0
    2.7704   -4.0147    0.3504 C   0  0  0  0  0  0  0  0  0  0  0  0
    4.9474   -5.0556    0.0823 C   0  0  2  0  0  0  0  0  0  0  0  0
    6.2153   -4.9159    0.8839 C   0  0  0  0  0  0  0  0  0  0  0  0
    6.2185   -3.3152    1.1958 C   0  0  2  0  0  0  0  0  0  0  0  0
    6.5339   -3.4505   -0.3867 C   0  0  0  0  0  0  0  0  0  0  0  0
    5.3171   -4.0959   -1.0424 C   0  0  2  0  0  0  0  0  0  0  0  0
    3.7938    1.0830   -4.3575 H   0  0  0  0  0  0  0  0  0  0  0  0
    2.2031    0.3618   -4.1170 H   0  0  0  0  0  0  0  0  0  0  0  0
    3.1449   -0.0459   -5.5598 H   0  0  0  0  0  0  0  0  0  0  0  0
    5.8278   -1.5567   -2.0809 H   0  0  0  0  0  0  0  0  0  0  0  0
    3.8779   -3.5008   -2.4647 H   0  0  0  0  0  0  0  0  0  0  0  0
    2.1943   -2.7207   -1.2246 H   0  0  0  0  0  0  0  0  0  0  0  0
    2.7295   -0.7902   -0.3045 H   0  0  0  0  0  0  0  0  0  0  0  0
    2.9501   -1.6067    1.1373 H   0  0  0  0  0  0  0  0  0  0  0  0
    4.8386   -0.1041   -0.1076 H   0  0  0  0  0  0  0  0  0  0  0  0
    7.2848   -0.3437    1.1078 H   0  0  0  0  0  0  0  0  0  0  0  0
    6.6089   -1.2551    2.8507 H   0  0  0  0  0  0  0  0  0  0  0  0
    5.8654    0.1181    2.0936 H   0  0  0  0  0  0  0  0  0  0  0  0
    4.6604   -0.8503    4.0335 H   0  0  0  0  0  0  0  0  0  0  0  0
    3.7076   -0.5905    2.6522 H   0  0  0  0  0  0  0  0  0  0  0  0
    4.7231   -3.0221    3.9797 H   0  0  0  0  0  0  0  0  0  0  0  0
    2.3146   -2.6126    2.6354 H   0  0  0  0  0  0  0  0  0  0  0  0
    5.0101   -4.3383    2.6605 H   0  0  0  0  0  0  0  0  0  0  0  0
    2.0091   -3.7314    1.0700 H   0  0  0  0  0  0  0  0  0  0  0  0
    2.3649   -4.8442   -0.2260 H   0  0  0  0  0  0  0  0  0  0  0  0
    4.7097   -6.0616   -0.2569 H   0  0  0  0  0  0  0  0  0  0  0  0
    6.1949   -5.5593    1.7673 H   0  0  0  0  0  0  0  0  0  0  0  0
    7.0763   -5.4498    0.4621 H   0  0  0  0  0  0  0  0  0  0  0  0
    6.9303   -2.6551   -1.0000 H   0  0  0  0  0  0  0  0  0  0  0  0
    7.4761   -3.9496   -0.6463 H   0  0  0  0  0  0  0  0  0  0  0  0
    5.6445   -4.6545   -1.9116 H   0  0  0  0  0  0  0  0  0  0  0  0
    3.6793   -5.2545    1.6341 H   0  0  0  0  0  0  0  0  0  0  0  0
  1  2  1  0
  1 24  1  0
  1 25  1  0
  1 26  1  0
  2  3  2  0
  2  4  1  0
  4  5  1  0
  5  9  1  0
  5  6  1  0
  5 27  1  6
  6 23  1  0
  6  7  1  0
  6 28  1  6
  7 18  1  0
  7  8  1  0
  7 29  1  6
  8  9  1  0
  8 30  1  0
  8 31  1  0
  9 10  1  0
  9 32  1  6
 10 21  1  0
 10 11  1  6
 10 12  1  0
 11 33  1  0
 12 13  1  0
 12 34  1  0
 12 35  1  0
 13 14  1  0
 13 36  1  0
 13 37  1  0
 14 15  1  0
 14 16  1  0
 14 38  1  1
 15 39  1  0
 16 21  1  0
 16 17  1  0
 16 40  1  1
 17 18  1  0
 17 19  1  0
 17 49  1  1
 18 41  1  0
 18 42  1  0
 19 23  1  0
 19 20  1  0
 19 43  1  6
 21 20  1  6
 20 44  1  0
 20 45  1  0
 21 22  1  0
 22 23  1  0
 22 46  1  0
 22 47  1  0
 23 48  1  6
M  CHG  1  17   1
M  END
>  <i_m_ct_stereo_status>  (198) 
1

>  <s_m_source_file>  (198) 
/var/tmp/pbs.5076255.sched01/tmph8v5ro6p/78zitxkb1g.sdf

>  <i_m_source_file_index>  (198) 
10

>  <i_lp_mmshare_version>  (198) 
48012

>  <i_f3d_flags>  (198) 
0

>  <s_epik_input>  (198) 
W0NIM11DKD1PKU9bQ0BASF0oW0NAQEhdMVtDQEBdMihDMzQ1KVtPSF0pW0NAQEhdNltDQEhdKFtDSDJdMSlbQ0gyXU4oW0NASF0oW0NIMl00KVtDQEBIXTZbQ0gyXTUpW0NAQEhdM1tDQEhdKFtPSF0pW0NIMl1bQ0gyXTI=

>  <s_epik_cmdline>  (198) 
J2VwaWtfcHl0aG9uJywgJy1waHQnLCAnMi4wJywgJy1waCcsICc3LjAnLCAnLXRuJywgJzgnLCAnLW1hJywgJzIwMCcsICctaW1hZScsICc8aW5maWxlLm1hZT4nLCAnLW9tYWUnLCAnPG91dGZpbGUubWFlPic=

>  <r_lp_tautomer_probability>  (198) 
1

>  <r_epik_Ionization_Penalty>  (198) 
0.000236284

>  <r_epik_Ionization_Penalty_Charging>  (198) 
0.00023625

>  <r_epik_Ionization_Penalty_Neutral>  (198) 
3.39663e-08

>  <r_epik_State_Penalty>  (198) 
-0

>  <r_epik_Charging_Adjusted_Penalty>  (198) 
0.00023625

>  <i_epik_Tot_Q>  (198) 
1

>  <i_epik_Tot_abs_Q>  (198) 
1

>  <s_epik_Chemistry_Notes>  (198) 
This compound has an ester and may undergo hydrolysis at high or low pH.

>  <s_lp_Force_Field>  (198) 
OPLS3e

>  <r_lp_Energy>  (198) 
232.668

>  <b_lp_Chiralities_Consistent>  (198) 
1

>  <s_lp_Variant>  (198) 
66:0-1

>  <s_i_glide_gridfile>  (198) 
pfpi4k_grid

>  <i_i_glide_lignum>  (198) 
10

>  <i_i_glide_rotatable_bonds>  (198) 
4

>  <r_i_docking_score>  (198) 
-5.34905

>  <r_i_glide_ligand_efficiency>  (198) 
-0.232567

>  <r_i_glide_ligand_efficiency_sa>  (198) 
-0.66139

>  <r_i_glide_ligand_efficiency_ln>  (198) 
-1.29345

>  <r_i_glide_gscore>  (198) 
-5.34905

>  <r_i_glide_lipo>  (198) 
-0.715675

>  <r_i_glide_hbond>  (198) 
-0.625957

>  <r_i_glide_metal>  (198) 
-0

>  <r_i_glide_rewards>  (198) 
-1.51762

>  <r_i_glide_evdw>  (198) 
-26.8857

>  <r_i_glide_ecoul>  (198) 
-8.84934

>  <r_i_glide_erotb>  (198) 
0.181888

>  <r_i_glide_esite>  (198) 
0

>  <r_i_glide_emodel>  (198) 
-44.4495

>  <r_i_glide_energy>  (198) 
-35.735

>  <r_i_glide_einternal>  (198) 
2.94435

>  <r_i_glide_intrahb_reward>  (198) 
-0

>  <i_i_glide_confnum>  (198) 
3

>  <i_i_glide_posenum>  (198) 
39

>  <r_i_glide_eff_state_penalty>  (198) 
0

>  <ligand_id>  (198) 
66

>  <original_smiles>  (198) 
CC(=O)OC1C2C3CC1C1(O)CCC(O)C4N(C3)C3CC41CC23

>  <smiles>  (198) 
[H]OC1([H])C([H])([H])C([H])([H])C2(O[H])C3([H])C([H])([H])C4([H])C([H])(C3([H])OC(=O)C([H])([H])[H])C3([H])C([H])([H])C25C([H])([H])C3([H])[N+]([H])(C4([H])[H])C15[H]

$$$$
66:0:1
     RDKit          3D

 49 54  0  0  1  0  0  0  0  0999 V2000
    3.6825   -2.4884   -4.1797 C   0  0  0  0  0  0  0  0  0  0  0  0
    3.7610   -1.0194   -3.7799 C   0  0  0  0  0  0  0  0  0  0  0  0
    3.5332   -0.1583   -4.6147 O   0  0  0  0  0  0  0  0  0  0  0  0
    4.0461   -0.7773   -2.4570 O   0  0  0  0  0  0  0  0  0  0  0  0
    4.8302   -1.6492   -1.6255 C   0  0  2  0  0  0  0  0  0  0  0  0
    4.2887   -3.1094   -1.4642 C   0  0  2  0  0  0  0  0  0  0  0  0
    3.0923   -2.8860   -0.5551 C   0  0  2  0  0  0  0  0  0  0  0  0
    3.3228   -1.5664    0.1696 C   0  0  0  0  0  0  0  0  0  0  0  0
    4.7750   -1.1733   -0.1312 C   0  0  1  0  0  0  0  0  0  0  0  0
    5.9260   -1.7176    0.8647 C   0  0  1  0  0  0  0  0  0  0  0  0
    7.1340   -1.0529    0.4908 O   0  0  0  0  0  0  0  0  0  0  0  0
    5.8109   -0.9510    2.2140 C   0  0  0  0  0  0  0  0  0  0  0  0
    4.5644   -1.2059    3.0287 C   0  0  0  0  0  0  0  0  0  0  0  0
    4.2816   -2.7027    3.0815 C   0  0  1  0  0  0  0  0  0  0  0  0
    2.9209   -2.9955    3.3475 O   0  0  0  0  0  0  0  0  0  0  0  0
    4.8732   -3.5963    1.9252 C   0  0  1  0  0  0  0  0  0  0  0  0
    4.0425   -4.5064    1.0593 N   0  0  1  0  0  0  0  0  0  0  0  0
    2.7902   -4.0344    0.3979 C   0  0  0  0  0  0  0  0  0  0  0  0
    5.0034   -5.0735    0.1086 C   0  0  2  0  0  0  0  0  0  0  0  0
    6.2791   -4.9107    0.8922 C   0  0  0  0  0  0  0  0  0  0  0  0
    6.2887   -3.2996    1.1911 C   0  0  2  0  0  0  0  0  0  0  0  0
    6.6058   -3.4539   -0.3883 C   0  0  0  0  0  0  0  0  0  0  0  0
    5.3736   -4.0932   -1.0061 C   0  0  2  0  0  0  0  0  0  0  0  0
    2.9059   -2.9523   -3.5348 H   0  0  0  0  0  0  0  0  0  0  0  0
    4.6557   -2.9654   -3.9570 H   0  0  0  0  0  0  0  0  0  0  0  0
    3.4158   -2.6927   -5.1798 H   0  0  0  0  0  0  0  0  0  0  0  0
    5.8292   -1.5245   -2.0570 H   0  0  0  0  0  0  0  0  0  0  0  0
    3.9344   -3.6646   -2.2777 H   0  0  0  0  0  0  0  0  0  0  0  0
    2.2310   -2.7700   -1.2016 H   0  0  0  0  0  0  0  0  0  0  0  0
    2.6722   -0.8104   -0.2702 H   0  0  0  0  0  0  0  0  0  0  0  0
    2.9564   -1.6208    1.1779 H   0  0  0  0  0  0  0  0  0  0  0  0
    4.8210   -0.0756   -0.1009 H   0  0  0  0  0  0  0  0  0  0  0  0
    7.1827   -0.2222    0.9297 H   0  0  0  0  0  0  0  0  0  0  0  0
    6.6297   -1.2377    2.8605 H   0  0  0  0  0  0  0  0  0  0  0  0
    5.9119    0.1291    2.1044 H   0  0  0  0  0  0  0  0  0  0  0  0
    4.7305   -0.8204    4.0341 H   0  0  0  0  0  0  0  0  0  0  0  0
    3.7572   -0.5827    2.6622 H   0  0  0  0  0  0  0  0  0  0  0  0
    4.7837   -2.9893    4.0054 H   0  0  0  0  0  0  0  0  0  0  0  0
    2.8540   -3.8906    3.6226 H   0  0  0  0  0  0  0  0  0  0  0  0
    5.0827   -4.3448    2.6850 H   0  0  0  0  0  0  0  0  0  0  0  0
    2.0254   -3.7699    1.1263 H   0  0  0  0  0  0  0  0  0  0  0  0
    2.3840   -4.8717   -0.1715 H   0  0  0  0  0  0  0  0  0  0  0  0
    4.7551   -6.0828   -0.2407 H   0  0  0  0  0  0  0  0  0  0  0  0
    6.2646   -5.5580    1.7705 H   0  0  0  0  0  0  0  0  0  0  0  0
    7.1332   -5.4404    0.4598 H   0  0  0  0  0  0  0  0  0  0  0  0
    6.9497   -2.6552   -1.0269 H   0  0  0  0  0  0  0  0  0  0  0  0
    7.5308   -3.9729   -0.6908 H   0  0  0  0  0  0  0  0  0  0  0  0
    5.6817   -4.6382   -1.8832 H   0  0  0  0  0  0  0  0  0  0  0  0
    3.7411   -5.2879    1.6589 H   0  0  0  0  0  0  0  0  0  0  0  0
  1  2  1  0
  1 24  1  0
  1 25  1  0
  1 26  1  0
  2  3  2  0
  2  4  1  0
  4  5  1  0
  5  9  1  0
  5  6  1  0
  5 27  1  6
  6 23  1  0
  6  7  1  0
  6 28  1  6
  7 18  1  0
  7  8  1  0
  7 29  1  6
  8  9  1  0
  8 30  1  0
  8 31  1  0
  9 10  1  0
  9 32  1  6
 10 21  1  0
 10 11  1  6
 10 12  1  0
 11 33  1  0
 12 13  1  0
 12 34  1  0
 12 35  1  0
 13 14  1  0
 13 36  1  0
 13 37  1  0
 14 15  1  0
 14 16  1  0
 14 38  1  1
 15 39  1  0
 16 21  1  0
 16 17  1  0
 16 40  1  1
 17 18  1  0
 17 19  1  0
 17 49  1  1
 18 41  1  0
 18 42  1  0
 19 23  1  0
 19 20  1  0
 19 43  1  6
 21 20  1  6
 20 44  1  0
 20 45  1  0
 21 22  1  0
 22 23  1  0
 22 46  1  0
 22 47  1  0
 23 48  1  6
M  CHG  1  17   1
M  END
>  <i_m_ct_stereo_status>  (199) 
1

>  <s_m_source_file>  (199) 
/var/tmp/pbs.5076255.sched01/tmph8v5ro6p/78zitxkb1g.sdf

>  <i_m_source_file_index>  (199) 
10

>  <i_lp_mmshare_version>  (199) 
48012

>  <i_f3d_flags>  (199) 
0

>  <s_epik_input>  (199) 
W0NIM11DKD1PKU9bQ0BASF0oW0NAQEhdMVtDQEBdMihDMzQ1KVtPSF0pW0NAQEhdNltDQEhdKFtDSDJdMSlbQ0gyXU4oW0NASF0oW0NIMl00KVtDQEBIXTZbQ0gyXTUpW0NAQEhdM1tDQEhdKFtPSF0pW0NIMl1bQ0gyXTI=

>  <s_epik_cmdline>  (199) 
J2VwaWtfcHl0aG9uJywgJy1waHQnLCAnMi4wJywgJy1waCcsICc3LjAnLCAnLXRuJywgJzgnLCAnLW1hJywgJzIwMCcsICctaW1hZScsICc8aW5maWxlLm1hZT4nLCAnLW9tYWUnLCAnPG91dGZpbGUubWFlPic=

>  <r_lp_tautomer_probability>  (199) 
1

>  <r_epik_Ionization_Penalty>  (199) 
0.000236284

>  <r_epik_Ionization_Penalty_Charging>  (199) 
0.00023625

>  <r_epik_Ionization_Penalty_Neutral>  (199) 
3.39663e-08

>  <r_epik_State_Penalty>  (199) 
-0

>  <r_epik_Charging_Adjusted_Penalty>  (199) 
0.00023625

>  <i_epik_Tot_Q>  (199) 
1

>  <i_epik_Tot_abs_Q>  (199) 
1

>  <s_epik_Chemistry_Notes>  (199) 
This compound has an ester and may undergo hydrolysis at high or low pH.

>  <s_lp_Force_Field>  (199) 
OPLS3e

>  <r_lp_Energy>  (199) 
232.668

>  <b_lp_Chiralities_Consistent>  (199) 
1

>  <s_lp_Variant>  (199) 
66:0-1

>  <s_i_glide_gridfile>  (199) 
pfpi4k_grid

>  <i_i_glide_lignum>  (199) 
10

>  <i_i_glide_rotatable_bonds>  (199) 
4

>  <r_i_docking_score>  (199) 
-4.33339

>  <r_i_glide_ligand_efficiency>  (199) 
-0.188408

>  <r_i_glide_ligand_efficiency_sa>  (199) 
-0.535807

>  <r_i_glide_ligand_efficiency_ln>  (199) 
-1.04785

>  <r_i_glide_gscore>  (199) 
-4.33339

>  <r_i_glide_lipo>  (199) 
-0.669714

>  <r_i_glide_hbond>  (199) 
-0.341761

>  <r_i_glide_metal>  (199) 
-0

>  <r_i_glide_rewards>  (199) 
-1.49512

>  <r_i_glide_evdw>  (199) 
-25.6257

>  <r_i_glide_ecoul>  (199) 
-4.84933

>  <r_i_glide_erotb>  (199) 
0.181888

>  <r_i_glide_esite>  (199) 
0

>  <r_i_glide_emodel>  (199) 
-31.2735

>  <r_i_glide_energy>  (199) 
-30.475

>  <r_i_glide_einternal>  (199) 
10.112

>  <r_i_glide_intrahb_reward>  (199) 
-0

>  <i_i_glide_confnum>  (199) 
3

>  <i_i_glide_posenum>  (199) 
7

>  <r_i_glide_eff_state_penalty>  (199) 
0

>  <ligand_id>  (199) 
66

>  <original_smiles>  (199) 
CC(=O)OC1C2C3CC1C1(O)CCC(O)C4N(C3)C3CC41CC23

>  <smiles>  (199) 
[H]OC1([H])C([H])([H])C([H])([H])C2(O[H])C3([H])C([H])([H])C4([H])C([H])(C3([H])OC(=O)C([H])([H])[H])C3([H])C([H])([H])C25C([H])([H])C3([H])[N+]([H])(C4([H])[H])C15[H]

$$$$
66:0:2
     RDKit          3D

 49 54  0  0  1  0  0  0  0  0999 V2000
    3.3870   -7.0400    1.5657 C   0  0  0  0  0  0  0  0  0  0  0  0
    2.2243   -6.1477    2.0512 C   0  0  0  0  0  0  0  0  0  0  0  0
    1.1236   -6.6226    2.2846 O   0  0  0  0  0  0  0  0  0  0  0  0
    2.4808   -4.8185    2.1871 O   0  0  0  0  0  0  0  0  0  0  0  0
    3.7103   -4.2205    1.7809 C   0  0  2  0  0  0  0  0  0  0  0  0
    3.8191   -2.7472    2.2597 C   0  0  2  0  0  0  0  0  0  0  0  0
    2.8626   -2.0295    1.2835 C   0  0  2  0  0  0  0  0  0  0  0  0
    2.7074   -2.9704    0.0994 C   0  0  0  0  0  0  0  0  0  0  0  0
    3.7586   -4.0590    0.2317 C   0  0  1  0  0  0  0  0  0  0  0  0
    5.1791   -3.8773   -0.4652 C   0  0  1  0  0  0  0  0  0  0  0  0
    5.8129   -5.1297   -0.3159 O   0  0  0  0  0  0  0  0  0  0  0  0
    5.0349   -4.0249   -2.0005 C   0  0  0  0  0  0  0  0  0  0  0  0
    4.1606   -3.0009   -2.6916 C   0  0  0  0  0  0  0  0  0  0  0  0
    4.5346   -1.6086   -2.1903 C   0  0  1  0  0  0  0  0  0  0  0  0
    3.5028   -0.6814   -2.4154 O   0  0  0  0  0  0  0  0  0  0  0  0
    5.2004   -1.5191   -0.7612 C   0  0  1  0  0  0  0  0  0  0  0  0
    4.6969   -0.6491    0.3489 N   0  0  1  0  0  0  0  0  0  0  0  0
    3.3080   -0.6619    0.8028 C   0  0  0  0  0  0  0  0  0  0  0  0
    5.6083   -0.9334    1.4580 C   0  0  2  0  0  0  0  0  0  0  0  0
    6.8171   -1.4063    0.6874 C   0  0  0  0  0  0  0  0  0  0  0  0
    6.2012   -2.6251   -0.1733 C   0  0  2  0  0  0  0  0  0  0  0  0
    6.2156   -3.1489    1.3570 C   0  0  0  0  0  0  0  0  0  0  0  0
    5.3028   -2.2432    2.1951 C   0  0  2  0  0  0  0  0  0  0  0  0
    4.2601   -6.9326    2.2176 H   0  0  0  0  0  0  0  0  0  0  0  0
    3.6875   -6.7911    0.5515 H   0  0  0  0  0  0  0  0  0  0  0  0
    3.1105   -8.0958    1.5652 H   0  0  0  0  0  0  0  0  0  0  0  0
    4.4754   -4.8320    2.2421 H   0  0  0  0  0  0  0  0  0  0  0  0
    3.4586   -2.6461    3.2866 H   0  0  0  0  0  0  0  0  0  0  0  0
    1.8904   -1.9227    1.7579 H   0  0  0  0  0  0  0  0  0  0  0  0
    1.7863   -3.5111    0.2005 H   0  0  0  0  0  0  0  0  0  0  0  0
    2.5780   -2.4498   -0.8317 H   0  0  0  0  0  0  0  0  0  0  0  0
    3.2982   -4.9038   -0.2793 H   0  0  0  0  0  0  0  0  0  0  0  0
    5.3103   -5.7892   -0.7926 H   0  0  0  0  0  0  0  0  0  0  0  0
    6.0345   -3.9652   -2.4495 H   0  0  0  0  0  0  0  0  0  0  0  0
    4.6545   -5.0069   -2.2725 H   0  0  0  0  0  0  0  0  0  0  0  0
    4.3206   -3.0643   -3.7691 H   0  0  0  0  0  0  0  0  0  0  0  0
    3.1083   -3.2660   -2.5804 H   0  0  0  0  0  0  0  0  0  0  0  0
    5.2968   -1.3270   -2.9105 H   0  0  0  0  0  0  0  0  0  0  0  0
    2.7399   -0.8987   -1.8934 H   0  0  0  0  0  0  0  0  0  0  0  0
    5.8347   -0.7522   -1.2002 H   0  0  0  0  0  0  0  0  0  0  0  0
    2.6263   -0.3078    0.0300 H   0  0  0  0  0  0  0  0  0  0  0  0
    3.2063    0.0543    1.6266 H   0  0  0  0  0  0  0  0  0  0  0  0
    5.7899   -0.0883    2.1259 H   0  0  0  0  0  0  0  0  0  0  0  0
    7.2451   -0.5937    0.0974 H   0  0  0  0  0  0  0  0  0  0  0  0
    7.7320   -1.4962    1.2787 H   0  0  0  0  0  0  0  0  0  0  0  0
    6.1325   -4.1795    1.6558 H   0  0  0  0  0  0  0  0  0  0  0  0
    7.2213   -3.2705    1.7711 H   0  0  0  0  0  0  0  0  0  0  0  0
    5.7026   -2.2072    3.2073 H   0  0  0  0  0  0  0  0  0  0  0  0
    4.8820    0.3022    0.0415 H   0  0  0  0  0  0  0  0  0  0  0  0
  1  2  1  0
  1 24  1  0
  1 25  1  0
  1 26  1  0
  2  3  2  0
  2  4  1  0
  4  5  1  0
  5  9  1  0
  5  6  1  0
  5 27  1  1
  6 23  1  0
  6  7  1  0
  6 28  1  1
  7 18  1  0
  7  8  1  0
  7 29  1  1
  8  9  1  0
  8 30  1  0
  8 31  1  0
  9 10  1  0
  9 32  1  6
 10 21  1  0
 10 11  1  1
 10 12  1  0
 11 33  1  0
 12 13  1  0
 12 34  1  0
 12 35  1  0
 13 14  1  0
 13 36  1  0
 13 37  1  0
 14 15  1  0
 14 16  1  0
 14 38  1  6
 15 39  1  0
 16 21  1  0
 16 17  1  0
 16 40  1  6
 17 18  1  0
 17 19  1  0
 17 49  1  6
 18 41  1  0
 18 42  1  0
 19 23  1  0
 19 20  1  0
 19 43  1  1
 21 20  1  1
 20 44  1  0
 20 45  1  0
 21 22  1  0
 22 23  1  0
 22 46  1  0
 22 47  1  0
 23 48  1  1
M  CHG  1  17   1
M  END
>  <i_m_ct_stereo_status>  (200) 
1

>  <s_m_source_file>  (200) 
/var/tmp/pbs.5076255.sched01/tmph8v5ro6p/78zitxkb1g.sdf

>  <i_m_source_file_index>  (200) 
10

>  <i_lp_mmshare_version>  (200) 
48012

>  <i_f3d_flags>  (200) 
0

>  <s_epik_input>  (200) 
W0NIM11DKD1PKU9bQ0BASF0oW0NAQEhdMVtDQEBdMihDMzQ1KVtPSF0pW0NAQEhdNltDQEhdKFtDSDJdMSlbQ0gyXU4oW0NASF0oW0NIMl00KVtDQEBIXTZbQ0gyXTUpW0NAQEhdM1tDQEhdKFtPSF0pW0NIMl1bQ0gyXTI=

>  <s_epik_cmdline>  (200) 
J2VwaWtfcHl0aG9uJywgJy1waHQnLCAnMi4wJywgJy1waCcsICc3LjAnLCAnLXRuJywgJzgnLCAnLW1hJywgJzIwMCcsICctaW1hZScsICc8aW5maWxlLm1hZT4nLCAnLW9tYWUnLCAnPG91dGZpbGUubWFlPic=

>  <r_lp_tautomer_probability>  (200) 
1

>  <r_epik_Ionization_Penalty>  (200) 
0.000236284

>  <r_epik_Ionization_Penalty_Charging>  (200) 
0.00023625

>  <r_epik_Ionization_Penalty_Neutral>  (200) 
3.39663e-08

>  <r_epik_State_Penalty>  (200) 
-0

>  <r_epik_Charging_Adjusted_Penalty>  (200) 
0.00023625

>  <i_epik_Tot_Q>  (200) 
1

>  <i_epik_Tot_abs_Q>  (200) 
1

>  <s_epik_Chemistry_Notes>  (200) 
This compound has an ester and may undergo hydrolysis at high or low pH.

>  <s_lp_Force_Field>  (200) 
OPLS3e

>  <r_lp_Energy>  (200) 
232.668

>  <b_lp_Chiralities_Consistent>  (200) 
1

>  <s_lp_Variant>  (200) 
66:0-1

>  <s_i_glide_gridfile>  (200) 
pfpi4k_grid

>  <i_i_glide_lignum>  (200) 
10

>  <i_i_glide_rotatable_bonds>  (200) 
4

>  <r_i_docking_score>  (200) 
-3.41799

>  <r_i_glide_ligand_efficiency>  (200) 
-0.148608

>  <r_i_glide_ligand_efficiency_sa>  (200) 
-0.422622

>  <r_i_glide_ligand_efficiency_ln>  (200) 
-0.8265

>  <r_i_glide_gscore>  (200) 
-3.41799

>  <r_i_glide_lipo>  (200) 
-0.404428

>  <r_i_glide_hbond>  (200) 
-0.0648524

>  <r_i_glide_metal>  (200) 
-0

>  <r_i_glide_rewards>  (200) 
-1.22452

>  <r_i_glide_evdw>  (200) 
-19.8051

>  <r_i_glide_ecoul>  (200) 
-6.00335

>  <r_i_glide_erotb>  (200) 
0.181888

>  <r_i_glide_esite>  (200) 
-0.015309

>  <r_i_glide_emodel>  (200) 
-29.0207

>  <r_i_glide_energy>  (200) 
-25.8085

>  <r_i_glide_einternal>  (200) 
5.767

>  <r_i_glide_intrahb_reward>  (200) 
-0

>  <i_i_glide_confnum>  (200) 
1

>  <i_i_glide_posenum>  (200) 
12

>  <r_i_glide_eff_state_penalty>  (200) 
0

>  <ligand_id>  (200) 
66

>  <original_smiles>  (200) 
CC(=O)OC1C2C3CC1C1(O)CCC(O)C4N(C3)C3CC41CC23

>  <smiles>  (200) 
[H]OC1([H])C([H])([H])C([H])([H])C2(O[H])C3([H])C([H])([H])C4([H])C([H])(C3([H])OC(=O)C([H])([H])[H])C3([H])C([H])([H])C25C([H])([H])C3([H])[N+]([H])(C4([H])[H])C15[H]

$$$$
67:1:0
     RDKit          3D

 69 75  0  0  1  0  0  0  0  0999 V2000
    4.6657   -9.0022    7.4957 C   0  0  0  0  0  0  0  0  0  0  0  0
    4.5018   -8.4007    6.1752 N   0  0  0  0  0  0  0  0  0  0  0  0
    3.9835   -7.0382    6.0949 C   0  0  0  0  0  0  0  0  0  0  0  0
    3.3735   -6.7865    4.6946 C   0  0  0  0  0  0  0  0  0  0  0  0
    4.3152   -7.1489    3.4941 C   0  0  2  0  0  0  0  0  0  0  0  0
    4.1154   -7.7050    2.0044 C   0  0  0  0  0  0  0  0  0  0  0  0
    4.2885   -6.5427    1.1774 C   0  0  2  0  0  0  0  0  0  0  0  0
    5.6439   -6.1125    1.9277 C   0  0  2  0  0  0  0  0  0  0  0  0
    6.7951   -7.1378    2.4144 C   0  0  0  0  0  0  0  0  0  0  0  0
    6.5733   -7.9630    3.7821 C   0  0  1  0  0  0  0  0  0  0  0  0
    7.0267   -7.1743    4.8671 O   0  0  0  0  0  0  0  0  0  0  0  0
    5.0785   -8.3928    3.9324 C   0  0  1  0  0  0  0  0  0  0  0  0
    4.2485   -9.2495    5.0107 C   0  0  2  0  0  0  0  0  0  0  0  0
    2.6337   -9.7389    4.8456 C   0  0  1  0  0  0  0  0  0  0  0  0
    1.6474   -9.3586    6.0143 C   0  0  0  0  0  0  0  0  0  0  0  0
    0.2935   -8.6947    5.6471 C   0  0  0  0  0  0  0  0  0  0  0  0
    0.3314   -7.9494    4.3872 N   0  0  0  0  0  0  0  0  0  0  0  0
   -0.9381   -7.2592    4.1736 C   0  0  0  0  0  0  0  0  0  0  0  0
    0.8643   -8.6415    3.1876 C   0  0  1  0  0  0  0  0  0  0  0  0
    1.2859   -7.6154    2.0559 C   0  0  0  0  0  0  0  0  0  0  0  0
    1.7553   -6.3300    2.2012 C   0  0  0  0  0  0  0  0  0  0  0  0
    3.0453   -5.6368    1.5346 C   0  0  2  0  0  0  0  0  0  0  0  0
    2.7998   -4.3521    0.7379 C   0  0  0  0  0  0  0  0  0  0  0  0
    3.9238   -3.6810    1.5335 C   0  0  0  0  0  0  0  0  0  0  0  0
    3.7507   -4.7870    2.5991 C   0  0  2  0  0  0  0  0  0  0  0  0
    4.8973   -5.7114    3.1438 C   0  0  1  0  0  0  0  0  0  0  0  0
    1.7931   -9.8740    3.5355 N   0  0  0  0  0  0  0  0  0  0  0  0
    0.8275  -11.0256    3.7125 C   0  0  0  0  0  0  0  0  0  0  0  0
    2.6087  -10.4531    2.4157 C   0  0  0  0  0  0  0  0  0  0  0  0
    5.1071   -8.2743    8.1780 H   0  0  0  0  0  0  0  0  0  0  0  0
    5.3470   -9.8536    7.4432 H   0  0  0  0  0  0  0  0  0  0  0  0
    3.7270   -9.3455    7.9307 H   0  0  0  0  0  0  0  0  0  0  0  0
    3.2435   -6.8619    6.8768 H   0  0  0  0  0  0  0  0  0  0  0  0
    4.7984   -6.3409    6.2869 H   0  0  0  0  0  0  0  0  0  0  0  0
    2.5023   -7.3545    4.6269 H   0  0  0  0  0  0  0  0  0  0  0  0
    2.9912   -5.7774    4.7445 H   0  0  0  0  0  0  0  0  0  0  0  0
    4.8878   -8.3381    1.5650 H   0  0  0  0  0  0  0  0  0  0  0  0
    3.3578   -8.3547    1.7106 H   0  0  0  0  0  0  0  0  0  0  0  0
    4.3890   -6.7675    0.1144 H   0  0  0  0  0  0  0  0  0  0  0  0
    6.1246   -5.2810    1.4217 H   0  0  0  0  0  0  0  0  0  0  0  0
    7.0078   -7.8375    1.6047 H   0  0  0  0  0  0  0  0  0  0  0  0
    7.7218   -6.5735    2.5257 H   0  0  0  0  0  0  0  0  0  0  0  0
    7.2146   -8.8465    3.7783 H   0  0  0  0  0  0  0  0  0  0  0  0
    6.4592   -6.4260    4.9439 H   0  0  0  0  0  0  0  0  0  0  0  0
    5.1643   -9.2300    3.2536 H   0  0  0  0  0  0  0  0  0  0  0  0
    4.8249  -10.1627    5.1703 H   0  0  0  0  0  0  0  0  0  0  0  0
    2.8220  -10.7891    5.0734 H   0  0  0  0  0  0  0  0  0  0  0  0
    1.4362  -10.2562    6.5989 H   0  0  0  0  0  0  0  0  0  0  0  0
    2.1009   -8.6876    6.7285 H   0  0  0  0  0  0  0  0  0  0  0  0
   -0.5279   -9.4133    5.6514 H   0  0  0  0  0  0  0  0  0  0  0  0
    0.0444   -7.9929    6.4445 H   0  0  0  0  0  0  0  0  0  0  0  0
   -0.8848   -6.6024    3.3069 H   0  0  0  0  0  0  0  0  0  0  0  0
   -1.1580   -6.6390    5.0442 H   0  0  0  0  0  0  0  0  0  0  0  0
   -1.7612   -7.9641    4.0353 H   0  0  0  0  0  0  0  0  0  0  0  0
   -0.0113   -9.0891    2.7205 H   0  0  0  0  0  0  0  0  0  0  0  0
    1.4804   -8.1064    1.1122 H   0  0  0  0  0  0  0  0  0  0  0  0
    1.5156   -5.8746    3.1491 H   0  0  0  0  0  0  0  0  0  0  0  0
    3.0210   -4.4523   -0.3270 H   0  0  0  0  0  0  0  0  0  0  0  0
    1.8302   -3.8874    0.9151 H   0  0  0  0  0  0  0  0  0  0  0  0
    4.8657   -3.6699    0.9890 H   0  0  0  0  0  0  0  0  0  0  0  0
    3.6643   -2.6808    1.8795 H   0  0  0  0  0  0  0  0  0  0  0  0
    3.0870   -4.3515    3.3465 H   0  0  0  0  0  0  0  0  0  0  0  0
    5.5053   -5.2416    3.9167 H   0  0  0  0  0  0  0  0  0  0  0  0
    0.3360  -11.2642    2.7700 H   0  0  0  0  0  0  0  0  0  0  0  0
    0.0199  -10.8714    4.4091 H   0  0  0  0  0  0  0  0  0  0  0  0
    1.3071  -11.9486    4.0396 H   0  0  0  0  0  0  0  0  0  0  0  0
    2.1723  -10.2395    1.4406 H   0  0  0  0  0  0  0  0  0  0  0  0
    2.6891  -11.5393    2.4732 H   0  0  0  0  0  0  0  0  0  0  0  0
    3.6557  -10.2066    2.4130 H   0  0  0  0  0  0  0  0  0  0  0  0
  1  2  1  0
  1 30  1  0
  1 31  1  0
  1 32  1  0
  2 13  1  0
  2  3  1  0
  3  4  1  0
  3 33  1  0
  3 34  1  0
  5  4  1  1
  4 35  1  0
  4 36  1  0
  5 12  1  0
  5 26  1  0
  5  6  1  0
  6  7  1  0
  6 37  1  0
  6 38  1  0
  7 22  1  0
  7  8  1  0
  7 39  1  6
  8 26  1  0
  8  9  1  0
  8 40  1  6
  9 10  1  0
  9 41  1  0
  9 42  1  0
 10 11  1  0
 10 12  1  0
 10 43  1  6
 11 44  1  0
 12 13  1  0
 12 45  1  6
 13 14  1  0
 13 46  1  1
 14 27  1  0
 14 15  1  0
 14 47  1  1
 15 16  1  0
 15 48  1  0
 15 49  1  0
 16 17  1  0
 16 50  1  0
 16 51  1  0
 17 18  1  0
 17 19  1  0
 18 52  1  0
 18 53  1  0
 18 54  1  0
 19 20  1  0
 19 27  1  0
 19 55  1  6
 20 21  2  3
 20 56  1  0
 21 22  1  0
 21 57  1  0
 22 25  1  0
 22 23  1  6
 23 24  1  0
 23 58  1  0
 23 59  1  0
 24 25  1  0
 24 60  1  0
 24 61  1  0
 25 26  1  0
 25 62  1  1
 26 63  1  1
 27 28  1  0
 27 29  1  0
 28 64  1  0
 28 65  1  0
 28 66  1  0
 29 67  1  0
 29 68  1  0
 29 69  1  0
M  CHG  1  27   1
M  END
>  <i_m_ct_stereo_status>  (201) 
1

>  <s_m_source_file>  (201) 
/var/tmp/pbs.5076255.sched01/tmph8v5ro6p/78zitxkb1g.sdf

>  <i_m_source_file_index>  (201) 
12

>  <i_lp_mmshare_version>  (201) 
48012

>  <i_f3d_flags>  (201) 
2

>  <s_epik_input>  (201) 
W0NIMl0xW0NIMl1OKFtDSDNdKVtDQEhdKFtDSF0yW0NAXTEzNClbQ0BIXTVbQ0gyXVtDSDJdTihbQ0gzXSlbQ0BASF0oW04rXTUoW0NIM10pW0NIM10pL1tDSF09W0NIXVxbQ0BdNjdbQ0BIXShbQ0gyXTMpW0NASF0oW0NIMl1bQ0BIXTJbT0hdKVtDQEhdNFtDQEhdN1tDSDJdW0NIMl02

>  <s_epik_cmdline>  (201) 
J2VwaWtfcHl0aG9uJywgJy1waHQnLCAnMi4wJywgJy1waCcsICc3LjAnLCAnLXRuJywgJzgnLCAnLW1hJywgJzIwMCcsICctaW1hZScsICc8aW5maWxlLm1hZT4nLCAnLW9tYWUnLCAnPG91dGZpbGUubWFlPic=

>  <r_epik_Ionization_Penalty>  (201) 
0.00129406

>  <r_epik_Ionization_Penalty_Charging>  (201) 
0

>  <r_epik_Ionization_Penalty_Neutral>  (201) 
0.00129406

>  <r_epik_State_Penalty>  (201) 
0.000858218

>  <r_epik_Charging_Adjusted_Penalty>  (201) 
0.000858218

>  <i_epik_Tot_Q>  (201) 
1

>  <i_epik_Tot_abs_Q>  (201) 
1

>  <s_epik_Chemistry_Notes>  (201) 
This compound contains an acetal/aminal-like group ( X-CH(R)-Y where X, Y are N, S, or O) that may be acid/base labile, releasing an aldehyde.

>  <s_lp_Force_Field>  (201) 
OPLS3e

>  <r_lp_Energy>  (201) 
290.078

>  <b_lp_Chiralities_Consistent>  (201) 
0

>  <s_lp_Variant>  (201) 
67:0-2

>  <s_i_glide_gridfile>  (201) 
pfpi4k_grid

>  <i_i_glide_lignum>  (201) 
12

>  <i_i_glide_rotatable_bonds>  (201) 
1

>  <r_i_docking_score>  (201) 
-2.43953

>  <r_i_glide_ligand_efficiency>  (201) 
-0.0841218

>  <r_i_glide_ligand_efficiency_sa>  (201) 
-0.258449

>  <r_i_glide_ligand_efficiency_ln>  (201) 
-0.558591

>  <r_i_glide_gscore>  (201) 
-2.43953

>  <r_i_glide_lipo>  (201) 
-0.270582

>  <r_i_glide_hbond>  (201) 
0

>  <r_i_glide_metal>  (201) 
-0

>  <r_i_glide_rewards>  (201) 
-0.691332

>  <r_i_glide_evdw>  (201) 
-18.4853

>  <r_i_glide_ecoul>  (201) 
-3.56407

>  <r_i_glide_erotb>  (201) 
0

>  <r_i_glide_esite>  (201) 
-0.0187435

>  <r_i_glide_emodel>  (201) 
-26.5542

>  <r_i_glide_energy>  (201) 
-22.0494

>  <r_i_glide_einternal>  (201) 
0.000530262

>  <r_i_glide_intrahb_reward>  (201) 
-0

>  <i_i_glide_confnum>  (201) 
1

>  <i_i_glide_posenum>  (201) 
6

>  <r_i_glide_eff_state_penalty>  (201) 
0

>  <ligand_id>  (201) 
67

>  <original_smiles>  (201) 
CN1CCC23CC4C5CC(O)C2C1C1CCN(C)C(C=CC42CCC2C53)[N+]1(C)C

>  <smiles>  (201) 
[H]OC1([H])C([H])([H])C2([H])C3([H])C([H])([H])C45C([H])([H])C([H])([H])N(C([H])([H])[H])C([H])(C14[H])C1([H])C([H])([H])C([H])([H])N(C([H])([H])[H])C([H])(C([H])=C([H])C34C([H])([H])C([H])([H])C4([H])C25[H])[N+]1(C([H])([H])[H])C([H])([H])[H]

$$$$
67:1:1
     RDKit          3D

 69 75  0  0  1  0  0  0  0  0999 V2000
    1.3704   -2.4373    5.7570 C   0  0  0  0  0  0  0  0  0  0  0  0
    2.2097   -2.4679    4.5600 N   0  0  0  0  0  0  0  0  0  0  0  0
    1.6010   -2.1112    3.2805 C   0  0  0  0  0  0  0  0  0  0  0  0
    2.4412   -2.7025    2.1240 C   0  0  0  0  0  0  0  0  0  0  0  0
    3.9652   -2.3549    2.1775 C   0  0  2  0  0  0  0  0  0  0  0  0
    5.3228   -3.0925    1.7548 C   0  0  0  0  0  0  0  0  0  0  0  0
    5.7100   -2.4374    0.5379 C   0  0  2  0  0  0  0  0  0  0  0  0
    5.4930   -0.9717    1.1621 C   0  0  2  0  0  0  0  0  0  0  0  0
    5.8960   -0.5433    2.6639 C   0  0  0  0  0  0  0  0  0  0  0  0
    4.9451   -0.9643    3.8902 C   0  0  1  0  0  0  0  0  0  0  0  0
    3.9630    0.0417    4.0431 O   0  0  0  0  0  0  0  0  0  0  0  0
    4.3352   -2.3774    3.6529 C   0  0  1  0  0  0  0  0  0  0  0  0
    3.3737   -3.3522    4.4925 C   0  0  2  0  0  0  0  0  0  0  0  0
    3.0006   -4.9490    4.0954 C   0  0  1  0  0  0  0  0  0  0  0  0
    1.4752   -5.3259    3.9982 C   0  0  0  0  0  0  0  0  0  0  0  0
    0.9879   -6.1043    2.7546 C   0  0  0  0  0  0  0  0  0  0  0  0
    1.8059   -5.8559    1.5704 N   0  0  0  0  0  0  0  0  0  0  0  0
    1.2158   -6.5210    0.4136 C   0  0  0  0  0  0  0  0  0  0  0  0
    3.2726   -6.0223    1.6937 C   0  0  1  0  0  0  0  0  0  0  0  0
    4.0629   -5.3007    0.5246 C   0  0  0  0  0  0  0  0  0  0  0  0
    3.7113   -4.1702   -0.1687 C   0  0  0  0  0  0  0  0  0  0  0  0
    4.5913   -2.8593   -0.4876 C   0  0  2  0  0  0  0  0  0  0  0  0
    4.7107   -2.4751   -1.9658 C   0  0  0  0  0  0  0  0  0  0  0  0
    4.2890   -1.0529   -1.5884 C   0  0  0  0  0  0  0  0  0  0  0  0
    3.6977   -1.6338   -0.2856 C   0  0  2  0  0  0  0  0  0  0  0  0
    4.0220   -1.1323    1.1651 C   0  0  1  0  0  0  0  0  0  0  0  0
    3.7943   -5.9346    3.1797 N   0  0  0  0  0  0  0  0  0  0  0  0
    3.6207   -7.3278    3.7279 C   0  0  0  0  0  0  0  0  0  0  0  0
    5.2739   -5.8098    3.3783 C   0  0  0  0  0  0  0  0  0  0  0  0
    0.7409   -1.5479    5.7415 H   0  0  0  0  0  0  0  0  0  0  0  0
    1.9908   -2.3811    6.6535 H   0  0  0  0  0  0  0  0  0  0  0  0
    0.7227   -3.3087    5.8447 H   0  0  0  0  0  0  0  0  0  0  0  0
    0.5703   -2.4622    3.2358 H   0  0  0  0  0  0  0  0  0  0  0  0
    1.5519   -1.0263    3.1967 H   0  0  0  0  0  0  0  0  0  0  0  0
    2.3228   -3.7383    2.1413 H   0  0  0  0  0  0  0  0  0  0  0  0
    1.8997   -2.4080    1.2404 H   0  0  0  0  0  0  0  0  0  0  0  0
    6.2253   -2.9012    2.3299 H   0  0  0  0  0  0  0  0  0  0  0  0
    5.4742   -4.1219    1.7744 H   0  0  0  0  0  0  0  0  0  0  0  0
    6.7239   -2.6712    0.2081 H   0  0  0  0  0  0  0  0  0  0  0  0
    5.8437   -0.1998    0.4847 H   0  0  0  0  0  0  0  0  0  0  0  0
    6.9113   -0.8794    2.8424 H   0  0  0  0  0  0  0  0  0  0  0  0
    5.9822    0.5381    2.7204 H   0  0  0  0  0  0  0  0  0  0  0  0
    5.5180   -0.9530    4.8168 H   0  0  0  0  0  0  0  0  0  0  0  0
    3.4377    0.0678    3.2634 H   0  0  0  0  0  0  0  0  0  0  0  0
    5.2235   -2.9037    3.9712 H   0  0  0  0  0  0  0  0  0  0  0  0
    3.7866   -3.3760    5.5056 H   0  0  0  0  0  0  0  0  0  0  0  0
    3.2407   -5.3486    5.0747 H   0  0  0  0  0  0  0  0  0  0  0  0
    1.1915   -5.8973    4.8865 H   0  0  0  0  0  0  0  0  0  0  0  0
    0.8353   -4.4529    4.0449 H   0  0  0  0  0  0  0  0  0  0  0  0
    0.8951   -7.1725    2.9433 H   0  0  0  0  0  0  0  0  0  0  0  0
   -0.0284   -5.7896    2.5320 H   0  0  0  0  0  0  0  0  0  0  0  0
    1.7430   -6.2428   -0.4996 H   0  0  0  0  0  0  0  0  0  0  0  0
    0.1732   -6.2247    0.2885 H   0  0  0  0  0  0  0  0  0  0  0  0
    1.2280   -7.6077    0.5221 H   0  0  0  0  0  0  0  0  0  0  0  0
    3.4478   -7.0534    1.4174 H   0  0  0  0  0  0  0  0  0  0  0  0
    5.1032   -5.5905    0.4852 H   0  0  0  0  0  0  0  0  0  0  0  0
    2.6574   -3.9379   -0.1385 H   0  0  0  0  0  0  0  0  0  0  0  0
    5.7318   -2.5353   -2.3440 H   0  0  0  0  0  0  0  0  0  0  0  0
    3.9902   -2.9681   -2.6270 H   0  0  0  0  0  0  0  0  0  0  0  0
    5.1320   -0.3757   -1.4800 H   0  0  0  0  0  0  0  0  0  0  0  0
    3.5452   -0.6341   -2.2667 H   0  0  0  0  0  0  0  0  0  0  0  0
    2.6516   -1.8181   -0.5170 H   0  0  0  0  0  0  0  0  0  0  0  0
    3.4648   -0.2411    1.4563 H   0  0  0  0  0  0  0  0  0  0  0  0
    4.2847   -8.0241    3.2260 H   0  0  0  0  0  0  0  0  0  0  0  0
    2.6512   -7.7779    3.6298 H   0  0  0  0  0  0  0  0  0  0  0  0
    3.8598   -7.4113    4.7846 H   0  0  0  0  0  0  0  0  0  0  0  0
    5.8421   -6.2144    2.5448 H   0  0  0  0  0  0  0  0  0  0  0  0
    5.6342   -6.3514    4.2482 H   0  0  0  0  0  0  0  0  0  0  0  0
    5.6340   -4.8349    3.6341 H   0  0  0  0  0  0  0  0  0  0  0  0
  1  2  1  0
  1 30  1  0
  1 31  1  0
  1 32  1  0
  2 13  1  0
  2  3  1  0
  3  4  1  0
  3 33  1  0
  3 34  1  0
  5  4  1  1
  4 35  1  0
  4 36  1  0
  5 12  1  0
  5 26  1  0
  5  6  1  0
  6  7  1  0
  6 37  1  0
  6 38  1  0
  7 22  1  0
  7  8  1  0
  7 39  1  6
  8 26  1  0
  8  9  1  0
  8 40  1  6
  9 10  1  0
  9 41  1  0
  9 42  1  0
 10 11  1  0
 10 12  1  0
 10 43  1  1
 11 44  1  0
 12 13  1  0
 12 45  1  6
 13 14  1  0
 13 46  1  1
 14 27  1  0
 14 15  1  0
 14 47  1  1
 15 16  1  0
 15 48  1  0
 15 49  1  0
 16 17  1  0
 16 50  1  0
 16 51  1  0
 17 18  1  0
 17 19  1  0
 18 52  1  0
 18 53  1  0
 18 54  1  0
 19 20  1  0
 19 27  1  0
 19 55  1  6
 20 21  2  3
 20 56  1  0
 21 22  1  0
 21 57  1  0
 22 25  1  0
 22 23  1  6
 23 24  1  0
 23 58  1  0
 23 59  1  0
 24 25  1  0
 24 60  1  0
 24 61  1  0
 25 26  1  0
 25 62  1  6
 26 63  1  1
 27 28  1  0
 27 29  1  0
 28 64  1  0
 28 65  1  0
 28 66  1  0
 29 67  1  0
 29 68  1  0
 29 69  1  0
M  CHG  1  27   1
M  END
>  <i_m_ct_stereo_status>  (202) 
1

>  <s_m_source_file>  (202) 
/var/tmp/pbs.5076255.sched01/tmph8v5ro6p/78zitxkb1g.sdf

>  <i_m_source_file_index>  (202) 
12

>  <i_lp_mmshare_version>  (202) 
48012

>  <i_f3d_flags>  (202) 
2

>  <s_epik_input>  (202) 
W0NIMl0xW0NIMl1OKFtDSDNdKVtDQEhdKFtDSF0yW0NAXTEzNClbQ0BIXTVbQ0gyXVtDSDJdTihbQ0gzXSlbQ0BASF0oW04rXTUoW0NIM10pW0NIM10pL1tDSF09W0NIXVxbQ0BdNjdbQ0BIXShbQ0gyXTMpW0NASF0oW0NIMl1bQ0BIXTJbT0hdKVtDQEhdNFtDQEhdN1tDSDJdW0NIMl02

>  <s_epik_cmdline>  (202) 
J2VwaWtfcHl0aG9uJywgJy1waHQnLCAnMi4wJywgJy1waCcsICc3LjAnLCAnLXRuJywgJzgnLCAnLW1hJywgJzIwMCcsICctaW1hZScsICc8aW5maWxlLm1hZT4nLCAnLW9tYWUnLCAnPG91dGZpbGUubWFlPic=

>  <r_epik_Ionization_Penalty>  (202) 
0.00129406

>  <r_epik_Ionization_Penalty_Charging>  (202) 
0

>  <r_epik_Ionization_Penalty_Neutral>  (202) 
0.00129406

>  <r_epik_State_Penalty>  (202) 
0.000858218

>  <r_epik_Charging_Adjusted_Penalty>  (202) 
0.000858218

>  <i_epik_Tot_Q>  (202) 
1

>  <i_epik_Tot_abs_Q>  (202) 
1

>  <s_epik_Chemistry_Notes>  (202) 
This compound contains an acetal/aminal-like group ( X-CH(R)-Y where X, Y are N, S, or O) that may be acid/base labile, releasing an aldehyde.

>  <s_lp_Force_Field>  (202) 
OPLS3e

>  <r_lp_Energy>  (202) 
290.078

>  <b_lp_Chiralities_Consistent>  (202) 
0

>  <s_lp_Variant>  (202) 
67:0-2

>  <s_i_glide_gridfile>  (202) 
pfpi4k_grid

>  <i_i_glide_lignum>  (202) 
12

>  <i_i_glide_rotatable_bonds>  (202) 
1

>  <r_i_docking_score>  (202) 
-2.22725

>  <r_i_glide_ligand_efficiency>  (202) 
-0.0768018

>  <r_i_glide_ligand_efficiency_sa>  (202) 
-0.235959

>  <r_i_glide_ligand_efficiency_ln>  (202) 
-0.509984

>  <r_i_glide_gscore>  (202) 
-2.22725

>  <r_i_glide_lipo>  (202) 
-0.43238

>  <r_i_glide_hbond>  (202) 
-0.014482

>  <r_i_glide_metal>  (202) 
-0

>  <r_i_glide_rewards>  (202) 
-0.727995

>  <r_i_glide_evdw>  (202) 
-19.0621

>  <r_i_glide_ecoul>  (202) 
-0.661933

>  <r_i_glide_erotb>  (202) 
0

>  <r_i_glide_esite>  (202) 
0

>  <r_i_glide_emodel>  (202) 
-23.7158

>  <r_i_glide_energy>  (202) 
-19.724

>  <r_i_glide_einternal>  (202) 
0.0150482

>  <r_i_glide_intrahb_reward>  (202) 
-0

>  <i_i_glide_confnum>  (202) 
1

>  <i_i_glide_posenum>  (202) 
40

>  <r_i_glide_eff_state_penalty>  (202) 
0

>  <ligand_id>  (202) 
67

>  <original_smiles>  (202) 
CN1CCC23CC4C5CC(O)C2C1C1CCN(C)C(C=CC42CCC2C53)[N+]1(C)C

>  <smiles>  (202) 
[H]OC1([H])C([H])([H])C2([H])C3([H])C([H])([H])C45C([H])([H])C([H])([H])N(C([H])([H])[H])C([H])(C14[H])C1([H])C([H])([H])C([H])([H])N(C([H])([H])[H])C([H])(C([H])=C([H])C34C([H])([H])C([H])([H])C4([H])C25[H])[N+]1(C([H])([H])[H])C([H])([H])[H]

$$$$
67:1:2
     RDKit          3D

 69 75  0  0  1  0  0  0  0  0999 V2000
    1.5964   -2.2176    5.8822 C   0  0  0  0  0  0  0  0  0  0  0  0
    2.3638   -2.4082    4.6513 N   0  0  0  0  0  0  0  0  0  0  0  0
    1.6732   -2.2097    3.3765 C   0  0  0  0  0  0  0  0  0  0  0  0
    2.4201   -2.9720    2.2557 C   0  0  0  0  0  0  0  0  0  0  0  0
    3.9505   -2.6711    2.1659 C   0  0  2  0  0  0  0  0  0  0  0  0
    5.2603   -3.4967    1.7511 C   0  0  0  0  0  0  0  0  0  0  0  0
    5.5713   -3.0122    0.4363 C   0  0  2  0  0  0  0  0  0  0  0  0
    5.4313   -1.4776    0.8846 C   0  0  2  0  0  0  0  0  0  0  0  0
    5.9471   -0.8831    2.2888 C   0  0  0  0  0  0  0  0  0  0  0  0
    5.0740   -1.1130    3.6200 C   0  0  1  0  0  0  0  0  0  0  0  0
    4.1145   -0.0807    3.7200 O   0  0  0  0  0  0  0  0  0  0  0  0
    4.4193   -2.5237    3.6056 C   0  0  1  0  0  0  0  0  0  0  0  0
    3.4880   -3.3479    4.6205 C   0  0  2  0  0  0  0  0  0  0  0  0
    3.0477   -4.9687    4.4492 C   0  0  1  0  0  0  0  0  0  0  0  0
    1.5112   -5.3052    4.4962 C   0  0  0  0  0  0  0  0  0  0  0  0
    0.9172   -6.2108    3.3895 C   0  0  0  0  0  0  0  0  0  0  0  0
    1.6642   -6.1519    2.1330 N   0  0  0  0  0  0  0  0  0  0  0  0
    0.9844   -6.9356    1.1016 C   0  0  0  0  0  0  0  0  0  0  0  0
    3.1316   -6.3447    2.1889 C   0  0  1  0  0  0  0  0  0  0  0  0
    3.8592   -5.7981    0.8936 C   0  0  0  0  0  0  0  0  0  0  0  0
    3.4885   -4.7477    0.0934 C   0  0  0  0  0  0  0  0  0  0  0  0
    4.3742   -3.5177   -0.4516 C   0  0  2  0  0  0  0  0  0  0  0  0
    4.4003   -3.3213   -1.9721 C   0  0  0  0  0  0  0  0  0  0  0  0
    4.0436   -1.8480   -1.7476 C   0  0  0  0  0  0  0  0  0  0  0  0
    3.5289   -2.2459   -0.3474 C   0  0  2  0  0  0  0  0  0  0  0  0
    3.9621   -1.5838    1.0080 C   0  0  1  0  0  0  0  0  0  0  0  0
    3.7536   -6.0867    3.6166 N   0  0  0  0  0  0  0  0  0  0  0  0
    3.5859   -7.3943    4.3474 C   0  0  0  0  0  0  0  0  0  0  0  0
    5.2473   -5.9855    3.7028 C   0  0  0  0  0  0  0  0  0  0  0  0
    0.9832   -1.3205    5.7979 H   0  0  0  0  0  0  0  0  0  0  0  0
    2.2706   -2.0728    6.7286 H   0  0  0  0  0  0  0  0  0  0  0  0
    0.9386   -3.0549    6.1126 H   0  0  0  0  0  0  0  0  0  0  0  0
    0.6343   -2.5328    3.4424 H   0  0  0  0  0  0  0  0  0  0  0  0
    1.6397   -1.1450    3.1486 H   0  0  0  0  0  0  0  0  0  0  0  0
    2.2709   -3.9940    2.4058 H   0  0  0  0  0  0  0  0  0  0  0  0
    1.8402   -2.7644    1.3747 H   0  0  0  0  0  0  0  0  0  0  0  0
    6.2088   -3.2659    2.2352 H   0  0  0  0  0  0  0  0  0  0  0  0
    5.3842   -4.5201    1.8892 H   0  0  0  0  0  0  0  0  0  0  0  0
    6.5535   -3.3141    0.0699 H   0  0  0  0  0  0  0  0  0  0  0  0
    5.7487   -0.8036    0.0965 H   0  0  0  0  0  0  0  0  0  0  0  0
    6.9685   -1.2105    2.4449 H   0  0  0  0  0  0  0  0  0  0  0  0
    6.0460    0.1865    2.1734 H   0  0  0  0  0  0  0  0  0  0  0  0
    5.7096   -1.0000    4.5000 H   0  0  0  0  0  0  0  0  0  0  0  0
    3.5780   -0.2511    4.4757 H   0  0  0  0  0  0  0  0  0  0  0  0
    5.3151   -3.0331    3.9274 H   0  0  0  0  0  0  0  0  0  0  0  0
    3.9693   -3.2631    5.6000 H   0  0  0  0  0  0  0  0  0  0  0  0
    3.3439   -5.2520    5.4531 H   0  0  0  0  0  0  0  0  0  0  0  0
    1.2752   -5.7549    5.4655 H   0  0  0  0  0  0  0  0  0  0  0  0
    0.9013   -4.4101    4.4770 H   0  0  0  0  0  0  0  0  0  0  0  0
    0.8093   -7.2432    3.7205 H   0  0  0  0  0  0  0  0  0  0  0  0
   -0.1037   -5.8793    3.1982 H   0  0  0  0  0  0  0  0  0  0  0  0
    1.4266   -6.7697    0.1201 H   0  0  0  0  0  0  0  0  0  0  0  0
   -0.0564   -6.6179    1.0262 H   0  0  0  0  0  0  0  0  0  0  0  0
    0.9911   -8.0050    1.3311 H   0  0  0  0  0  0  0  0  0  0  0  0
    3.2661   -7.4065    2.0369 H   0  0  0  0  0  0  0  0  0  0  0  0
    4.8868   -6.1232    0.8259 H   0  0  0  0  0  0  0  0  0  0  0  0
    2.4464   -4.4792    0.1633 H   0  0  0  0  0  0  0  0  0  0  0  0
    5.3930   -3.4650   -2.4030 H   0  0  0  0  0  0  0  0  0  0  0  0
    3.6242   -3.8616   -2.5208 H   0  0  0  0  0  0  0  0  0  0  0  0
    4.9112   -1.1942   -1.7846 H   0  0  0  0  0  0  0  0  0  0  0  0
    3.2626   -1.4905   -2.4194 H   0  0  0  0  0  0  0  0  0  0  0  0
    2.4662   -2.4138   -0.4949 H   0  0  0  0  0  0  0  0  0  0  0  0
    3.4497   -0.6446    1.2284 H   0  0  0  0  0  0  0  0  0  0  0  0
    4.1988   -8.1681    3.8959 H   0  0  0  0  0  0  0  0  0  0  0  0
    2.6003   -7.8211    4.3683 H   0  0  0  0  0  0  0  0  0  0  0  0
    3.8955   -7.3535    5.3887 H   0  0  0  0  0  0  0  0  0  0  0  0
    5.7478   -6.5086    2.8925 H   0  0  0  0  0  0  0  0  0  0  0  0
    5.6532   -6.4254    4.6090 H   0  0  0  0  0  0  0  0  0  0  0  0
    5.6469   -4.9989    3.8096 H   0  0  0  0  0  0  0  0  0  0  0  0
  1  2  1  0
  1 30  1  0
  1 31  1  0
  1 32  1  0
  2 13  1  0
  2  3  1  0
  3  4  1  0
  3 33  1  0
  3 34  1  0
  5  4  1  1
  4 35  1  0
  4 36  1  0
  5 12  1  0
  5 26  1  0
  5  6  1  0
  6  7  1  0
  6 37  1  0
  6 38  1  0
  7 22  1  0
  7  8  1  0
  7 39  1  6
  8 26  1  0
  8  9  1  0
  8 40  1  6
  9 10  1  0
  9 41  1  0
  9 42  1  0
 10 11  1  0
 10 12  1  0
 10 43  1  1
 11 44  1  0
 12 13  1  0
 12 45  1  6
 13 14  1  0
 13 46  1  1
 14 27  1  0
 14 15  1  0
 14 47  1  1
 15 16  1  0
 15 48  1  0
 15 49  1  0
 16 17  1  0
 16 50  1  0
 16 51  1  0
 17 18  1  0
 17 19  1  0
 18 52  1  0
 18 53  1  0
 18 54  1  0
 19 20  1  0
 19 27  1  0
 19 55  1  6
 20 21  2  3
 20 56  1  0
 21 22  1  0
 21 57  1  0
 22 25  1  0
 22 23  1  6
 23 24  1  0
 23 58  1  0
 23 59  1  0
 24 25  1  0
 24 60  1  0
 24 61  1  0
 25 26  1  0
 25 62  1  6
 26 63  1  1
 27 28  1  0
 27 29  1  0
 28 64  1  0
 28 65  1  0
 28 66  1  0
 29 67  1  0
 29 68  1  0
 29 69  1  0
M  CHG  1  27   1
M  END
>  <i_m_ct_stereo_status>  (203) 
1

>  <s_m_source_file>  (203) 
/var/tmp/pbs.5076255.sched01/tmph8v5ro6p/78zitxkb1g.sdf

>  <i_m_source_file_index>  (203) 
12

>  <i_lp_mmshare_version>  (203) 
48012

>  <i_f3d_flags>  (203) 
2

>  <s_epik_input>  (203) 
W0NIMl0xW0NIMl1OKFtDSDNdKVtDQEhdKFtDSF0yW0NAXTEzNClbQ0BIXTVbQ0gyXVtDSDJdTihbQ0gzXSlbQ0BASF0oW04rXTUoW0NIM10pW0NIM10pL1tDSF09W0NIXVxbQ0BdNjdbQ0BIXShbQ0gyXTMpW0NASF0oW0NIMl1bQ0BIXTJbT0hdKVtDQEhdNFtDQEhdN1tDSDJdW0NIMl02

>  <s_epik_cmdline>  (203) 
J2VwaWtfcHl0aG9uJywgJy1waHQnLCAnMi4wJywgJy1waCcsICc3LjAnLCAnLXRuJywgJzgnLCAnLW1hJywgJzIwMCcsICctaW1hZScsICc8aW5maWxlLm1hZT4nLCAnLW9tYWUnLCAnPG91dGZpbGUubWFlPic=

>  <r_epik_Ionization_Penalty>  (203) 
0.00129406

>  <r_epik_Ionization_Penalty_Charging>  (203) 
0

>  <r_epik_Ionization_Penalty_Neutral>  (203) 
0.00129406

>  <r_epik_State_Penalty>  (203) 
0.000858218

>  <r_epik_Charging_Adjusted_Penalty>  (203) 
0.000858218

>  <i_epik_Tot_Q>  (203) 
1

>  <i_epik_Tot_abs_Q>  (203) 
1

>  <s_epik_Chemistry_Notes>  (203) 
This compound contains an acetal/aminal-like group ( X-CH(R)-Y where X, Y are N, S, or O) that may be acid/base labile, releasing an aldehyde.

>  <s_lp_Force_Field>  (203) 
OPLS3e

>  <r_lp_Energy>  (203) 
290.078

>  <b_lp_Chiralities_Consistent>  (203) 
0

>  <s_lp_Variant>  (203) 
67:0-2

>  <s_i_glide_gridfile>  (203) 
pfpi4k_grid

>  <i_i_glide_lignum>  (203) 
12

>  <i_i_glide_rotatable_bonds>  (203) 
1

>  <r_i_docking_score>  (203) 
-2.1504

>  <r_i_glide_ligand_efficiency>  (203) 
-0.0741516

>  <r_i_glide_ligand_efficiency_sa>  (203) 
-0.227817

>  <r_i_glide_ligand_efficiency_ln>  (203) 
-0.492386

>  <r_i_glide_gscore>  (203) 
-2.1504

>  <r_i_glide_lipo>  (203) 
-0.473601

>  <r_i_glide_hbond>  (203) 
0

>  <r_i_glide_metal>  (203) 
-0

>  <r_i_glide_rewards>  (203) 
-0.705193

>  <r_i_glide_evdw>  (203) 
-18.3559

>  <r_i_glide_ecoul>  (203) 
-0.358718

>  <r_i_glide_erotb>  (203) 
0

>  <r_i_glide_esite>  (203) 
0

>  <r_i_glide_emodel>  (203) 
-22.4408

>  <r_i_glide_energy>  (203) 
-18.7146

>  <r_i_glide_einternal>  (203) 
0.324545

>  <r_i_glide_intrahb_reward>  (203) 
-0

>  <i_i_glide_confnum>  (203) 
1

>  <i_i_glide_posenum>  (203) 
15

>  <r_i_glide_eff_state_penalty>  (203) 
0

>  <ligand_id>  (203) 
67

>  <original_smiles>  (203) 
CN1CCC23CC4C5CC(O)C2C1C1CCN(C)C(C=CC42CCC2C53)[N+]1(C)C

>  <smiles>  (203) 
[H]OC1([H])C([H])([H])C2([H])C3([H])C([H])([H])C45C([H])([H])C([H])([H])N(C([H])([H])[H])C([H])(C14[H])C1([H])C([H])([H])C([H])([H])N(C([H])([H])[H])C([H])(C([H])=C([H])C34C([H])([H])C([H])([H])C4([H])C25[H])[N+]1(C([H])([H])[H])C([H])([H])[H]

$$$$
68:0:0
     RDKit          3D

 68 74  0  0  1  0  0  0  0  0999 V2000
    1.1967  -11.4551    4.3474 C   0  0  0  0  0  0  0  0  0  0  0  0
    1.3128   -9.9359    4.6469 C   0  0  1  0  0  0  0  0  0  0  0  0
    0.9260   -9.9461    6.0197 O   0  0  0  0  0  0  0  0  0  0  0  0
    2.8827   -9.4190    4.6893 C   0  0  0  0  0  0  0  0  0  0  0  0
    3.1085   -8.3488    3.5676 C   0  0  1  0  0  0  0  0  0  0  0  0
    3.1270   -9.4649    2.4161 C   0  0  0  0  0  0  0  0  0  0  0  0
    1.9730   -7.4251    4.3175 C   0  0  2  0  0  0  0  0  0  0  0  0
    1.7861   -6.5614    5.6630 C   0  0  0  0  0  0  0  0  0  0  0  0
    1.5408   -4.9739    5.5277 C   0  0  1  0  0  0  0  0  0  0  0  0
    1.7306   -4.4286    6.8194 O   0  0  0  0  0  0  0  0  0  0  0  0
    2.2669   -4.0455    4.4448 C   0  0  1  0  0  0  0  0  0  0  0  0
    3.7577   -3.9442    4.8327 C   0  0  0  0  0  0  0  0  0  0  0  0
    4.4248   -5.2874    4.5890 C   0  0  0  0  0  0  0  0  0  0  0  0
    3.8964   -5.8916    3.2499 C   0  0  1  0  0  0  0  0  0  0  0  0
    4.2244   -7.3162    2.8761 C   0  0  1  0  0  0  0  0  0  0  0  0
    5.7000   -7.7186    3.0545 C   0  0  0  0  0  0  0  0  0  0  0  0
    3.8205   -6.9324    1.3917 C   0  0  0  0  0  0  0  0  0  0  0  0
    2.5916   -6.4242    1.3624 C   0  0  0  0  0  0  0  0  0  0  0  0
    2.3390   -5.8528    2.7120 C   0  0  2  0  0  0  0  0  0  0  0  0
    2.0634   -4.3637    2.8749 C   0  0  2  0  0  0  0  0  0  0  0  0
    2.8883   -3.4309    1.8610 C   0  0  0  0  0  0  0  0  0  0  0  0
    3.3858   -3.8832    0.4187 C   0  0  0  0  0  0  0  0  0  0  0  0
    4.7087   -4.7270    0.2803 C   0  0  0  0  0  0  0  0  0  0  0  0
    5.7654   -4.1249    0.1050 O   0  0  0  0  0  0  0  0  0  0  0  0
    4.7476   -6.3050    0.3370 C   0  0  0  0  0  0  0  0  0  0  0  0
    1.1656   -6.8104    3.2652 C   0  0  2  0  0  0  0  0  0  0  0  0
   -0.0509   -6.2067    3.7564 O   0  0  0  0  0  0  0  0  0  0  0  0
   -1.0380   -7.0376    4.3538 C   0  0  0  0  0  0  0  0  0  0  0  0
   -0.5715   -8.2985    4.7527 O   0  0  0  0  0  0  0  0  0  0  0  0
    0.1408   -9.1155    3.7963 C   0  0  1  0  0  0  0  0  0  0  0  0
    0.5481   -8.1096    2.6030 C   0  0  1  0  0  0  0  0  0  0  0  0
   -0.4973   -7.8273    1.6852 O   0  0  0  0  0  0  0  0  0  0  0  0
    1.2924  -11.7181    3.2954 H   0  0  0  0  0  0  0  0  0  0  0  0
    0.2177  -11.8367    4.6481 H   0  0  0  0  0  0  0  0  0  0  0  0
    1.9443  -12.0347    4.8941 H   0  0  0  0  0  0  0  0  0  0  0  0
    1.1703  -10.7805    6.4115 H   0  0  0  0  0  0  0  0  0  0  0  0
    3.1278   -9.0188    5.6769 H   0  0  0  0  0  0  0  0  0  0  0  0
    3.5672  -10.2658    4.6091 H   0  0  0  0  0  0  0  0  0  0  0  0
    3.0808   -9.1541    1.3759 H   0  0  0  0  0  0  0  0  0  0  0  0
    2.3475  -10.2083    2.4362 H   0  0  0  0  0  0  0  0  0  0  0  0
    4.0597  -10.0304    2.4707 H   0  0  0  0  0  0  0  0  0  0  0  0
    2.8654   -7.0717    4.7212 H   0  0  0  0  0  0  0  0  0  0  0  0
    0.8876   -6.9354    6.1506 H   0  0  0  0  0  0  0  0  0  0  0  0
    2.5034   -6.7775    6.4746 H   0  0  0  0  0  0  0  0  0  0  0  0
    0.4775   -4.7869    5.4119 H   0  0  0  0  0  0  0  0  0  0  0  0
    2.6391   -4.5311    7.0548 H   0  0  0  0  0  0  0  0  0  0  0  0
    1.8549   -3.0449    4.5850 H   0  0  0  0  0  0  0  0  0  0  0  0
    4.2691   -3.1562    4.2856 H   0  0  0  0  0  0  0  0  0  0  0  0
    3.8983   -3.6374    5.8691 H   0  0  0  0  0  0  0  0  0  0  0  0
    5.5002   -5.1198    4.5112 H   0  0  0  0  0  0  0  0  0  0  0  0
    4.3413   -5.9252    5.4632 H   0  0  0  0  0  0  0  0  0  0  0  0
    4.5221   -5.2161    2.6818 H   0  0  0  0  0  0  0  0  0  0  0  0
    5.9275   -7.9070    4.1057 H   0  0  0  0  0  0  0  0  0  0  0  0
    6.3822   -6.9391    2.7114 H   0  0  0  0  0  0  0  0  0  0  0  0
    5.9351   -8.6249    2.4973 H   0  0  0  0  0  0  0  0  0  0  0  0
    2.0980   -6.0176    0.4994 H   0  0  0  0  0  0  0  0  0  0  0  0
    1.0149   -4.2092    2.6396 H   0  0  0  0  0  0  0  0  0  0  0  0
    2.2646   -2.5512    1.6996 H   0  0  0  0  0  0  0  0  0  0  0  0
    3.7755   -3.0186    2.3267 H   0  0  0  0  0  0  0  0  0  0  0  0
    2.5864   -4.2980   -0.1913 H   0  0  0  0  0  0  0  0  0  0  0  0
    3.6096   -2.9598   -0.1165 H   0  0  0  0  0  0  0  0  0  0  0  0
    5.7743   -6.6180    0.5283 H   0  0  0  0  0  0  0  0  0  0  0  0
    4.4813   -6.6740   -0.6533 H   0  0  0  0  0  0  0  0  0  0  0  0
   -1.4133   -6.5246    5.2390 H   0  0  0  0  0  0  0  0  0  0  0  0
   -1.8773   -7.1638    3.6701 H   0  0  0  0  0  0  0  0  0  0  0  0
   -0.5774   -9.8410    3.4080 H   0  0  0  0  0  0  0  0  0  0  0  0
    1.1318   -8.5676    1.8357 H   0  0  0  0  0  0  0  0  0  0  0  0
   -0.5839   -8.5811    1.1058 H   0  0  0  0  0  0  0  0  0  0  0  0
  1  2  1  0
  1 33  1  0
  1 34  1  0
  1 35  1  0
  2 30  1  0
  2  3  1  1
  2  4  1  0
  3 36  1  0
  4  5  1  0
  4 37  1  0
  4 38  1  0
  5 15  1  0
  5  6  1  6
  5  7  1  0
  6 39  1  0
  6 40  1  0
  6 41  1  0
  7 26  1  0
  7  8  1  0
  7 42  1  1
  8  9  1  0
  8 43  1  0
  8 44  1  0
  9 10  1  0
  9 11  1  0
  9 45  1  6
 10 46  1  0
 11 20  1  0
 11 12  1  0
 11 47  1  6
 12 13  1  0
 12 48  1  0
 12 49  1  0
 13 14  1  0
 13 50  1  0
 13 51  1  0
 14 19  1  0
 14 15  1  0
 14 52  1  6
 15 16  1  6
 15 17  1  0
 16 53  1  0
 16 54  1  0
 16 55  1  0
 17 25  1  0
 17 18  2  0
 19 18  1  6
 18 56  1  0
 19 20  1  0
 19 26  1  0
 20 21  1  0
 20 57  1  6
 21 22  1  0
 21 58  1  0
 21 59  1  0
 22 23  1  0
 22 60  1  0
 22 61  1  0
 23 24  2  0
 23 25  1  0
 25 62  1  0
 25 63  1  0
 26 31  1  0
 26 27  1  1
 27 28  1  0
 28 29  1  0
 28 64  1  0
 28 65  1  0
 29 30  1  0
 30 31  1  0
 30 66  1  6
 31 32  1  0
 31 67  1  6
 32 68  1  0
M  END
>  <i_m_ct_stereo_status>  (204) 
1

>  <s_m_source_file>  (204) 
/var/tmp/pbs.5076255.sched01/tmph8v5ro6p/78zitxkb1g.sdf

>  <i_m_source_file_index>  (204) 
13

>  <i_lp_mmshare_version>  (204) 
48012

>  <i_f3d_flags>  (204) 
0

>  <s_epik_input>  (204) 
TzFbQ0gyXU9bQ0BASF0oW0NASF0yW09IXSlbQ0BdKFtDSDNdKShbT0hdKVtDSDJdW0NAQF0oW0NIM10pKFtDQEhdM1tDQF0xMltDQEBdNDU2KVtDQF03KFtDSDNdKVtDQEBIXTRbQ0gyXVtDSDJdW0NASF0oW0NAQEhdKFtDSDJdMylbT0hdKVtDQEhdNltDSDJdW0NIMl1DKD1PKVtDSDJdQzc9W0NIXTU=

>  <s_epik_cmdline>  (204) 
J2VwaWtfcHl0aG9uJywgJy1waHQnLCAnMi4wJywgJy1waCcsICc3LjAnLCAnLXRuJywgJzgnLCAnLW1hJywgJzIwMCcsICctaW1hZScsICc8aW5maWxlLm1hZT4nLCAnLW9tYWUnLCAnPG91dGZpbGUubWFlPic=

>  <r_lp_tautomer_probability>  (204) 
1

>  <r_epik_Ionization_Penalty>  (204) 
1.25078e-06

>  <r_epik_Ionization_Penalty_Charging>  (204) 
0

>  <r_epik_Ionization_Penalty_Neutral>  (204) 
1.25078e-06

>  <r_epik_State_Penalty>  (204) 
-0

>  <r_epik_Charging_Adjusted_Penalty>  (204) 
0

>  <i_epik_Tot_Q>  (204) 
0

>  <i_epik_Tot_abs_Q>  (204) 
0

>  <s_epik_Chemistry_Notes>  (204) 
This compound contains an acetal/aminal-like group ( X-CH(R)-Y where X, Y are N, S, or O) that may be acid/base labile, releasing an aldehyde.

>  <s_lp_Force_Field>  (204) 
OPLS3e

>  <r_lp_Energy>  (204) 
396.333

>  <b_lp_Chiralities_Consistent>  (204) 
1

>  <s_lp_Variant>  (204) 
68:0-1

>  <s_i_glide_gridfile>  (204) 
pfpi4k_grid

>  <i_i_glide_lignum>  (204) 
13

>  <i_i_glide_rotatable_bonds>  (204) 
3

>  <r_i_docking_score>  (204) 
-3.56691

>  <r_i_glide_ligand_efficiency>  (204) 
-0.111466

>  <r_i_glide_ligand_efficiency_sa>  (204) 
-0.353882

>  <r_i_glide_ligand_efficiency_ln>  (204) 
-0.798728

>  <r_i_glide_gscore>  (204) 
-3.56691

>  <r_i_glide_lipo>  (204) 
-0.342605

>  <r_i_glide_hbond>  (204) 
-0.051767

>  <r_i_glide_metal>  (204) 
-0

>  <r_i_glide_rewards>  (204) 
-0.438732

>  <r_i_glide_evdw>  (204) 
-30.5588

>  <r_i_glide_ecoul>  (204) 
-7.7078

>  <r_i_glide_erotb>  (204) 
0

>  <r_i_glide_esite>  (204) 
-0.0496932

>  <r_i_glide_emodel>  (204) 
-46.6892

>  <r_i_glide_energy>  (204) 
-38.2666

>  <r_i_glide_einternal>  (204) 
1.25698

>  <r_i_glide_intrahb_reward>  (204) 
-0

>  <i_i_glide_confnum>  (204) 
1

>  <i_i_glide_posenum>  (204) 
36

>  <r_i_glide_eff_state_penalty>  (204) 
0

>  <ligand_id>  (204) 
68

>  <original_smiles>  (204) 
CC1(O)CC2(C)C3CC(O)C4CCC5C2(C)C2=CC5(C4CCC(=O)C2)C32OCOC1C2O

>  <smiles>  (204) 
[H]OC1([H])C([H])([H])C2([H])C34OC([H])([H])OC([H])(C3([H])O[H])C(O[H])(C([H])([H])[H])C([H])([H])C2(C([H])([H])[H])C2(C([H])([H])[H])C3=C([H])C45C([H])(C([H])([H])C([H])([H])C(=O)C3([H])[H])C1([H])C([H])([H])C([H])([H])C52[H]

$$$$
68:0:1
     RDKit          3D

 68 74  0  0  1  0  0  0  0  0999 V2000
    4.9329   -1.5459   -1.7884 C   0  0  0  0  0  0  0  0  0  0  0  0
    5.1594   -2.5170   -0.5961 C   0  0  1  0  0  0  0  0  0  0  0  0
    6.4985   -2.8840   -0.9063 O   0  0  0  0  0  0  0  0  0  0  0  0
    5.2922   -1.7338    0.8513 C   0  0  0  0  0  0  0  0  0  0  0  0
    4.1350   -2.2047    1.8005 C   0  0  1  0  0  0  0  0  0  0  0  0
    3.0511   -1.3338    1.0100 C   0  0  0  0  0  0  0  0  0  0  0  0
    4.7414   -3.7254    1.6941 C   0  0  2  0  0  0  0  0  0  0  0  0
    6.0160   -4.5826    2.1682 C   0  0  0  0  0  0  0  0  0  0  0  0
    5.7943   -5.8146    3.1831 C   0  0  1  0  0  0  0  0  0  0  0  0
    7.0696   -6.1288    3.7071 O   0  0  0  0  0  0  0  0  0  0  0  0
    4.7161   -5.8157    4.3703 C   0  0  1  0  0  0  0  0  0  0  0  0
    5.2017   -4.8258    5.4559 C   0  0  0  0  0  0  0  0  0  0  0  0
    5.0696   -3.4073    4.9313 C   0  0  0  0  0  0  0  0  0  0  0  0
    3.7403   -3.2671    4.1394 C   0  0  1  0  0  0  0  0  0  0  0  0
    3.4708   -2.0261    3.3220 C   0  0  1  0  0  0  0  0  0  0  0  0
    3.7672   -0.6913    4.0265 C   0  0  0  0  0  0  0  0  0  0  0  0
    1.9460   -2.4535    3.3410 C   0  0  0  0  0  0  0  0  0  0  0  0
    1.8096   -3.6964    2.8881 C   0  0  0  0  0  0  0  0  0  0  0  0
    3.1016   -4.3836    3.1132 C   0  0  2  0  0  0  0  0  0  0  0  0
    3.1557   -5.6153    4.0062 C   0  0  2  0  0  0  0  0  0  0  0  0
    2.1585   -5.5554    5.2646 C   0  0  0  0  0  0  0  0  0  0  0  0
    0.7808   -4.7611    5.2840 C   0  0  0  0  0  0  0  0  0  0  0  0
    0.7725   -3.2099    5.5637 C   0  0  0  0  0  0  0  0  0  0  0  0
    0.6084   -2.8300    6.7222 O   0  0  0  0  0  0  0  0  0  0  0  0
    0.9161   -2.1115    4.4354 C   0  0  0  0  0  0  0  0  0  0  0  0
    3.6036   -4.6340    1.6024 C   0  0  2  0  0  0  0  0  0  0  0  0
    3.9883   -5.9708    1.2306 O   0  0  0  0  0  0  0  0  0  0  0  0
    4.5928   -6.1736   -0.0323 C   0  0  0  0  0  0  0  0  0  0  0  0
    5.0693   -5.0071   -0.6713 O   0  0  0  0  0  0  0  0  0  0  0  0
    4.1951   -3.8578   -0.7841 C   0  0  1  0  0  0  0  0  0  0  0  0
    2.9734   -4.1553    0.2232 C   0  0  1  0  0  0  0  0  0  0  0  0
    1.9927   -5.0431   -0.3125 O   0  0  0  0  0  0  0  0  0  0  0  0
    3.9038   -1.2145   -1.9011 H   0  0  0  0  0  0  0  0  0  0  0  0
    5.1856   -2.0265   -2.7352 H   0  0  0  0  0  0  0  0  0  0  0  0
    5.5565   -0.6559   -1.7010 H   0  0  0  0  0  0  0  0  0  0  0  0
    6.4719   -3.4565   -1.6600 H   0  0  0  0  0  0  0  0  0  0  0  0
    6.2726   -1.9169    1.3010 H   0  0  0  0  0  0  0  0  0  0  0  0
    5.3013   -0.6532    0.6983 H   0  0  0  0  0  0  0  0  0  0  0  0
    1.9968   -1.4917    1.2201 H   0  0  0  0  0  0  0  0  0  0  0  0
    3.0477   -1.4045   -0.0662 H   0  0  0  0  0  0  0  0  0  0  0  0
    3.1981   -0.2738    1.2253 H   0  0  0  0  0  0  0  0  0  0  0  0
    5.1947   -3.3527    2.5554 H   0  0  0  0  0  0  0  0  0  0  0  0
    6.4606   -5.0294    1.2831 H   0  0  0  0  0  0  0  0  0  0  0  0
    6.8879   -3.9960    2.4614 H   0  0  0  0  0  0  0  0  0  0  0  0
    5.6036   -6.7178    2.6088 H   0  0  0  0  0  0  0  0  0  0  0  0
    7.0197   -6.9745    4.1264 H   0  0  0  0  0  0  0  0  0  0  0  0
    4.7778   -6.8072    4.8292 H   0  0  0  0  0  0  0  0  0  0  0  0
    4.6591   -4.9444    6.3895 H   0  0  0  0  0  0  0  0  0  0  0  0
    6.2330   -5.0131    5.7573 H   0  0  0  0  0  0  0  0  0  0  0  0
    5.0590   -2.7288    5.7890 H   0  0  0  0  0  0  0  0  0  0  0  0
    5.9598   -3.1078    4.3941 H   0  0  0  0  0  0  0  0  0  0  0  0
    3.1814   -3.2198    5.0631 H   0  0  0  0  0  0  0  0  0  0  0  0
    4.8390   -0.4848    4.0349 H   0  0  0  0  0  0  0  0  0  0  0  0
    3.4281   -0.6930    5.0643 H   0  0  0  0  0  0  0  0  0  0  0  0
    3.2724    0.1409    3.5254 H   0  0  0  0  0  0  0  0  0  0  0  0
    0.9057   -4.2700    2.8661 H   0  0  0  0  0  0  0  0  0  0  0  0
    2.8361   -6.4659    3.4051 H   0  0  0  0  0  0  0  0  0  0  0  0
    1.9111   -6.5927    5.4884 H   0  0  0  0  0  0  0  0  0  0  0  0
    2.6656   -5.2259    6.1635 H   0  0  0  0  0  0  0  0  0  0  0  0
    0.1431   -5.0129    4.4424 H   0  0  0  0  0  0  0  0  0  0  0  0
    0.2157   -5.1767    6.1181 H   0  0  0  0  0  0  0  0  0  0  0  0
    1.1894   -1.1666    4.9025 H   0  0  0  0  0  0  0  0  0  0  0  0
   -0.0636   -1.9751    3.9853 H   0  0  0  0  0  0  0  0  0  0  0  0
    5.4171   -6.8730    0.0930 H   0  0  0  0  0  0  0  0  0  0  0  0
    3.8700   -6.6542   -0.6829 H   0  0  0  0  0  0  0  0  0  0  0  0
    3.7992   -3.8512   -1.8006 H   0  0  0  0  0  0  0  0  0  0  0  0
    2.2751   -3.3495    0.2970 H   0  0  0  0  0  0  0  0  0  0  0  0
    2.3045   -5.3298   -1.1804 H   0  0  0  0  0  0  0  0  0  0  0  0
  1  2  1  0
  1 33  1  0
  1 34  1  0
  1 35  1  0
  2 30  1  0
  2  3  1  6
  2  4  1  0
  3 36  1  0
  4  5  1  0
  4 37  1  0
  4 38  1  0
  5 15  1  0
  5  6  1  6
  5  7  1  0
  6 39  1  0
  6 40  1  0
  6 41  1  0
  7 26  1  0
  7  8  1  0
  7 42  1  6
  8  9  1  0
  8 43  1  0
  8 44  1  0
  9 10  1  0
  9 11  1  0
  9 45  1  6
 10 46  1  0
 11 20  1  0
 11 12  1  0
 11 47  1  1
 12 13  1  0
 12 48  1  0
 12 49  1  0
 13 14  1  0
 13 50  1  0
 13 51  1  0
 14 19  1  0
 14 15  1  0
 14 52  1  1
 15 16  1  1
 15 17  1  0
 16 53  1  0
 16 54  1  0
 16 55  1  0
 17 25  1  0
 17 18  2  0
 19 18  1  6
 18 56  1  0
 19 20  1  0
 19 26  1  0
 20 21  1  0
 20 57  1  6
 21 22  1  0
 21 58  1  0
 21 59  1  0
 22 23  1  0
 22 60  1  0
 22 61  1  0
 23 24  2  0
 23 25  1  0
 25 62  1  0
 25 63  1  0
 26 31  1  0
 26 27  1  6
 27 28  1  0
 28 29  1  0
 28 64  1  0
 28 65  1  0
 29 30  1  0
 30 31  1  0
 30 66  1  6
 31 32  1  0
 31 67  1  1
 32 68  1  0
M  END
>  <i_m_ct_stereo_status>  (205) 
1

>  <s_m_source_file>  (205) 
/var/tmp/pbs.5076255.sched01/tmph8v5ro6p/78zitxkb1g.sdf

>  <i_m_source_file_index>  (205) 
13

>  <i_lp_mmshare_version>  (205) 
48012

>  <i_f3d_flags>  (205) 
0

>  <s_epik_input>  (205) 
TzFbQ0gyXU9bQ0BASF0oW0NASF0yW09IXSlbQ0BdKFtDSDNdKShbT0hdKVtDSDJdW0NAQF0oW0NIM10pKFtDQEhdM1tDQF0xMltDQEBdNDU2KVtDQF03KFtDSDNdKVtDQEBIXTRbQ0gyXVtDSDJdW0NASF0oW0NAQEhdKFtDSDJdMylbT0hdKVtDQEhdNltDSDJdW0NIMl1DKD1PKVtDSDJdQzc9W0NIXTU=

>  <s_epik_cmdline>  (205) 
J2VwaWtfcHl0aG9uJywgJy1waHQnLCAnMi4wJywgJy1waCcsICc3LjAnLCAnLXRuJywgJzgnLCAnLW1hJywgJzIwMCcsICctaW1hZScsICc8aW5maWxlLm1hZT4nLCAnLW9tYWUnLCAnPG91dGZpbGUubWFlPic=

>  <r_lp_tautomer_probability>  (205) 
1

>  <r_epik_Ionization_Penalty>  (205) 
1.25078e-06

>  <r_epik_Ionization_Penalty_Charging>  (205) 
0

>  <r_epik_Ionization_Penalty_Neutral>  (205) 
1.25078e-06

>  <r_epik_State_Penalty>  (205) 
-0

>  <r_epik_Charging_Adjusted_Penalty>  (205) 
0

>  <i_epik_Tot_Q>  (205) 
0

>  <i_epik_Tot_abs_Q>  (205) 
0

>  <s_epik_Chemistry_Notes>  (205) 
This compound contains an acetal/aminal-like group ( X-CH(R)-Y where X, Y are N, S, or O) that may be acid/base labile, releasing an aldehyde.

>  <s_lp_Force_Field>  (205) 
OPLS3e

>  <r_lp_Energy>  (205) 
396.333

>  <b_lp_Chiralities_Consistent>  (205) 
1

>  <s_lp_Variant>  (205) 
68:0-1

>  <s_i_glide_gridfile>  (205) 
pfpi4k_grid

>  <i_i_glide_lignum>  (205) 
13

>  <i_i_glide_rotatable_bonds>  (205) 
3

>  <r_i_docking_score>  (205) 
-2.99254

>  <r_i_glide_ligand_efficiency>  (205) 
-0.0935169

>  <r_i_glide_ligand_efficiency_sa>  (205) 
-0.296898

>  <r_i_glide_ligand_efficiency_ln>  (205) 
-0.670112

>  <r_i_glide_gscore>  (205) 
-2.99254

>  <r_i_glide_lipo>  (205) 
-0.196671

>  <r_i_glide_hbond>  (205) 
0

>  <r_i_glide_metal>  (205) 
-0

>  <r_i_glide_rewards>  (205) 
-0.433921

>  <r_i_glide_evdw>  (205) 
-21.7777

>  <r_i_glide_ecoul>  (205) 
-8.46761

>  <r_i_glide_erotb>  (205) 
0

>  <r_i_glide_esite>  (205) 
-0.00292292

>  <r_i_glide_emodel>  (205) 
-36.7637

>  <r_i_glide_energy>  (205) 
-30.2453

>  <r_i_glide_einternal>  (205) 
1.86414

>  <r_i_glide_intrahb_reward>  (205) 
-0

>  <i_i_glide_confnum>  (205) 
1

>  <i_i_glide_posenum>  (205) 
1

>  <r_i_glide_eff_state_penalty>  (205) 
0

>  <ligand_id>  (205) 
68

>  <original_smiles>  (205) 
CC1(O)CC2(C)C3CC(O)C4CCC5C2(C)C2=CC5(C4CCC(=O)C2)C32OCOC1C2O

>  <smiles>  (205) 
[H]OC1([H])C([H])([H])C2([H])C34OC([H])([H])OC([H])(C3([H])O[H])C(O[H])(C([H])([H])[H])C([H])([H])C2(C([H])([H])[H])C2(C([H])([H])[H])C3=C([H])C45C([H])(C([H])([H])C([H])([H])C(=O)C3([H])[H])C1([H])C([H])([H])C([H])([H])C52[H]

$$$$
68:0:2
     RDKit          3D

 68 74  0  0  1  0  0  0  0  0999 V2000
    4.9153   -1.5179   -1.7662 C   0  0  0  0  0  0  0  0  0  0  0  0
    5.1477   -2.4949   -0.5800 C   0  0  1  0  0  0  0  0  0  0  0  0
    6.4844   -2.8612   -0.8948 O   0  0  0  0  0  0  0  0  0  0  0  0
    5.2836   -1.7169    0.8700 C   0  0  0  0  0  0  0  0  0  0  0  0
    4.1320   -2.1901    1.8216 C   0  0  1  0  0  0  0  0  0  0  0  0
    3.0424   -1.3178    1.0375 C   0  0  0  0  0  0  0  0  0  0  0  0
    4.7414   -3.7110    1.7061 C   0  0  2  0  0  0  0  0  0  0  0  0
    6.0180   -4.5685    2.1689 C   0  0  0  0  0  0  0  0  0  0  0  0
    5.8018   -5.8044    3.1832 C   0  0  1  0  0  0  0  0  0  0  0  0
    7.0769   -6.1201    3.7088 O   0  0  0  0  0  0  0  0  0  0  0  0
    4.7276   -5.8105    4.3713 C   0  0  1  0  0  0  0  0  0  0  0  0
    5.2139   -4.8260    5.4592 C   0  0  0  0  0  0  0  0  0  0  0  0
    5.0774   -3.4052    4.9447 C   0  0  0  0  0  0  0  0  0  0  0  0
    3.7446   -3.2634    4.1573 C   0  0  1  0  0  0  0  0  0  0  0  0
    3.4713   -2.0216    3.3448 C   0  0  1  0  0  0  0  0  0  0  0  0
    3.7673   -0.6867    4.0560 C   0  0  0  0  0  0  0  0  0  0  0  0
    1.9447   -2.4494    3.3663 C   0  0  0  0  0  0  0  0  0  0  0  0
    1.8133   -3.6900    2.9038 C   0  0  0  0  0  0  0  0  0  0  0  0
    3.1025   -4.3759    3.1270 C   0  0  2  0  0  0  0  0  0  0  0  0
    3.1643   -5.6122    4.0164 C   0  0  2  0  0  0  0  0  0  0  0  0
    2.1705   -5.5589    5.2760 C   0  0  0  0  0  0  0  0  0  0  0  0
    0.7912   -4.7663    5.3037 C   0  0  0  0  0  0  0  0  0  0  0  0
    0.7817   -3.2173    5.5889 C   0  0  0  0  0  0  0  0  0  0  0  0
    0.6217   -2.8418    6.7513 O   0  0  0  0  0  0  0  0  0  0  0  0
    0.9210   -2.1144    4.4643 C   0  0  0  0  0  0  0  0  0  0  0  0
    3.6069   -4.6221    1.6155 C   0  0  2  0  0  0  0  0  0  0  0  0
    3.9866   -5.9574    1.2373 O   0  0  0  0  0  0  0  0  0  0  0  0
    4.5875   -6.1598   -0.0300 C   0  0  0  0  0  0  0  0  0  0  0  0
    5.0574   -4.9893   -0.6669 O   0  0  0  0  0  0  0  0  0  0  0  0
    4.1854   -3.8406   -0.7702 C   0  0  1  0  0  0  0  0  0  0  0  0
    2.9692   -4.1372    0.2465 C   0  0  1  0  0  0  0  0  0  0  0  0
    1.9872   -5.0255   -0.2853 O   0  0  0  0  0  0  0  0  0  0  0  0
    3.8862   -1.1853   -1.8750 H   0  0  0  0  0  0  0  0  0  0  0  0
    5.1677   -1.9887   -2.7183 H   0  0  0  0  0  0  0  0  0  0  0  0
    5.5388   -0.6269   -1.6743 H   0  0  0  0  0  0  0  0  0  0  0  0
    6.4566   -3.4286   -1.6507 H   0  0  0  0  0  0  0  0  0  0  0  0
    6.2675   -1.8970    1.3159 H   0  0  0  0  0  0  0  0  0  0  0  0
    5.2927   -0.6342    0.7212 H   0  0  0  0  0  0  0  0  0  0  0  0
    1.9887   -1.4792    1.2494 H   0  0  0  0  0  0  0  0  0  0  0  0
    3.0365   -1.3805   -0.0383 H   0  0  0  0  0  0  0  0  0  0  0  0
    3.1877   -0.2580    1.2609 H   0  0  0  0  0  0  0  0  0  0  0  0
    5.1941   -3.3416    2.5686 H   0  0  0  0  0  0  0  0  0  0  0  0
    6.4580   -5.0062    1.2767 H   0  0  0  0  0  0  0  0  0  0  0  0
    6.8886   -3.9767    2.4608 H   0  0  0  0  0  0  0  0  0  0  0  0
    5.6088   -6.7053    2.6070 H   0  0  0  0  0  0  0  0  0  0  0  0
    7.6609   -6.3145    2.9930 H   0  0  0  0  0  0  0  0  0  0  0  0
    4.7964   -6.8017    4.8231 H   0  0  0  0  0  0  0  0  0  0  0  0
    4.6742   -4.9513    6.3933 H   0  0  0  0  0  0  0  0  0  0  0  0
    6.2460   -5.0153    5.7579 H   0  0  0  0  0  0  0  0  0  0  0  0
    5.0680   -2.7315    5.8045 H   0  0  0  0  0  0  0  0  0  0  0  0
    5.9646   -3.1017    4.4047 H   0  0  0  0  0  0  0  0  0  0  0  0
    3.1881   -3.2217    5.0834 H   0  0  0  0  0  0  0  0  0  0  0  0
    4.8403   -0.4812    4.0623 H   0  0  0  0  0  0  0  0  0  0  0  0
    3.4316   -0.6933    5.0929 H   0  0  0  0  0  0  0  0  0  0  0  0
    3.2720    0.1471    3.5592 H   0  0  0  0  0  0  0  0  0  0  0  0
    0.9049   -4.2632    2.8827 H   0  0  0  0  0  0  0  0  0  0  0  0
    2.8418   -6.4609    3.4114 H   0  0  0  0  0  0  0  0  0  0  0  0
    1.9261   -6.5979    5.4974 H   0  0  0  0  0  0  0  0  0  0  0  0
    2.6796   -5.2309    6.1741 H   0  0  0  0  0  0  0  0  0  0  0  0
    0.1513   -5.0164    4.4619 H   0  0  0  0  0  0  0  0  0  0  0  0
    0.2286   -5.1865    6.1375 H   0  0  0  0  0  0  0  0  0  0  0  0
    1.1925   -1.1697    4.9360 H   0  0  0  0  0  0  0  0  0  0  0  0
   -0.0635   -1.9773    4.0183 H   0  0  0  0  0  0  0  0  0  0  0  0
    5.4183   -6.8507    0.0930 H   0  0  0  0  0  0  0  0  0  0  0  0
    3.8704   -6.6549   -0.6772 H   0  0  0  0  0  0  0  0  0  0  0  0
    3.7861   -3.8356   -1.7857 H   0  0  0  0  0  0  0  0  0  0  0  0
    2.2706   -3.3324    0.3224 H   0  0  0  0  0  0  0  0  0  0  0  0
    2.3661   -5.4455   -1.0503 H   0  0  0  0  0  0  0  0  0  0  0  0
  1  2  1  0
  1 33  1  0
  1 34  1  0
  1 35  1  0
  2 30  1  0
  2  3  1  6
  2  4  1  0
  3 36  1  0
  4  5  1  0
  4 37  1  0
  4 38  1  0
  5 15  1  0
  5  6  1  6
  5  7  1  0
  6 39  1  0
  6 40  1  0
  6 41  1  0
  7 26  1  0
  7  8  1  0
  7 42  1  6
  8  9  1  0
  8 43  1  0
  8 44  1  0
  9 10  1  0
  9 11  1  0
  9 45  1  6
 10 46  1  0
 11 20  1  0
 11 12  1  0
 11 47  1  1
 12 13  1  0
 12 48  1  0
 12 49  1  0
 13 14  1  0
 13 50  1  0
 13 51  1  0
 14 19  1  0
 14 15  1  0
 14 52  1  1
 15 16  1  1
 15 17  1  0
 16 53  1  0
 16 54  1  0
 16 55  1  0
 17 25  1  0
 17 18  2  0
 19 18  1  6
 18 56  1  0
 19 20  1  0
 19 26  1  0
 20 21  1  0
 20 57  1  6
 21 22  1  0
 21 58  1  0
 21 59  1  0
 22 23  1  0
 22 60  1  0
 22 61  1  0
 23 24  2  0
 23 25  1  0
 25 62  1  0
 25 63  1  0
 26 31  1  0
 26 27  1  6
 27 28  1  0
 28 29  1  0
 28 64  1  0
 28 65  1  0
 29 30  1  0
 30 31  1  0
 30 66  1  6
 31 32  1  0
 31 67  1  1
 32 68  1  0
M  END
>  <i_m_ct_stereo_status>  (206) 
1

>  <s_m_source_file>  (206) 
/var/tmp/pbs.5076255.sched01/tmph8v5ro6p/78zitxkb1g.sdf

>  <i_m_source_file_index>  (206) 
13

>  <i_lp_mmshare_version>  (206) 
48012

>  <i_f3d_flags>  (206) 
0

>  <s_epik_input>  (206) 
TzFbQ0gyXU9bQ0BASF0oW0NASF0yW09IXSlbQ0BdKFtDSDNdKShbT0hdKVtDSDJdW0NAQF0oW0NIM10pKFtDQEhdM1tDQF0xMltDQEBdNDU2KVtDQF03KFtDSDNdKVtDQEBIXTRbQ0gyXVtDSDJdW0NASF0oW0NAQEhdKFtDSDJdMylbT0hdKVtDQEhdNltDSDJdW0NIMl1DKD1PKVtDSDJdQzc9W0NIXTU=

>  <s_epik_cmdline>  (206) 
J2VwaWtfcHl0aG9uJywgJy1waHQnLCAnMi4wJywgJy1waCcsICc3LjAnLCAnLXRuJywgJzgnLCAnLW1hJywgJzIwMCcsICctaW1hZScsICc8aW5maWxlLm1hZT4nLCAnLW9tYWUnLCAnPG91dGZpbGUubWFlPic=

>  <r_lp_tautomer_probability>  (206) 
1

>  <r_epik_Ionization_Penalty>  (206) 
1.25078e-06

>  <r_epik_Ionization_Penalty_Charging>  (206) 
0

>  <r_epik_Ionization_Penalty_Neutral>  (206) 
1.25078e-06

>  <r_epik_State_Penalty>  (206) 
-0

>  <r_epik_Charging_Adjusted_Penalty>  (206) 
0

>  <i_epik_Tot_Q>  (206) 
0

>  <i_epik_Tot_abs_Q>  (206) 
0

>  <s_epik_Chemistry_Notes>  (206) 
This compound contains an acetal/aminal-like group ( X-CH(R)-Y where X, Y are N, S, or O) that may be acid/base labile, releasing an aldehyde.

>  <s_lp_Force_Field>  (206) 
OPLS3e

>  <r_lp_Energy>  (206) 
396.333

>  <b_lp_Chiralities_Consistent>  (206) 
1

>  <s_lp_Variant>  (206) 
68:0-1

>  <s_i_glide_gridfile>  (206) 
pfpi4k_grid

>  <i_i_glide_lignum>  (206) 
13

>  <i_i_glide_rotatable_bonds>  (206) 
3

>  <r_i_docking_score>  (206) 
-2.95198

>  <r_i_glide_ligand_efficiency>  (206) 
-0.0922494

>  <r_i_glide_ligand_efficiency_sa>  (206) 
-0.292874

>  <r_i_glide_ligand_efficiency_ln>  (206) 
-0.661029

>  <r_i_glide_gscore>  (206) 
-2.95198

>  <r_i_glide_lipo>  (206) 
-0.197624

>  <r_i_glide_hbond>  (206) 
0

>  <r_i_glide_metal>  (206) 
-0

>  <r_i_glide_rewards>  (206) 
-0.43259

>  <r_i_glide_evdw>  (206) 
-21.7669

>  <r_i_glide_ecoul>  (206) 
-8.20356

>  <r_i_glide_erotb>  (206) 
0

>  <r_i_glide_esite>  (206) 
-0.00288889

>  <r_i_glide_emodel>  (206) 
-36.152

>  <r_i_glide_energy>  (206) 
-29.9704

>  <r_i_glide_einternal>  (206) 
1.65847

>  <r_i_glide_intrahb_reward>  (206) 
-0

>  <i_i_glide_confnum>  (206) 
2

>  <i_i_glide_posenum>  (206) 
6

>  <r_i_glide_eff_state_penalty>  (206) 
0

>  <ligand_id>  (206) 
68

>  <original_smiles>  (206) 
CC1(O)CC2(C)C3CC(O)C4CCC5C2(C)C2=CC5(C4CCC(=O)C2)C32OCOC1C2O

>  <smiles>  (206) 
[H]OC1([H])C([H])([H])C2([H])C34OC([H])([H])OC([H])(C3([H])O[H])C(O[H])(C([H])([H])[H])C([H])([H])C2(C([H])([H])[H])C2(C([H])([H])[H])C3=C([H])C45C([H])(C([H])([H])C([H])([H])C(=O)C3([H])[H])C1([H])C([H])([H])C([H])([H])C52[H]

$$$$
69:0:0
     RDKit          3D

 86 91  0  0  1  0  0  0  0  0999 V2000
   -1.0255   -0.1257    4.1414 C   0  0  0  0  0  0  0  0  0  0  0  0
   -0.8510   -0.2259    5.6589 C   0  0  0  0  0  0  0  0  0  0  0  0
   -1.6612    0.3155    6.4176 O   0  0  0  0  0  0  0  0  0  0  0  0
    0.2260   -0.9285    6.1032 O   0  0  0  0  0  0  0  0  0  0  0  0
    1.0473   -1.7412    5.2629 C   0  0  2  0  0  0  0  0  0  0  0  0
    0.5927   -3.2034    5.4458 C   0  0  0  0  0  0  0  0  0  0  0  0
    1.3580   -4.2336    4.5753 C   0  0  2  0  0  0  0  0  0  0  0  0
    1.6761   -5.5872    5.3274 C   0  0  1  0  0  0  0  0  0  0  0  0
    2.5044   -5.4021    6.6392 C   0  0  0  0  0  0  0  0  0  0  0  0
    0.3326   -6.2809    5.6814 C   0  0  0  0  0  0  0  0  0  0  0  0
    0.3278   -7.8377    5.5311 C   0  0  1  0  0  0  0  0  0  0  0  0
   -0.4743   -8.2764    4.3212 C   0  0  0  0  0  0  0  0  0  0  0  0
   -0.1469   -9.3052    3.3795 C   0  0  0  0  0  0  0  0  0  0  0  0
   -1.1703   -9.3557    2.4927 C   0  0  0  0  0  0  0  0  0  0  0  0
   -2.1312   -8.4437    2.7880 O   0  0  0  0  0  0  0  0  0  0  0  0
   -1.6872   -7.8105    3.9042 C   0  0  0  0  0  0  0  0  0  0  0  0
    1.6239   -8.4454    5.6032 O   0  0  0  0  0  0  0  0  0  0  0  0
    2.6802   -7.9252    4.9344 C   0  0  0  0  0  0  0  0  0  0  0  0
    3.7554   -8.5040    4.7996 O   0  0  0  0  0  0  0  0  0  0  0  0
    2.4262   -6.5211    4.3511 C   0  0  2  0  0  0  0  0  0  0  0  0
    3.7218   -5.8824    3.8459 C   0  0  0  0  0  0  0  0  0  0  0  0
    3.4123   -4.6210    3.0533 C   0  0  0  0  0  0  0  0  0  0  0  0
    2.5529   -3.5722    3.7811 C   0  0  1  0  0  0  0  0  0  0  0  0
    1.9778   -2.8673    2.6946 O   0  0  0  0  0  0  0  0  0  0  0  0
    3.3799   -2.5463    4.6370 C   0  0  1  0  0  0  0  0  0  0  0  0
    4.5142   -1.7238    3.9264 C   0  0  1  0  0  0  0  0  0  0  0  0
    4.2655   -1.4533    2.5416 O   0  0  0  0  0  0  0  0  0  0  0  0
    5.3711   -0.9564    1.8262 C   0  0  2  0  0  0  0  0  0  0  0  0
    4.8950   -0.3942    0.4794 C   0  0  0  0  0  0  0  0  0  0  0  0
    4.3823   -1.5215   -0.4295 C   0  0  1  0  0  0  0  0  0  0  0  0
    4.0348   -1.0529   -1.7193 O   0  0  0  0  0  0  0  0  0  0  0  0
    5.4340   -2.6288   -0.5577 C   0  0  1  0  0  0  0  0  0  0  0  0
    6.5816   -2.2707   -1.3327 O   0  0  0  0  0  0  0  0  0  0  0  0
    5.8692   -3.0660    0.8486 C   0  0  1  0  0  0  0  0  0  0  0  0
    6.9150   -4.1906    0.8779 C   0  0  0  0  0  0  0  0  0  0  0  0
    6.3366   -1.9389    1.5868 O   0  0  0  0  0  0  0  0  0  0  0  0
    4.5595   -0.3967    4.7074 C   0  0  0  0  0  0  0  0  0  0  0  0
    3.1075   -0.1283    5.0939 C   0  0  1  0  0  0  0  0  0  0  0  0
    2.9802    1.0202    6.1127 C   0  0  0  0  0  0  0  0  0  0  0  0
    2.4669    0.3439    3.9238 O   0  0  0  0  0  0  0  0  0  0  0  0
    2.5673   -1.5364    5.5200 C   0  0  1  0  0  0  0  0  0  0  0  0
    2.8837   -1.7762    7.0176 C   0  0  0  0  0  0  0  0  0  0  0  0
   -1.1074   -1.1268    3.7200 H   0  0  0  0  0  0  0  0  0  0  0  0
   -0.1718    0.3731    3.6827 H   0  0  0  0  0  0  0  0  0  0  0  0
   -1.9181    0.4297    3.8611 H   0  0  0  0  0  0  0  0  0  0  0  0
    0.9087   -1.4801    4.2233 H   0  0  0  0  0  0  0  0  0  0  0  0
    0.6101   -3.4594    6.5035 H   0  0  0  0  0  0  0  0  0  0  0  0
   -0.4609   -3.2459    5.1830 H   0  0  0  0  0  0  0  0  0  0  0  0
    0.6656   -4.5095    3.7773 H   0  0  0  0  0  0  0  0  0  0  0  0
    2.7664   -6.3555    7.0974 H   0  0  0  0  0  0  0  0  0  0  0  0
    1.9595   -4.8657    7.4126 H   0  0  0  0  0  0  0  0  0  0  0  0
    3.4517   -4.8871    6.4965 H   0  0  0  0  0  0  0  0  0  0  0  0
    0.0991   -6.0481    6.7131 H   0  0  0  0  0  0  0  0  0  0  0  0
   -0.4817   -5.8346    5.1045 H   0  0  0  0  0  0  0  0  0  0  0  0
   -0.2047   -8.2413    6.3872 H   0  0  0  0  0  0  0  0  0  0  0  0
    0.7219   -9.9468    3.3823 H   0  0  0  0  0  0  0  0  0  0  0  0
   -1.3848   -9.9838    1.6351 H   0  0  0  0  0  0  0  0  0  0  0  0
   -2.3766   -7.0585    4.2810 H   0  0  0  0  0  0  0  0  0  0  0  0
    1.7960   -6.6895    3.4859 H   0  0  0  0  0  0  0  0  0  0  0  0
    4.3916   -5.6247    4.6599 H   0  0  0  0  0  0  0  0  0  0  0  0
    4.2670   -6.5654    3.1975 H   0  0  0  0  0  0  0  0  0  0  0  0
    4.3813   -4.2147    2.8602 H   0  0  0  0  0  0  0  0  0  0  0  0
    2.9103   -4.9337    2.1333 H   0  0  0  0  0  0  0  0  0  0  0  0
    2.6778   -2.3575    2.3023 H   0  0  0  0  0  0  0  0  0  0  0  0
    3.9350   -3.1697    5.3359 H   0  0  0  0  0  0  0  0  0  0  0  0
    5.4551   -2.2563    4.0157 H   0  0  0  0  0  0  0  0  0  0  0  0
    5.8813   -0.1648    2.3634 H   0  0  0  0  0  0  0  0  0  0  0  0
    4.1469    0.3788    0.6538 H   0  0  0  0  0  0  0  0  0  0  0  0
    5.7680    0.0687    0.0303 H   0  0  0  0  0  0  0  0  0  0  0  0
    3.4701   -1.9287    0.0281 H   0  0  0  0  0  0  0  0  0  0  0  0
    3.1703   -0.6689   -1.6848 H   0  0  0  0  0  0  0  0  0  0  0  0
    4.9667   -3.4915   -1.0159 H   0  0  0  0  0  0  0  0  0  0  0  0
    7.1177   -3.0484   -1.3731 H   0  0  0  0  0  0  0  0  0  0  0  0
    4.9545   -3.4229    1.2654 H   0  0  0  0  0  0  0  0  0  0  0  0
    6.5515   -5.0444    0.3152 H   0  0  0  0  0  0  0  0  0  0  0  0
    7.0904   -4.5379    1.8938 H   0  0  0  0  0  0  0  0  0  0  0  0
    7.8975   -3.9068    0.4620 H   0  0  0  0  0  0  0  0  0  0  0  0
    5.1524   -0.5446    5.6104 H   0  0  0  0  0  0  0  0  0  0  0  0
    4.9991    0.4573    4.1860 H   0  0  0  0  0  0  0  0  0  0  0  0
    3.5575    0.8328    7.0201 H   0  0  0  0  0  0  0  0  0  0  0  0
    1.9413    1.1948    6.3975 H   0  0  0  0  0  0  0  0  0  0  0  0
    3.3618    1.9478    5.6830 H   0  0  0  0  0  0  0  0  0  0  0  0
    1.5907    0.6059    4.1493 H   0  0  0  0  0  0  0  0  0  0  0  0
    3.9438   -1.6333    7.2298 H   0  0  0  0  0  0  0  0  0  0  0  0
    2.6277   -2.7847    7.3256 H   0  0  0  0  0  0  0  0  0  0  0  0
    2.3145   -1.1000    7.6553 H   0  0  0  0  0  0  0  0  0  0  0  0
  1  2  1  0
  1 43  1  0
  1 44  1  0
  1 45  1  0
  2  3  2  0
  2  4  1  0
  4  5  1  0
  5 41  1  0
  5  6  1  0
  5 46  1  6
  6  7  1  0
  6 47  1  0
  6 48  1  0
  7 23  1  0
  7  8  1  0
  7 49  1  6
  8 20  1  0
  8  9  1  1
  8 10  1  0
  9 50  1  0
  9 51  1  0
  9 52  1  0
 10 11  1  0
 10 53  1  0
 10 54  1  0
 11 12  1  0
 11 17  1  0
 11 55  1  1
 12 16  2  0
 12 13  1  0
 13 14  2  0
 13 56  1  0
 14 15  1  0
 14 57  1  0
 15 16  1  0
 16 58  1  0
 17 18  1  0
 18 19  2  0
 18 20  1  0
 20 21  1  0
 20 59  1  6
 21 22  1  0
 21 60  1  0
 21 61  1  0
 22 23  1  0
 22 62  1  0
 22 63  1  0
 23 24  1  6
 23 25  1  0
 24 64  1  0
 25 41  1  0
 25 26  1  0
 25 65  1  1
 26 27  1  0
 26 37  1  0
 26 66  1  6
 27 28  1  0
 28 36  1  0
 28 29  1  0
 28 67  1  1
 29 30  1  0
 29 68  1  0
 29 69  1  0
 30 31  1  0
 30 32  1  0
 30 70  1  1
 31 71  1  0
 32 33  1  0
 32 34  1  0
 32 72  1  6
 33 73  1  0
 34 35  1  0
 34 36  1  0
 34 74  1  1
 35 75  1  0
 35 76  1  0
 35 77  1  0
 37 38  1  0
 37 78  1  0
 37 79  1  0
 38 39  1  0
 38 40  1  6
 38 41  1  0
 39 80  1  0
 39 81  1  0
 39 82  1  0
 40 83  1  0
 41 42  1  1
 42 84  1  0
 42 85  1  0
 42 86  1  0
M  END
>  <i_m_ct_stereo_status>  (207) 
1

>  <s_m_source_file>  (207) 
/var/tmp/pbs.5076255.sched01/tmph8v5ro6p/78zitxkb1g.sdf

>  <i_m_source_file_index>  (207) 
14

>  <i_lp_mmshare_version>  (207) 
48012

>  <i_f3d_flags>  (207) 
0

>  <s_epik_input>  (207) 
W0NIM11bQ0BASF0oTzEpW0NASF0oW09IXSlbQ0BIXShbT0hdKVtDSDJdW0NASF0xT1tDQEhdMltDSDJdW0NAQF0oW0NIM10pKFtPSF0pW0NAQF0oW0NIM10pKFtDQEBIXShbQ0gyXTMpT0MoPU8pW0NIM10pW0NASF0yW0NAXShbT0hdKShbQ0BIXTNbQ0BAXTQ1W0NIM10pW0NIMl1bQ0gyXVtDQEhdNUMoPU8pT1tDQEBIXShbQ0gyXTQpYzZbY0hdW2NIXW9bY0hdNg==

>  <s_epik_cmdline>  (207) 
J2VwaWtfcHl0aG9uJywgJy1waHQnLCAnMi4wJywgJy1waCcsICc3LjAnLCAnLXRuJywgJzgnLCAnLW1hJywgJzIwMCcsICctaW1hZScsICc8aW5maWxlLm1hZT4nLCAnLW9tYWUnLCAnPG91dGZpbGUubWFlPic=

>  <r_lp_tautomer_probability>  (207) 
1

>  <r_epik_Ionization_Penalty>  (207) 
2.94913e-07

>  <r_epik_Ionization_Penalty_Charging>  (207) 
0

>  <r_epik_Ionization_Penalty_Neutral>  (207) 
2.94913e-07

>  <r_epik_State_Penalty>  (207) 
-0

>  <r_epik_Charging_Adjusted_Penalty>  (207) 
0

>  <i_epik_Tot_Q>  (207) 
0

>  <i_epik_Tot_abs_Q>  (207) 
0

>  <s_epik_Chemistry_Notes>  (207) 
This compound has an ester and may undergo hydrolysis at high or low pH. This compound contains an acetal/aminal-like group ( X-CH(R)-Y where X, Y are N, S, or O) that may be acid/base labile, releasing an aldehyde.

>  <s_lp_Force_Field>  (207) 
OPLS3e

>  <r_lp_Energy>  (207) 
63.2935

>  <b_lp_Chiralities_Consistent>  (207) 
1

>  <s_lp_Variant>  (207) 
69:0-1

>  <s_i_glide_gridfile>  (207) 
pfpi4k_grid

>  <i_i_glide_lignum>  (207) 
14

>  <i_i_glide_rotatable_bonds>  (207) 
9

>  <r_i_docking_score>  (207) 
-3.95585

>  <r_i_glide_ligand_efficiency>  (207) 
-0.0941868

>  <r_i_glide_ligand_efficiency_sa>  (207) 
-0.327396

>  <r_i_glide_ligand_efficiency_ln>  (207) 
-0.834977

>  <r_i_glide_gscore>  (207) 
-3.95585

>  <r_i_glide_lipo>  (207) 
-0.647381

>  <r_i_glide_hbond>  (207) 
-0.16

>  <r_i_glide_metal>  (207) 
-0

>  <r_i_glide_rewards>  (207) 
-0.660389

>  <r_i_glide_evdw>  (207) 
-38.4607

>  <r_i_glide_ecoul>  (207) 
-4.33834

>  <r_i_glide_erotb>  (207) 
0.128101

>  <r_i_glide_esite>  (207) 
-0.0423913

>  <r_i_glide_emodel>  (207) 
-56.2045

>  <r_i_glide_energy>  (207) 
-42.799

>  <r_i_glide_einternal>  (207) 
7.55158

>  <r_i_glide_intrahb_reward>  (207) 
-0.5

>  <i_i_glide_confnum>  (207) 
1

>  <i_i_glide_posenum>  (207) 
17

>  <r_i_glide_eff_state_penalty>  (207) 
0

>  <ligand_id>  (207) 
69

>  <original_smiles>  (207) 
CC(=O)OC1CC2C3(C)CC(c4ccoc4)OC(=O)C3CCC2(O)C2C(OC3CC(O)C(O)C(C)O3)CC(C)(O)C12C

>  <smiles>  (207) 
[H]OC1([H])C([H])([H])C([H])(OC2([H])C([H])([H])C(O[H])(C([H])([H])[H])C3(C([H])([H])[H])C([H])(OC(=O)C([H])([H])[H])C([H])([H])C4([H])C(O[H])(C([H])([H])C([H])([H])C5([H])C(=O)OC([H])(c6c([H])oc([H])c6[H])C([H])([H])C54C([H])([H])[H])C23[H])OC([H])(C([H])([H])[H])C1([H])O[H]

$$$$
69:0:1
     RDKit          3D

 86 91  0  0  1  0  0  0  0  0999 V2000
   -1.0830   -0.6256    4.4664 C   0  0  0  0  0  0  0  0  0  0  0  0
   -0.4731   -0.3737    5.8379 C   0  0  0  0  0  0  0  0  0  0  0  0
   -1.1126    0.2525    6.6974 O   0  0  0  0  0  0  0  0  0  0  0  0
    0.7688   -0.8794    6.0754 O   0  0  0  0  0  0  0  0  0  0  0  0
    1.4535   -1.7162    5.1446 C   0  0  2  0  0  0  0  0  0  0  0  0
    0.9834   -3.1751    5.3553 C   0  0  0  0  0  0  0  0  0  0  0  0
    1.6244   -4.2179    4.4021 C   0  0  2  0  0  0  0  0  0  0  0  0
    1.9500   -5.5920    5.1190 C   0  0  1  0  0  0  0  0  0  0  0  0
    2.9080   -5.4484    6.3490 C   0  0  0  0  0  0  0  0  0  0  0  0
    0.6277   -6.2495    5.5715 C   0  0  0  0  0  0  0  0  0  0  0  0
    0.5589   -7.7998    5.4110 C   0  0  1  0  0  0  0  0  0  0  0  0
   -0.3617   -8.1942    4.2773 C   0  0  0  0  0  0  0  0  0  0  0  0
   -0.1445   -9.2113    3.2836 C   0  0  0  0  0  0  0  0  0  0  0  0
   -1.2390   -9.2185    2.4986 C   0  0  0  0  0  0  0  0  0  0  0  0
   -2.1515   -8.2951    2.8916 O   0  0  0  0  0  0  0  0  0  0  0  0
   -1.5959   -7.6978    3.9778 C   0  0  0  0  0  0  0  0  0  0  0  0
    1.8297   -8.4641    5.3737 O   0  0  0  0  0  0  0  0  0  0  0  0
    2.8473   -7.9715    4.6131 C   0  0  0  0  0  0  0  0  0  0  0  0
    3.8869   -8.5572    4.3632 O   0  0  0  0  0  0  0  0  0  0  0  0
    2.5809   -6.5470    4.0810 C   0  0  2  0  0  0  0  0  0  0  0  0
    3.8317   -5.9431    3.4606 C   0  0  0  0  0  0  0  0  0  0  0  0
    3.4751   -4.6868    2.7310 C   0  0  0  0  0  0  0  0  0  0  0  0
    2.7405   -3.5950    3.5195 C   0  0  1  0  0  0  0  0  0  0  0  0
    2.1142   -2.8372    2.4966 O   0  0  0  0  0  0  0  0  0  0  0  0
    3.6908   -2.5975    4.3020 C   0  0  1  0  0  0  0  0  0  0  0  0
    4.7849   -1.8077    3.5023 C   0  0  1  0  0  0  0  0  0  0  0  0
    4.4470   -1.5382    2.1390 O   0  0  0  0  0  0  0  0  0  0  0  0
    5.5100   -1.1031    1.3183 C   0  0  2  0  0  0  0  0  0  0  0  0
    4.9461   -0.6554   -0.0392 C   0  0  0  0  0  0  0  0  0  0  0  0
    4.3297   -1.8403   -0.8014 C   0  0  1  0  0  0  0  0  0  0  0  0
    3.9144   -1.4649   -2.1056 O   0  0  0  0  0  0  0  0  0  0  0  0
    5.3612   -2.9866   -0.9006 C   0  0  1  0  0  0  0  0  0  0  0  0
    6.4194   -2.7275   -1.8069 O   0  0  0  0  0  0  0  0  0  0  0  0
    5.9237   -3.2622    0.4763 C   0  0  1  0  0  0  0  0  0  0  0  0
    6.8845   -4.4653    0.5492 C   0  0  0  0  0  0  0  0  0  0  0  0
    6.4617   -2.0993    1.0835 O   0  0  0  0  0  0  0  0  0  0  0  0
    4.9465   -0.4882    4.2777 C   0  0  0  0  0  0  0  0  0  0  0  0
    3.5481   -0.1728    4.7982 C   0  0  1  0  0  0  0  0  0  0  0  0
    3.5470    0.9633    5.8408 C   0  0  0  0  0  0  0  0  0  0  0  0
    2.8062    0.3295    3.6997 O   0  0  0  0  0  0  0  0  0  0  0  0
    2.9936   -1.5622    5.2603 C   0  0  1  0  0  0  0  0  0  0  0  0
    3.4314   -1.8408    6.7180 C   0  0  0  0  0  0  0  0  0  0  0  0
   -1.1431   -1.6951    4.2667 H   0  0  0  0  0  0  0  0  0  0  0  0
   -0.4587   -0.1778    3.6885 H   0  0  0  0  0  0  0  0  0  0  0  0
   -2.0983   -0.2216    4.3694 H   0  0  0  0  0  0  0  0  0  0  0  0
    1.2208   -1.4143    4.1284 H   0  0  0  0  0  0  0  0  0  0  0  0
    1.0905   -3.4398    6.4048 H   0  0  0  0  0  0  0  0  0  0  0  0
   -0.0855   -3.2542    5.2196 H   0  0  0  0  0  0  0  0  0  0  0  0
    0.8430   -4.4617    3.6621 H   0  0  0  0  0  0  0  0  0  0  0  0
    3.1787   -6.4163    6.7687 H   0  0  0  0  0  0  0  0  0  0  0  0
    2.4516   -4.9066    7.1677 H   0  0  0  0  0  0  0  0  0  0  0  0
    3.8557   -4.9626    6.1260 H   0  0  0  0  0  0  0  0  0  0  0  0
    0.4926   -6.0164    6.6150 H   0  0  0  0  0  0  0  0  0  0  0  0
   -0.2173   -5.7656    5.0649 H   0  0  0  0  0  0  0  0  0  0  0  0
    0.0895   -8.2001    6.3084 H   0  0  0  0  0  0  0  0  0  0  0  0
    0.7070   -9.8726    3.1888 H   0  0  0  0  0  0  0  0  0  0  0  0
   -1.5351   -9.8236    1.6462 H   0  0  0  0  0  0  0  0  0  0  0  0
   -2.2275   -6.9324    4.4327 H   0  0  0  0  0  0  0  0  0  0  0  0
    1.8822   -6.6726    3.2559 H   0  0  0  0  0  0  0  0  0  0  0  0
    4.5868   -5.7053    4.2026 H   0  0  0  0  0  0  0  0  0  0  0  0
    4.3130   -6.6190    2.7490 H   0  0  0  0  0  0  0  0  0  0  0  0
    4.4720   -4.3201    2.5566 H   0  0  0  0  0  0  0  0  0  0  0  0
    2.9177   -4.9335    1.8260 H   0  0  0  0  0  0  0  0  0  0  0  0
    2.8016   -2.3588    2.0423 H   0  0  0  0  0  0  0  0  0  0  0  0
    4.2781   -3.2450    4.9390 H   0  0  0  0  0  0  0  0  0  0  0  0
    5.7150   -2.3699    3.5218 H   0  0  0  0  0  0  0  0  0  0  0  0
    6.0559   -0.2706    1.7742 H   0  0  0  0  0  0  0  0  0  0  0  0
    4.2337    0.1482    0.1199 H   0  0  0  0  0  0  0  0  0  0  0  0
    5.7866   -0.2603   -0.6040 H   0  0  0  0  0  0  0  0  0  0  0  0
    3.4401   -2.1575   -0.2509 H   0  0  0  0  0  0  0  0  0  0  0  0
    3.1121   -0.9793   -2.0349 H   0  0  0  0  0  0  0  0  0  0  0  0
    4.8114   -3.8838   -1.2249 H   0  0  0  0  0  0  0  0  0  0  0  0
    6.0659   -2.8518   -2.6665 H   0  0  0  0  0  0  0  0  0  0  0  0
    4.9819   -3.5177    0.9474 H   0  0  0  0  0  0  0  0  0  0  0  0
    6.4195   -5.3481    0.0934 H   0  0  0  0  0  0  0  0  0  0  0  0
    7.1001   -4.7401    1.5871 H   0  0  0  0  0  0  0  0  0  0  0  0
    7.8331   -4.2877    0.0413 H   0  0  0  0  0  0  0  0  0  0  0  0
    5.6116   -0.6577    5.1238 H   0  0  0  0  0  0  0  0  0  0  0  0
    5.3761    0.3458    3.7134 H   0  0  0  0  0  0  0  0  0  0  0  0
    4.1953    0.7426    6.6921 H   0  0  0  0  0  0  0  0  0  0  0  0
    2.5438    1.1668    6.2166 H   0  0  0  0  0  0  0  0  0  0  0  0
    3.9187    1.8812    5.3894 H   0  0  0  0  0  0  0  0  0  0  0  0
    1.9596    0.5952    4.0088 H   0  0  0  0  0  0  0  0  0  0  0  0
    4.5091   -1.7349    6.8386 H   0  0  0  0  0  0  0  0  0  0  0  0
    3.1742   -2.8419    7.0409 H   0  0  0  0  0  0  0  0  0  0  0  0
    2.9482   -1.1582    7.4122 H   0  0  0  0  0  0  0  0  0  0  0  0
  1  2  1  0
  1 43  1  0
  1 44  1  0
  1 45  1  0
  2  3  2  0
  2  4  1  0
  4  5  1  0
  5 41  1  0
  5  6  1  0
  5 46  1  6
  6  7  1  0
  6 47  1  0
  6 48  1  0
  7 23  1  0
  7  8  1  0
  7 49  1  6
  8 20  1  0
  8  9  1  1
  8 10  1  0
  9 50  1  0
  9 51  1  0
  9 52  1  0
 10 11  1  0
 10 53  1  0
 10 54  1  0
 11 12  1  0
 11 17  1  0
 11 55  1  1
 12 16  2  0
 12 13  1  0
 13 14  2  0
 13 56  1  0
 14 15  1  0
 14 57  1  0
 15 16  1  0
 16 58  1  0
 17 18  1  0
 18 19  2  0
 18 20  1  0
 20 21  1  0
 20 59  1  6
 21 22  1  0
 21 60  1  0
 21 61  1  0
 22 23  1  0
 22 62  1  0
 22 63  1  0
 23 24  1  6
 23 25  1  0
 24 64  1  0
 25 41  1  0
 25 26  1  0
 25 65  1  1
 26 27  1  0
 26 37  1  0
 26 66  1  6
 27 28  1  0
 28 36  1  0
 28 29  1  0
 28 67  1  1
 29 30  1  0
 29 68  1  0
 29 69  1  0
 30 31  1  0
 30 32  1  0
 30 70  1  1
 31 71  1  0
 32 33  1  0
 32 34  1  0
 32 72  1  6
 33 73  1  0
 34 35  1  0
 34 36  1  0
 34 74  1  1
 35 75  1  0
 35 76  1  0
 35 77  1  0
 37 38  1  0
 37 78  1  0
 37 79  1  0
 38 39  1  0
 38 40  1  6
 38 41  1  0
 39 80  1  0
 39 81  1  0
 39 82  1  0
 40 83  1  0
 41 42  1  1
 42 84  1  0
 42 85  1  0
 42 86  1  0
M  END
>  <i_m_ct_stereo_status>  (208) 
1

>  <s_m_source_file>  (208) 
/var/tmp/pbs.5076255.sched01/tmph8v5ro6p/78zitxkb1g.sdf

>  <i_m_source_file_index>  (208) 
14

>  <i_lp_mmshare_version>  (208) 
48012

>  <i_f3d_flags>  (208) 
0

>  <s_epik_input>  (208) 
W0NIM11bQ0BASF0oTzEpW0NASF0oW09IXSlbQ0BIXShbT0hdKVtDSDJdW0NASF0xT1tDQEhdMltDSDJdW0NAQF0oW0NIM10pKFtPSF0pW0NAQF0oW0NIM10pKFtDQEBIXShbQ0gyXTMpT0MoPU8pW0NIM10pW0NASF0yW0NAXShbT0hdKShbQ0BIXTNbQ0BAXTQ1W0NIM10pW0NIMl1bQ0gyXVtDQEhdNUMoPU8pT1tDQEBIXShbQ0gyXTQpYzZbY0hdW2NIXW9bY0hdNg==

>  <s_epik_cmdline>  (208) 
J2VwaWtfcHl0aG9uJywgJy1waHQnLCAnMi4wJywgJy1waCcsICc3LjAnLCAnLXRuJywgJzgnLCAnLW1hJywgJzIwMCcsICctaW1hZScsICc8aW5maWxlLm1hZT4nLCAnLW9tYWUnLCAnPG91dGZpbGUubWFlPic=

>  <r_lp_tautomer_probability>  (208) 
1

>  <r_epik_Ionization_Penalty>  (208) 
2.94913e-07

>  <r_epik_Ionization_Penalty_Charging>  (208) 
0

>  <r_epik_Ionization_Penalty_Neutral>  (208) 
2.94913e-07

>  <r_epik_State_Penalty>  (208) 
-0

>  <r_epik_Charging_Adjusted_Penalty>  (208) 
0

>  <i_epik_Tot_Q>  (208) 
0

>  <i_epik_Tot_abs_Q>  (208) 
0

>  <s_epik_Chemistry_Notes>  (208) 
This compound has an ester and may undergo hydrolysis at high or low pH. This compound contains an acetal/aminal-like group ( X-CH(R)-Y where X, Y are N, S, or O) that may be acid/base labile, releasing an aldehyde.

>  <s_lp_Force_Field>  (208) 
OPLS3e

>  <r_lp_Energy>  (208) 
63.2935

>  <b_lp_Chiralities_Consistent>  (208) 
1

>  <s_lp_Variant>  (208) 
69:0-1

>  <s_i_glide_gridfile>  (208) 
pfpi4k_grid

>  <i_i_glide_lignum>  (208) 
14

>  <i_i_glide_rotatable_bonds>  (208) 
9

>  <r_i_docking_score>  (208) 
-3.75601

>  <r_i_glide_ligand_efficiency>  (208) 
-0.0894288

>  <r_i_glide_ligand_efficiency_sa>  (208) 
-0.310857

>  <r_i_glide_ligand_efficiency_ln>  (208) 
-0.792797

>  <r_i_glide_gscore>  (208) 
-3.75601

>  <r_i_glide_lipo>  (208) 
-0.5616

>  <r_i_glide_hbond>  (208) 
-0.139941

>  <r_i_glide_metal>  (208) 
-0

>  <r_i_glide_rewards>  (208) 
-0.67525

>  <r_i_glide_evdw>  (208) 
-40.1104

>  <r_i_glide_ecoul>  (208) 
-3.09342

>  <r_i_glide_erotb>  (208) 
0.128101

>  <r_i_glide_esite>  (208) 
-0.0377888

>  <r_i_glide_emodel>  (208) 
-55.2621

>  <r_i_glide_energy>  (208) 
-43.2038

>  <r_i_glide_einternal>  (208) 
7.17358

>  <r_i_glide_intrahb_reward>  (208) 
-0.5

>  <i_i_glide_confnum>  (208) 
2

>  <i_i_glide_posenum>  (208) 
9

>  <r_i_glide_eff_state_penalty>  (208) 
0

>  <ligand_id>  (208) 
69

>  <original_smiles>  (208) 
CC(=O)OC1CC2C3(C)CC(c4ccoc4)OC(=O)C3CCC2(O)C2C(OC3CC(O)C(O)C(C)O3)CC(C)(O)C12C

>  <smiles>  (208) 
[H]OC1([H])C([H])([H])C([H])(OC2([H])C([H])([H])C(O[H])(C([H])([H])[H])C3(C([H])([H])[H])C([H])(OC(=O)C([H])([H])[H])C([H])([H])C4([H])C(O[H])(C([H])([H])C([H])([H])C5([H])C(=O)OC([H])(c6c([H])oc([H])c6[H])C([H])([H])C54C([H])([H])[H])C23[H])OC([H])(C([H])([H])[H])C1([H])O[H]

$$$$
69:0:2
     RDKit          3D

 86 91  0  0  1  0  0  0  0  0999 V2000
    3.7103   -2.3375   -2.3597 C   0  0  0  0  0  0  0  0  0  0  0  0
    3.0144   -2.9692   -1.1645 C   0  0  0  0  0  0  0  0  0  0  0  0
    2.0570   -3.7441   -1.3151 O   0  0  0  0  0  0  0  0  0  0  0  0
    3.5709   -2.6281    0.0176 O   0  0  0  0  0  0  0  0  0  0  0  0
    3.1313   -3.2269    1.2367 C   0  0  2  0  0  0  0  0  0  0  0  0
    2.7014   -2.1223    2.2237 C   0  0  0  0  0  0  0  0  0  0  0  0
    2.2188   -2.6365    3.6166 C   0  0  2  0  0  0  0  0  0  0  0  0
    2.6857   -1.7341    4.8352 C   0  0  1  0  0  0  0  0  0  0  0  0
    4.2386   -1.5599    4.9366 C   0  0  0  0  0  0  0  0  0  0  0  0
    2.0510   -0.3188    4.6803 C   0  0  0  0  0  0  0  0  0  0  0  0
    1.6053    0.3652    6.0080 C   0  0  1  0  0  0  0  0  0  0  0  0
    0.1074    0.4120    6.1617 C   0  0  0  0  0  0  0  0  0  0  0  0
   -0.8505   -0.3718    5.4585 C   0  0  0  0  0  0  0  0  0  0  0  0
   -2.0595    0.0386    5.9063 C   0  0  0  0  0  0  0  0  0  0  0  0
   -1.9498    0.9883    6.8717 O   0  0  0  0  0  0  0  0  0  0  0  0
   -0.6156    1.2191    6.9945 C   0  0  0  0  0  0  0  0  0  0  0  0
    2.2351   -0.1471    7.1803 O   0  0  0  0  0  0  0  0  0  0  0  0
    2.4185   -1.4673    7.3818 C   0  0  0  0  0  0  0  0  0  0  0  0
    2.7875   -1.9604    8.4447 O   0  0  0  0  0  0  0  0  0  0  0  0
    2.1349   -2.3402    6.1493 C   0  0  2  0  0  0  0  0  0  0  0  0
    2.6166   -3.7741    6.3472 C   0  0  0  0  0  0  0  0  0  0  0  0
    2.1019   -4.6592    5.2257 C   0  0  0  0  0  0  0  0  0  0  0  0
    2.4220   -4.1841    3.7913 C   0  0  1  0  0  0  0  0  0  0  0  0
    1.4029   -4.8193    3.0447 O   0  0  0  0  0  0  0  0  0  0  0  0
    3.7881   -4.7083    3.2424 C   0  0  1  0  0  0  0  0  0  0  0  0
    4.0466   -6.2527    3.2282 C   0  0  1  0  0  0  0  0  0  0  0  0
    2.8783   -7.0516    3.0100 O   0  0  0  0  0  0  0  0  0  0  0  0
    3.0356   -8.4073    3.3271 C   0  0  2  0  0  0  0  0  0  0  0  0
    1.9958   -9.2393    2.5464 C   0  0  0  0  0  0  0  0  0  0  0  0
    0.5878   -8.9157    3.0656 C   0  0  1  0  0  0  0  0  0  0  0  0
   -0.3970   -9.7268    2.4600 O   0  0  0  0  0  0  0  0  0  0  0  0
    0.4948   -9.1018    4.5839 C   0  0  1  0  0  0  0  0  0  0  0  0
    0.6345  -10.4449    4.9813 O   0  0  0  0  0  0  0  0  0  0  0  0
    1.6129   -8.2969    5.2468 C   0  0  1  0  0  0  0  0  0  0  0  0
    1.6686   -8.4022    6.7824 C   0  0  0  0  0  0  0  0  0  0  0  0
    2.8910   -8.6489    4.6916 O   0  0  0  0  0  0  0  0  0  0  0  0
    4.9904   -6.4545    2.0331 C   0  0  0  0  0  0  0  0  0  0  0  0
    4.5194   -5.4214    1.0112 C   0  0  1  0  0  0  0  0  0  0  0  0
    5.5174   -5.2788   -0.1361 C   0  0  0  0  0  0  0  0  0  0  0  0
    3.3433   -5.9484    0.4322 O   0  0  0  0  0  0  0  0  0  0  0  0
    4.2258   -4.1443    1.8485 C   0  0  1  0  0  0  0  0  0  0  0  0
    5.5443   -3.3402    2.0173 C   0  0  0  0  0  0  0  0  0  0  0  0
    4.7478   -2.6745   -2.4170 H   0  0  0  0  0  0  0  0  0  0  0  0
    3.6973   -1.2506   -2.2660 H   0  0  0  0  0  0  0  0  0  0  0  0
    3.2107   -2.6126   -3.2900 H   0  0  0  0  0  0  0  0  0  0  0  0
    2.2413   -3.8251    1.0473 H   0  0  0  0  0  0  0  0  0  0  0  0
    3.4925   -1.3811    2.3193 H   0  0  0  0  0  0  0  0  0  0  0  0
    1.8854   -1.5702    1.7554 H   0  0  0  0  0  0  0  0  0  0  0  0
    1.1326   -2.5282    3.6001 H   0  0  0  0  0  0  0  0  0  0  0  0
    4.5341   -0.9903    5.8159 H   0  0  0  0  0  0  0  0  0  0  0  0
    4.6630   -1.0096    4.0983 H   0  0  0  0  0  0  0  0  0  0  0  0
    4.7788   -2.4996    5.0117 H   0  0  0  0  0  0  0  0  0  0  0  0
    2.8070    0.3313    4.2455 H   0  0  0  0  0  0  0  0  0  0  0  0
    1.2560   -0.3114    3.9279 H   0  0  0  0  0  0  0  0  0  0  0  0
    1.8977    1.4131    5.9500 H   0  0  0  0  0  0  0  0  0  0  0  0
   -0.7219   -1.1375    4.7084 H   0  0  0  0  0  0  0  0  0  0  0  0
   -3.0400   -0.2680    5.6453 H   0  0  0  0  0  0  0  0  0  0  0  0
   -0.3641    1.9758    7.7212 H   0  0  0  0  0  0  0  0  0  0  0  0
    1.0524   -2.3702    6.0644 H   0  0  0  0  0  0  0  0  0  0  0  0
    3.7028   -3.8489    6.3767 H   0  0  0  0  0  0  0  0  0  0  0  0
    2.2594   -4.1800    7.2958 H   0  0  0  0  0  0  0  0  0  0  0  0
    2.5417   -5.6293    5.4097 H   0  0  0  0  0  0  0  0  0  0  0  0
    1.0117   -4.7434    5.3487 H   0  0  0  0  0  0  0  0  0  0  0  0
    1.6361   -5.7382    3.0143 H   0  0  0  0  0  0  0  0  0  0  0  0
    4.5256   -4.3390    3.9508 H   0  0  0  0  0  0  0  0  0  0  0  0
    4.5270   -6.5548    4.1585 H   0  0  0  0  0  0  0  0  0  0  0  0
    4.0259   -8.7786    3.0690 H   0  0  0  0  0  0  0  0  0  0  0  0
    2.1034   -9.0247    1.4806 H   0  0  0  0  0  0  0  0  0  0  0  0
    2.2324  -10.2898    2.7001 H   0  0  0  0  0  0  0  0  0  0  0  0
    0.3635   -7.8770    2.8000 H   0  0  0  0  0  0  0  0  0  0  0  0
   -0.2084   -9.8098    1.5332 H   0  0  0  0  0  0  0  0  0  0  0  0
   -0.4557   -8.7106    4.9366 H   0  0  0  0  0  0  0  0  0  0  0  0
    1.4871  -10.7391    4.7187 H   0  0  0  0  0  0  0  0  0  0  0  0
    1.3639   -7.2815    4.9734 H   0  0  0  0  0  0  0  0  0  0  0  0
    0.7027   -8.1323    7.1930 H   0  0  0  0  0  0  0  0  0  0  0  0
    2.4103   -7.7239    7.2014 H   0  0  0  0  0  0  0  0  0  0  0  0
    1.9089   -9.4088    7.1217 H   0  0  0  0  0  0  0  0  0  0  0  0
    6.0098   -6.2243    2.3474 H   0  0  0  0  0  0  0  0  0  0  0  0
    5.0154   -7.4640    1.6170 H   0  0  0  0  0  0  0  0  0  0  0  0
    6.5319   -5.0440    0.1952 H   0  0  0  0  0  0  0  0  0  0  0  0
    5.2309   -4.5394   -0.8792 H   0  0  0  0  0  0  0  0  0  0  0  0
    5.5518   -6.2337   -0.6519 H   0  0  0  0  0  0  0  0  0  0  0  0
    3.2447   -5.5750   -0.4326 H   0  0  0  0  0  0  0  0  0  0  0  0
    6.3417   -3.9661    2.4149 H   0  0  0  0  0  0  0  0  0  0  0  0
    5.4361   -2.5046    2.6994 H   0  0  0  0  0  0  0  0  0  0  0  0
    5.8981   -2.9220    1.0745 H   0  0  0  0  0  0  0  0  0  0  0  0
  1  2  1  0
  1 43  1  0
  1 44  1  0
  1 45  1  0
  2  3  2  0
  2  4  1  0
  4  5  1  0
  5 41  1  0
  5  6  1  0
  5 46  1  6
  6  7  1  0
  6 47  1  0
  6 48  1  0
  7 23  1  0
  7  8  1  0
  7 49  1  6
  8 20  1  0
  8  9  1  1
  8 10  1  0
  9 50  1  0
  9 51  1  0
  9 52  1  0
 10 11  1  0
 10 53  1  0
 10 54  1  0
 11 12  1  0
 11 17  1  0
 11 55  1  6
 12 16  2  0
 12 13  1  0
 13 14  2  0
 13 56  1  0
 14 15  1  0
 14 57  1  0
 15 16  1  0
 16 58  1  0
 17 18  1  0
 18 19  2  0
 18 20  1  0
 20 21  1  0
 20 59  1  6
 21 22  1  0
 21 60  1  0
 21 61  1  0
 22 23  1  0
 22 62  1  0
 22 63  1  0
 23 24  1  6
 23 25  1  0
 24 64  1  0
 25 41  1  0
 25 26  1  0
 25 65  1  1
 26 27  1  0
 26 37  1  0
 26 66  1  1
 27 28  1  0
 28 36  1  0
 28 29  1  0
 28 67  1  6
 29 30  1  0
 29 68  1  0
 29 69  1  0
 30 31  1  0
 30 32  1  0
 30 70  1  1
 31 71  1  0
 32 33  1  0
 32 34  1  0
 32 72  1  1
 33 73  1  0
 34 35  1  0
 34 36  1  0
 34 74  1  1
 35 75  1  0
 35 76  1  0
 35 77  1  0
 37 38  1  0
 37 78  1  0
 37 79  1  0
 38 39  1  0
 38 40  1  6
 38 41  1  0
 39 80  1  0
 39 81  1  0
 39 82  1  0
 40 83  1  0
 41 42  1  1
 42 84  1  0
 42 85  1  0
 42 86  1  0
M  END
>  <i_m_ct_stereo_status>  (209) 
1

>  <s_m_source_file>  (209) 
/var/tmp/pbs.5076255.sched01/tmph8v5ro6p/78zitxkb1g.sdf

>  <i_m_source_file_index>  (209) 
14

>  <i_lp_mmshare_version>  (209) 
48012

>  <i_f3d_flags>  (209) 
0

>  <s_epik_input>  (209) 
W0NIM11bQ0BASF0oTzEpW0NASF0oW09IXSlbQ0BIXShbT0hdKVtDSDJdW0NASF0xT1tDQEhdMltDSDJdW0NAQF0oW0NIM10pKFtPSF0pW0NAQF0oW0NIM10pKFtDQEBIXShbQ0gyXTMpT0MoPU8pW0NIM10pW0NASF0yW0NAXShbT0hdKShbQ0BIXTNbQ0BAXTQ1W0NIM10pW0NIMl1bQ0gyXVtDQEhdNUMoPU8pT1tDQEBIXShbQ0gyXTQpYzZbY0hdW2NIXW9bY0hdNg==

>  <s_epik_cmdline>  (209) 
J2VwaWtfcHl0aG9uJywgJy1waHQnLCAnMi4wJywgJy1waCcsICc3LjAnLCAnLXRuJywgJzgnLCAnLW1hJywgJzIwMCcsICctaW1hZScsICc8aW5maWxlLm1hZT4nLCAnLW9tYWUnLCAnPG91dGZpbGUubWFlPic=

>  <r_lp_tautomer_probability>  (209) 
1

>  <r_epik_Ionization_Penalty>  (209) 
2.94913e-07

>  <r_epik_Ionization_Penalty_Charging>  (209) 
0

>  <r_epik_Ionization_Penalty_Neutral>  (209) 
2.94913e-07

>  <r_epik_State_Penalty>  (209) 
-0

>  <r_epik_Charging_Adjusted_Penalty>  (209) 
0

>  <i_epik_Tot_Q>  (209) 
0

>  <i_epik_Tot_abs_Q>  (209) 
0

>  <s_epik_Chemistry_Notes>  (209) 
This compound has an ester and may undergo hydrolysis at high or low pH. This compound contains an acetal/aminal-like group ( X-CH(R)-Y where X, Y are N, S, or O) that may be acid/base labile, releasing an aldehyde.

>  <s_lp_Force_Field>  (209) 
OPLS3e

>  <r_lp_Energy>  (209) 
63.2935

>  <b_lp_Chiralities_Consistent>  (209) 
1

>  <s_lp_Variant>  (209) 
69:0-1

>  <s_i_glide_gridfile>  (209) 
pfpi4k_grid

>  <i_i_glide_lignum>  (209) 
14

>  <i_i_glide_rotatable_bonds>  (209) 
9

>  <r_i_docking_score>  (209) 
-3.38154

>  <r_i_glide_ligand_efficiency>  (209) 
-0.080513

>  <r_i_glide_ligand_efficiency_sa>  (209) 
-0.279865

>  <r_i_glide_ligand_efficiency_ln>  (209) 
-0.713757

>  <r_i_glide_gscore>  (209) 
-3.38154

>  <r_i_glide_lipo>  (209) 
-0.205564

>  <r_i_glide_hbond>  (209) 
-0.16

>  <r_i_glide_metal>  (209) 
-0

>  <r_i_glide_rewards>  (209) 
-1

>  <r_i_glide_evdw>  (209) 
-30.4858

>  <r_i_glide_ecoul>  (209) 
-4.04042

>  <r_i_glide_erotb>  (209) 
0.128101

>  <r_i_glide_esite>  (209) 
-0.0137264

>  <r_i_glide_emodel>  (209) 
-54.1574

>  <r_i_glide_energy>  (209) 
-34.5263

>  <r_i_glide_einternal>  (209) 
2.31178

>  <r_i_glide_intrahb_reward>  (209) 
-1

>  <i_i_glide_confnum>  (209) 
2

>  <i_i_glide_posenum>  (209) 
6

>  <r_i_glide_eff_state_penalty>  (209) 
0

>  <ligand_id>  (209) 
69

>  <original_smiles>  (209) 
CC(=O)OC1CC2C3(C)CC(c4ccoc4)OC(=O)C3CCC2(O)C2C(OC3CC(O)C(O)C(C)O3)CC(C)(O)C12C

>  <smiles>  (209) 
[H]OC1([H])C([H])([H])C([H])(OC2([H])C([H])([H])C(O[H])(C([H])([H])[H])C3(C([H])([H])[H])C([H])(OC(=O)C([H])([H])[H])C([H])([H])C4([H])C(O[H])(C([H])([H])C([H])([H])C5([H])C(=O)OC([H])(c6c([H])oc([H])c6[H])C([H])([H])C54C([H])([H])[H])C23[H])OC([H])(C([H])([H])[H])C1([H])O[H]

$$$$
70:0:0
     RDKit          3D

 46 49  0  0  1  0  0  0  0  0999 V2000
    3.7847   -4.5886    2.2829 C   0  0  0  0  0  0  0  0  0  0  0  0
    3.7825   -3.1119    1.8361 C   0  0  0  0  0  0  0  0  0  0  0  0
    2.4293   -2.5210    2.2965 C   0  0  0  0  0  0  0  0  0  0  0  0
    4.9327   -2.3780    2.5538 C   0  0  0  0  0  0  0  0  0  0  0  0
    4.9981   -0.9040    2.1534 C   0  0  1  0  0  0  0  0  0  0  0  0
    6.1181   -0.3488    2.7979 O   0  0  0  0  0  0  0  0  0  0  0  0
    5.0594   -0.6897    0.6248 C   0  0  0  0  0  0  0  0  0  0  0  0
    4.0036   -1.4946   -0.1751 C   0  0  2  0  0  0  0  0  0  0  0  0
    3.9597   -2.9764    0.2884 C   0  0  1  0  0  0  0  0  0  0  0  0
    5.1995   -3.7022   -0.2704 C   0  0  0  0  0  0  0  0  0  0  0  0
    5.0925   -3.7306   -1.7847 C   0  0  0  0  0  0  0  0  0  0  0  0
    4.9289   -2.3495   -2.4433 C   0  0  1  0  0  0  0  0  0  0  0  0
    4.0630   -2.4538   -3.7296 C   0  0  2  0  0  0  0  0  0  0  0  0
    4.1511   -1.1470   -4.5384 C   0  0  0  0  0  0  0  0  0  0  0  0
    3.4911   -0.1264   -3.6398 C   0  0  0  0  0  0  0  0  0  0  0  0
    3.0220   -1.0046   -2.4781 C   0  0  1  0  0  0  0  0  0  0  0  0
    2.6637   -2.3129   -3.1638 C   0  0  0  0  0  0  0  0  0  0  0  0
    4.2097   -1.3163   -1.6469 N   0  0  1  0  0  0  0  0  0  0  0  0
    3.5053   -4.6810    3.3350 H   0  0  0  0  0  0  0  0  0  0  0  0
    4.7713   -5.0452    2.1880 H   0  0  0  0  0  0  0  0  0  0  0  0
    3.0773   -5.1836    1.6985 H   0  0  0  0  0  0  0  0  0  0  0  0
    2.3293   -1.4571    2.0903 H   0  0  0  0  0  0  0  0  0  0  0  0
    2.2847   -2.6481    3.3713 H   0  0  0  0  0  0  0  0  0  0  0  0
    1.5978   -3.0098    1.7940 H   0  0  0  0  0  0  0  0  0  0  0  0
    4.8189   -2.4576    3.6373 H   0  0  0  0  0  0  0  0  0  0  0  0
    5.8821   -2.8587    2.3175 H   0  0  0  0  0  0  0  0  0  0  0  0
    4.1409   -0.3735    2.5665 H   0  0  0  0  0  0  0  0  0  0  0  0
    6.8828   -0.4668    2.2533 H   0  0  0  0  0  0  0  0  0  0  0  0
    4.8898    0.3723    0.4673 H   0  0  0  0  0  0  0  0  0  0  0  0
    6.0597   -0.9133    0.2477 H   0  0  0  0  0  0  0  0  0  0  0  0
    3.0386   -1.0425    0.0336 H   0  0  0  0  0  0  0  0  0  0  0  0
    3.0865   -3.4461   -0.1642 H   0  0  0  0  0  0  0  0  0  0  0  0
    6.1281   -3.2113    0.0266 H   0  0  0  0  0  0  0  0  0  0  0  0
    5.2622   -4.7360    0.0768 H   0  0  0  0  0  0  0  0  0  0  0  0
    5.9789   -4.2006   -2.2099 H   0  0  0  0  0  0  0  0  0  0  0  0
    4.2542   -4.3688   -2.0497 H   0  0  0  0  0  0  0  0  0  0  0  0
    5.9247   -1.9826   -2.6732 H   0  0  0  0  0  0  0  0  0  0  0  0
    4.2425   -3.3534   -4.3206 H   0  0  0  0  0  0  0  0  0  0  0  0
    5.1691   -0.8799   -4.7259 H   0  0  0  0  0  0  0  0  0  0  0  0
    3.6155   -1.1733   -5.4898 H   0  0  0  0  0  0  0  0  0  0  0  0
    4.1757    0.6762   -3.3463 H   0  0  0  0  0  0  0  0  0  0  0  0
    2.6486    0.3290   -4.1606 H   0  0  0  0  0  0  0  0  0  0  0  0
    2.2127   -0.4884   -1.9904 H   0  0  0  0  0  0  0  0  0  0  0  0
    1.8986   -2.1974   -3.9373 H   0  0  0  0  0  0  0  0  0  0  0  0
    2.3687   -3.1028   -2.4711 H   0  0  0  0  0  0  0  0  0  0  0  0
    4.7576   -0.4710   -1.7104 H   0  0  0  0  0  0  0  0  0  0  0  0
  1  2  1  0
  1 19  1  0
  1 20  1  0
  1 21  1  0
  2  9  1  0
  2  3  1  0
  2  4  1  0
  3 22  1  0
  3 23  1  0
  3 24  1  0
  4  5  1  0
  4 25  1  0
  4 26  1  0
  5  6  1  0
  5  7  1  0
  5 27  1  1
  6 28  1  0
  7  8  1  0
  7 29  1  0
  7 30  1  0
  8 18  1  0
  8  9  1  0
  8 31  1  1
  9 10  1  0
  9 32  1  6
 10 11  1  0
 10 33  1  0
 10 34  1  0
 11 12  1  0
 11 35  1  0
 11 36  1  0
 12 18  1  0
 12 13  1  0
 12 37  1  6
 13 17  1  0
 13 14  1  0
 13 38  1  6
 14 15  1  0
 14 39  1  0
 14 40  1  0
 15 16  1  0
 15 41  1  0
 15 42  1  0
 16 17  1  0
 16 18  1  0
 16 43  1  1
 17 44  1  0
 17 45  1  0
 18 46  1  1
M  CHG  1  18   1
M  END
>  <i_m_ct_stereo_status>  (210) 
1

>  <s_m_source_file>  (210) 
/var/tmp/pbs.5076255.sched01/tmph8v5ro6p/78zitxkb1g.sdf

>  <i_m_source_file_index>  (210) 
15

>  <i_lp_mmshare_version>  (210) 
48012

>  <i_f3d_flags>  (210) 
0

>  <s_epik_input>  (210) 
W09IXVtDQEBIXShbQ0gyXTEpW0NIMl1DKFtDSDNdKShbQ0gzXSlbQ0BASF0oW0NAQEhdMTIpW0NIMl1bQ0gyXVtDQEhdM1tDQEBIXTRbQ0gyXVtDSDJdW0NASF0oTjIzKVtDSDJdNA==

>  <s_epik_cmdline>  (210) 
J2VwaWtfcHl0aG9uJywgJy1waHQnLCAnMi4wJywgJy1waCcsICc3LjAnLCAnLXRuJywgJzgnLCAnLW1hJywgJzIwMCcsICctaW1hZScsICc8aW5maWxlLm1hZT4nLCAnLW9tYWUnLCAnPG91dGZpbGUubWFlPic=

>  <r_lp_tautomer_probability>  (210) 
1

>  <r_epik_Ionization_Penalty>  (210) 
0.000116686

>  <r_epik_Ionization_Penalty_Charging>  (210) 
0.000116628

>  <r_epik_Ionization_Penalty_Neutral>  (210) 
5.80732e-08

>  <r_epik_State_Penalty>  (210) 
-0

>  <r_epik_Charging_Adjusted_Penalty>  (210) 
0.000116628

>  <i_epik_Tot_Q>  (210) 
1

>  <i_epik_Tot_abs_Q>  (210) 
1

>  <s_lp_Force_Field>  (210) 
OPLS3e

>  <r_lp_Energy>  (210) 
60.2317

>  <b_lp_Chiralities_Consistent>  (210) 
1

>  <s_lp_Variant>  (210) 
70:0-1

>  <s_i_glide_gridfile>  (210) 
pfpi4k_grid

>  <i_i_glide_lignum>  (210) 
15

>  <i_i_glide_rotatable_bonds>  (210) 
1

>  <r_i_docking_score>  (210) 
-4.25157

>  <r_i_glide_ligand_efficiency>  (210) 
-0.236198

>  <r_i_glide_ligand_efficiency_sa>  (210) 
-0.619014

>  <r_i_glide_ligand_efficiency_ln>  (210) 
-1.09284

>  <r_i_glide_gscore>  (210) 
-4.25157

>  <r_i_glide_lipo>  (210) 
-0.865581

>  <r_i_glide_hbond>  (210) 
-0.169536

>  <r_i_glide_metal>  (210) 
-0

>  <r_i_glide_rewards>  (210) 
-1.70182

>  <r_i_glide_evdw>  (210) 
-14.0627

>  <r_i_glide_ecoul>  (210) 
-5.09281

>  <r_i_glide_erotb>  (210) 
0

>  <r_i_glide_esite>  (210) 
-0.0475703

>  <r_i_glide_emodel>  (210) 
-21.9956

>  <r_i_glide_energy>  (210) 
-19.1555

>  <r_i_glide_einternal>  (210) 
0.370114

>  <r_i_glide_intrahb_reward>  (210) 
-0

>  <i_i_glide_confnum>  (210) 
2

>  <i_i_glide_posenum>  (210) 
40

>  <r_i_glide_eff_state_penalty>  (210) 
0

>  <ligand_id>  (210) 
70

>  <original_smiles>  (210) 
CC1(C)CC(O)CC2C1CCC1C3CCC(C3)N12

>  <smiles>  (210) 
[H]OC1([H])C([H])([H])C(C([H])([H])[H])(C([H])([H])[H])C2([H])C([H])([H])C([H])([H])C3([H])C4([H])C([H])([H])C([H])([H])C([H])(C4([H])[H])[N+]3([H])C2([H])C1([H])[H]

$$$$
70:0:1
     RDKit          3D

 46 49  0  0  1  0  0  0  0  0999 V2000
    3.5824   -4.4902    2.4266 C   0  0  0  0  0  0  0  0  0  0  0  0
    3.6410   -3.0265    1.9421 C   0  0  0  0  0  0  0  0  0  0  0  0
    2.2995   -2.3730    2.3581 C   0  0  0  0  0  0  0  0  0  0  0  0
    4.7992   -2.3113    2.6522 C   0  0  0  0  0  0  0  0  0  0  0  0
    4.9142   -0.8528    2.2070 C   0  0  1  0  0  0  0  0  0  0  0  0
    6.0712   -0.3262    2.8132 O   0  0  0  0  0  0  0  0  0  0  0  0
    5.0261   -0.6995    0.6718 C   0  0  0  0  0  0  0  0  0  0  0  0
    3.9550   -1.4845   -0.1220 C   0  0  2  0  0  0  0  0  0  0  0  0
    3.8446   -2.9410    0.3892 C   0  0  1  0  0  0  0  0  0  0  0  0
    5.0647   -3.7309   -0.1268 C   0  0  0  0  0  0  0  0  0  0  0  0
    4.9826   -3.7917   -1.6495 C   0  0  0  0  0  0  0  0  0  0  0  0
    4.8762   -2.4325   -2.3484 C   0  0  1  0  0  0  0  0  0  0  0  0
    4.0230   -2.5536   -3.6483 C   0  0  2  0  0  0  0  0  0  0  0  0
    4.1583   -1.2801   -4.4957 C   0  0  0  0  0  0  0  0  0  0  0  0
    3.5174   -0.2143   -3.6387 C   0  0  0  0  0  0  0  0  0  0  0  0
    3.0141   -1.0413   -2.4482 C   0  0  1  0  0  0  0  0  0  0  0  0
    2.6131   -2.3514   -3.1024 C   0  0  0  0  0  0  0  0  0  0  0  0
    4.1820   -1.3540   -1.6013 N   0  0  1  0  0  0  0  0  0  0  0  0
    3.2885   -4.5300    3.4750 H   0  0  0  0  0  0  0  0  0  0  0  0
    4.5534   -4.9788    2.3574 H   0  0  0  0  0  0  0  0  0  0  0  0
    2.8616   -5.0694    1.8511 H   0  0  0  0  0  0  0  0  0  0  0  0
    2.2487   -1.3122    2.1130 H   0  0  0  0  0  0  0  0  0  0  0  0
    2.1466   -2.4627    3.4351 H   0  0  0  0  0  0  0  0  0  0  0  0
    1.4531   -2.8421    1.8616 H   0  0  0  0  0  0  0  0  0  0  0  0
    4.6775   -2.3604    3.7333 H   0  0  0  0  0  0  0  0  0  0  0  0
    5.7373   -2.8159    2.4330 H   0  0  0  0  0  0  0  0  0  0  0  0
    4.0695   -0.2664    2.5815 H   0  0  0  0  0  0  0  0  0  0  0  0
    5.9827   -0.3863    3.7473 H   0  0  0  0  0  0  0  0  0  0  0  0
    4.8963    0.3637    0.4817 H   0  0  0  0  0  0  0  0  0  0  0  0
    6.0275   -0.9670    0.3253 H   0  0  0  0  0  0  0  0  0  0  0  0
    3.0165   -0.9837    0.0531 H   0  0  0  0  0  0  0  0  0  0  0  0
    2.9601   -3.3949   -0.0653 H   0  0  0  0  0  0  0  0  0  0  0  0
    6.0070   -3.2629    0.1630 H   0  0  0  0  0  0  0  0  0  0  0  0
    5.0794   -4.7603    0.2423 H   0  0  0  0  0  0  0  0  0  0  0  0
    5.8591   -4.2782   -2.0612 H   0  0  0  0  0  0  0  0  0  0  0  0
    4.1355   -4.4234   -1.9082 H   0  0  0  0  0  0  0  0  0  0  0  0
    5.8877   -2.1131   -2.5898 H   0  0  0  0  0  0  0  0  0  0  0  0
    4.1742   -3.4862   -4.2131 H   0  0  0  0  0  0  0  0  0  0  0  0
    5.1776   -1.0473   -4.7212 H   0  0  0  0  0  0  0  0  0  0  0  0
    3.6152   -1.3242   -5.4378 H   0  0  0  0  0  0  0  0  0  0  0  0
    4.2158    0.5809   -3.3553 H   0  0  0  0  0  0  0  0  0  0  0  0
    2.6889    0.2500   -4.1821 H   0  0  0  0  0  0  0  0  0  0  0  0
    2.2168   -0.4712   -2.0109 H   0  0  0  0  0  0  0  0  0  0  0  0
    1.8660   -2.2318   -3.8967 H   0  0  0  0  0  0  0  0  0  0  0  0
    2.2852   -3.1139   -2.3879 H   0  0  0  0  0  0  0  0  0  0  0  0
    4.7571   -0.5289   -1.6825 H   0  0  0  0  0  0  0  0  0  0  0  0
  1  2  1  0
  1 19  1  0
  1 20  1  0
  1 21  1  0
  2  9  1  0
  2  3  1  0
  2  4  1  0
  3 22  1  0
  3 23  1  0
  3 24  1  0
  4  5  1  0
  4 25  1  0
  4 26  1  0
  5  6  1  0
  5  7  1  0
  5 27  1  1
  6 28  1  0
  7  8  1  0
  7 29  1  0
  7 30  1  0
  8 18  1  0
  8  9  1  0
  8 31  1  6
  9 10  1  0
  9 32  1  6
 10 11  1  0
 10 33  1  0
 10 34  1  0
 11 12  1  0
 11 35  1  0
 11 36  1  0
 12 18  1  0
 12 13  1  0
 12 37  1  6
 13 17  1  0
 13 14  1  0
 13 38  1  6
 14 15  1  0
 14 39  1  0
 14 40  1  0
 15 16  1  0
 15 41  1  0
 15 42  1  0
 16 17  1  0
 16 18  1  0
 16 43  1  1
 17 44  1  0
 17 45  1  0
 18 46  1  1
M  CHG  1  18   1
M  END
>  <i_m_ct_stereo_status>  (211) 
1

>  <s_m_source_file>  (211) 
/var/tmp/pbs.5076255.sched01/tmph8v5ro6p/78zitxkb1g.sdf

>  <i_m_source_file_index>  (211) 
15

>  <i_lp_mmshare_version>  (211) 
48012

>  <i_f3d_flags>  (211) 
0

>  <s_epik_input>  (211) 
W09IXVtDQEBIXShbQ0gyXTEpW0NIMl1DKFtDSDNdKShbQ0gzXSlbQ0BASF0oW0NAQEhdMTIpW0NIMl1bQ0gyXVtDQEhdM1tDQEBIXTRbQ0gyXVtDSDJdW0NASF0oTjIzKVtDSDJdNA==

>  <s_epik_cmdline>  (211) 
J2VwaWtfcHl0aG9uJywgJy1waHQnLCAnMi4wJywgJy1waCcsICc3LjAnLCAnLXRuJywgJzgnLCAnLW1hJywgJzIwMCcsICctaW1hZScsICc8aW5maWxlLm1hZT4nLCAnLW9tYWUnLCAnPG91dGZpbGUubWFlPic=

>  <r_lp_tautomer_probability>  (211) 
1

>  <r_epik_Ionization_Penalty>  (211) 
0.000116686

>  <r_epik_Ionization_Penalty_Charging>  (211) 
0.000116628

>  <r_epik_Ionization_Penalty_Neutral>  (211) 
5.80732e-08

>  <r_epik_State_Penalty>  (211) 
-0

>  <r_epik_Charging_Adjusted_Penalty>  (211) 
0.000116628

>  <i_epik_Tot_Q>  (211) 
1

>  <i_epik_Tot_abs_Q>  (211) 
1

>  <s_lp_Force_Field>  (211) 
OPLS3e

>  <r_lp_Energy>  (211) 
60.2317

>  <b_lp_Chiralities_Consistent>  (211) 
1

>  <s_lp_Variant>  (211) 
70:0-1

>  <s_i_glide_gridfile>  (211) 
pfpi4k_grid

>  <i_i_glide_lignum>  (211) 
15

>  <i_i_glide_rotatable_bonds>  (211) 
1

>  <r_i_docking_score>  (211) 
-3.91509

>  <r_i_glide_ligand_efficiency>  (211) 
-0.217505

>  <r_i_glide_ligand_efficiency_sa>  (211) 
-0.570025

>  <r_i_glide_ligand_efficiency_ln>  (211) 
-1.00635

>  <r_i_glide_gscore>  (211) 
-3.91509

>  <r_i_glide_lipo>  (211) 
-0.870654

>  <r_i_glide_hbond>  (211) 
-0.0973318

>  <r_i_glide_metal>  (211) 
-0

>  <r_i_glide_rewards>  (211) 
-1.70182

>  <r_i_glide_evdw>  (211) 
-15.0624

>  <r_i_glide_ecoul>  (211) 
-2.95833

>  <r_i_glide_erotb>  (211) 
0

>  <r_i_glide_esite>  (211) 
-0.0484131

>  <r_i_glide_emodel>  (211) 
-20.7819

>  <r_i_glide_energy>  (211) 
-18.0208

>  <r_i_glide_einternal>  (211) 
0.326977

>  <r_i_glide_intrahb_reward>  (211) 
-0

>  <i_i_glide_confnum>  (211) 
2

>  <i_i_glide_posenum>  (211) 
3

>  <r_i_glide_eff_state_penalty>  (211) 
0

>  <ligand_id>  (211) 
70

>  <original_smiles>  (211) 
CC1(C)CC(O)CC2C1CCC1C3CCC(C3)N12

>  <smiles>  (211) 
[H]OC1([H])C([H])([H])C(C([H])([H])[H])(C([H])([H])[H])C2([H])C([H])([H])C([H])([H])C3([H])C4([H])C([H])([H])C([H])([H])C([H])(C4([H])[H])[N+]3([H])C2([H])C1([H])[H]

$$$$
70:0:2
     RDKit          3D

 46 49  0  0  1  0  0  0  0  0999 V2000
    4.4564   -5.5918    1.7995 C   0  0  0  0  0  0  0  0  0  0  0  0
    3.8993   -4.1850    1.5023 C   0  0  0  0  0  0  0  0  0  0  0  0
    2.3843   -4.2460    1.7949 C   0  0  0  0  0  0  0  0  0  0  0  0
    4.5696   -3.1644    2.4433 C   0  0  0  0  0  0  0  0  0  0  0  0
    4.0829   -1.7263    2.1965 C   0  0  1  0  0  0  0  0  0  0  0  0
    4.8643   -0.8465    2.9742 O   0  0  0  0  0  0  0  0  0  0  0  0
    4.2004   -1.2986    0.7156 C   0  0  0  0  0  0  0  0  0  0  0  0
    3.6478   -2.3393   -0.2984 C   0  0  2  0  0  0  0  0  0  0  0  0
    4.1648   -3.7705    0.0179 C   0  0  1  0  0  0  0  0  0  0  0  0
    5.6403   -3.8621   -0.4138 C   0  0  0  0  0  0  0  0  0  0  0  0
    5.7102   -3.7094   -1.9256 C   0  0  0  0  0  0  0  0  0  0  0  0
    5.0632   -2.4263   -2.4626 C   0  0  1  0  0  0  0  0  0  0  0  0
    4.4680   -2.6496   -3.8658 C   0  0  2  0  0  0  0  0  0  0  0  0
    4.1717   -1.2753   -4.5071 C   0  0  0  0  0  0  0  0  0  0  0  0
    3.0437   -0.7331   -3.6499 C   0  0  0  0  0  0  0  0  0  0  0  0
    2.7992   -1.8997   -2.6897 C   0  0  1  0  0  0  0  0  0  0  0  0
    3.0702   -3.1077   -3.5408 C   0  0  0  0  0  0  0  0  0  0  0  0
    3.9061   -1.8790   -1.7000 N   0  0  1  0  0  0  0  0  0  0  0  0
    4.1320   -5.9373    2.7805 H   0  0  0  0  0  0  0  0  0  0  0  0
    5.5452   -5.6090    1.8134 H   0  0  0  0  0  0  0  0  0  0  0  0
    4.1139   -6.3207    1.0650 H   0  0  0  0  0  0  0  0  0  0  0  0
    1.8923   -3.2812    1.6807 H   0  0  0  0  0  0  0  0  0  0  0  0
    2.1912   -4.5698    2.8184 H   0  0  0  0  0  0  0  0  0  0  0  0
    1.8786   -4.9407    1.1239 H   0  0  0  0  0  0  0  0  0  0  0  0
    4.3948   -3.4435    3.4837 H   0  0  0  0  0  0  0  0  0  0  0  0
    5.6510   -3.1967    2.3110 H   0  0  0  0  0  0  0  0  0  0  0  0
    3.0500   -1.6244    2.5337 H   0  0  0  0  0  0  0  0  0  0  0  0
    4.7148   -1.0435    3.8876 H   0  0  0  0  0  0  0  0  0  0  0  0
    3.6454   -0.3678    0.5944 H   0  0  0  0  0  0  0  0  0  0  0  0
    5.2404   -1.0689    0.4805 H   0  0  0  0  0  0  0  0  0  0  0  0
    2.5683   -2.3364   -0.2017 H   0  0  0  0  0  0  0  0  0  0  0  0
    3.6103   -4.4691   -0.6102 H   0  0  0  0  0  0  0  0  0  0  0  0
    6.2542   -3.0980    0.0640 H   0  0  0  0  0  0  0  0  0  0  0  0
    6.0771   -4.8277   -0.1625 H   0  0  0  0  0  0  0  0  0  0  0  0
    6.7522   -3.7178   -2.2490 H   0  0  0  0  0  0  0  0  0  0  0  0
    5.2439   -4.5868   -2.3795 H   0  0  0  0  0  0  0  0  0  0  0  0
    5.8148   -1.6401   -2.4872 H   0  0  0  0  0  0  0  0  0  0  0  0
    5.0169   -3.3661   -4.4870 H   0  0  0  0  0  0  0  0  0  0  0  0
    5.0106   -0.6116   -4.5496 H   0  0  0  0  0  0  0  0  0  0  0  0
    3.7640   -1.3654   -5.5090 H   0  0  0  0  0  0  0  0  0  0  0  0
    3.2844    0.2153   -3.1672 H   0  0  0  0  0  0  0  0  0  0  0  0
    2.2081   -0.5769   -4.3374 H   0  0  0  0  0  0  0  0  0  0  0  0
    1.7909   -1.9225   -2.3226 H   0  0  0  0  0  0  0  0  0  0  0  0
    2.3966   -3.1988   -4.3972 H   0  0  0  0  0  0  0  0  0  0  0  0
    3.0588   -4.0173   -2.9561 H   0  0  0  0  0  0  0  0  0  0  0  0
    4.0927   -0.8939   -1.5963 H   0  0  0  0  0  0  0  0  0  0  0  0
  1  2  1  0
  1 19  1  0
  1 20  1  0
  1 21  1  0
  2  9  1  0
  2  3  1  0
  2  4  1  0
  3 22  1  0
  3 23  1  0
  3 24  1  0
  4  5  1  0
  4 25  1  0
  4 26  1  0
  5  6  1  0
  5  7  1  0
  5 27  1  1
  6 28  1  0
  7  8  1  0
  7 29  1  0
  7 30  1  0
  8 18  1  0
  8  9  1  0
  8 31  1  6
  9 10  1  0
  9 32  1  6
 10 11  1  0
 10 33  1  0
 10 34  1  0
 11 12  1  0
 11 35  1  0
 11 36  1  0
 12 18  1  0
 12 13  1  0
 12 37  1  6
 13 17  1  0
 13 14  1  0
 13 38  1  6
 14 15  1  0
 14 39  1  0
 14 40  1  0
 15 16  1  0
 15 41  1  0
 15 42  1  0
 16 17  1  0
 16 18  1  0
 16 43  1  1
 17 44  1  0
 17 45  1  0
 18 46  1  1
M  CHG  1  18   1
M  END
>  <i_m_ct_stereo_status>  (212) 
1

>  <s_m_source_file>  (212) 
/var/tmp/pbs.5076255.sched01/tmph8v5ro6p/78zitxkb1g.sdf

>  <i_m_source_file_index>  (212) 
15

>  <i_lp_mmshare_version>  (212) 
48012

>  <i_f3d_flags>  (212) 
0

>  <s_epik_input>  (212) 
W09IXVtDQEBIXShbQ0gyXTEpW0NIMl1DKFtDSDNdKShbQ0gzXSlbQ0BASF0oW0NAQEhdMTIpW0NIMl1bQ0gyXVtDQEhdM1tDQEBIXTRbQ0gyXVtDSDJdW0NASF0oTjIzKVtDSDJdNA==

>  <s_epik_cmdline>  (212) 
J2VwaWtfcHl0aG9uJywgJy1waHQnLCAnMi4wJywgJy1waCcsICc3LjAnLCAnLXRuJywgJzgnLCAnLW1hJywgJzIwMCcsICctaW1hZScsICc8aW5maWxlLm1hZT4nLCAnLW9tYWUnLCAnPG91dGZpbGUubWFlPic=

>  <r_lp_tautomer_probability>  (212) 
1

>  <r_epik_Ionization_Penalty>  (212) 
0.000116686

>  <r_epik_Ionization_Penalty_Charging>  (212) 
0.000116628

>  <r_epik_Ionization_Penalty_Neutral>  (212) 
5.80732e-08

>  <r_epik_State_Penalty>  (212) 
-0

>  <r_epik_Charging_Adjusted_Penalty>  (212) 
0.000116628

>  <i_epik_Tot_Q>  (212) 
1

>  <i_epik_Tot_abs_Q>  (212) 
1

>  <s_lp_Force_Field>  (212) 
OPLS3e

>  <r_lp_Energy>  (212) 
60.2317

>  <b_lp_Chiralities_Consistent>  (212) 
1

>  <s_lp_Variant>  (212) 
70:0-1

>  <s_i_glide_gridfile>  (212) 
pfpi4k_grid

>  <i_i_glide_lignum>  (212) 
15

>  <i_i_glide_rotatable_bonds>  (212) 
1

>  <r_i_docking_score>  (212) 
-3.81494

>  <r_i_glide_ligand_efficiency>  (212) 
-0.211941

>  <r_i_glide_ligand_efficiency_sa>  (212) 
-0.555443

>  <r_i_glide_ligand_efficiency_ln>  (212) 
-0.98061

>  <r_i_glide_gscore>  (212) 
-3.81494

>  <r_i_glide_lipo>  (212) 
-0.859266

>  <r_i_glide_hbond>  (212) 
0

>  <r_i_glide_metal>  (212) 
-0

>  <r_i_glide_rewards>  (212) 
-1.70182

>  <r_i_glide_evdw>  (212) 
-15.1135

>  <r_i_glide_ecoul>  (212) 
-3.01537

>  <r_i_glide_erotb>  (212) 
0

>  <r_i_glide_esite>  (212) 
-0.0458738

>  <r_i_glide_emodel>  (212) 
-20.8855

>  <r_i_glide_energy>  (212) 
-18.1288

>  <r_i_glide_einternal>  (212) 
0.346598

>  <r_i_glide_intrahb_reward>  (212) 
-0

>  <i_i_glide_confnum>  (212) 
2

>  <i_i_glide_posenum>  (212) 
1

>  <r_i_glide_eff_state_penalty>  (212) 
0

>  <ligand_id>  (212) 
70

>  <original_smiles>  (212) 
CC1(C)CC(O)CC2C1CCC1C3CCC(C3)N12

>  <smiles>  (212) 
[H]OC1([H])C([H])([H])C(C([H])([H])[H])(C([H])([H])[H])C2([H])C([H])([H])C([H])([H])C3([H])C4([H])C([H])([H])C([H])([H])C([H])(C4([H])[H])[N+]3([H])C2([H])C1([H])[H]

$$$$
73:0:0
     RDKit          3D

 29 30  0  0  1  0  0  0  0  0999 V2000
    3.1559   -0.0624   -4.7466 C   0  0  0  0  0  0  0  0  0  0  0  0
    4.0969   -1.0129   -4.0139 C   0  0  2  0  0  0  0  0  0  0  0  0
    3.5203   -2.4333   -3.8875 C   0  0  0  0  0  0  0  0  0  0  0  0
    4.4471   -3.2755   -3.0034 C   0  0  0  0  0  0  0  0  0  0  0  0
    4.6998   -2.6129   -1.6207 C   0  0  1  0  0  0  0  0  0  0  0  0
    3.4335   -2.4521   -0.7392 C   0  0  0  0  0  0  0  0  0  0  0  0
    2.8888   -3.7833   -0.2498 C   0  0  0  0  0  0  0  0  0  0  0  0
    4.0062   -4.6032    0.4041 C   0  0  0  0  0  0  0  0  0  0  0  0
    3.7088   -5.4653    1.2167 O   0  0  0  0  0  0  0  0  0  0  0  0
    5.2867   -4.3598    0.0607 N   0  0  0  0  0  0  0  0  0  0  0  0
    5.7301   -3.4596   -0.8358 C   0  0  0  0  0  0  0  0  0  0  0  0
    6.9284   -3.2995   -1.0383 O   0  0  0  0  0  0  0  0  0  0  0  0
    5.2956   -1.3404   -1.8964 O   0  0  0  0  0  0  0  0  0  0  0  0
    4.4587   -0.4491   -2.6357 C   0  0  0  0  0  0  0  0  0  0  0  0
    2.2317    0.0666   -4.1957 H   0  0  0  0  0  0  0  0  0  0  0  0
    2.9168   -0.4466   -5.7305 H   0  0  0  0  0  0  0  0  0  0  0  0
    3.5806    0.9276   -4.8853 H   0  0  0  0  0  0  0  0  0  0  0  0
    5.0133   -1.0747   -4.5999 H   0  0  0  0  0  0  0  0  0  0  0  0
    2.5117   -2.4002   -3.4676 H   0  0  0  0  0  0  0  0  0  0  0  0
    3.4030   -2.9156   -4.8617 H   0  0  0  0  0  0  0  0  0  0  0  0
    4.0126   -4.2559   -2.9093 H   0  0  0  0  0  0  0  0  0  0  0  0
    5.4031   -3.4427   -3.5066 H   0  0  0  0  0  0  0  0  0  0  0  0
    3.6219   -1.7788    0.1024 H   0  0  0  0  0  0  0  0  0  0  0  0
    2.6218   -1.9978   -1.2890 H   0  0  0  0  0  0  0  0  0  0  0  0
    2.0778   -3.6066    0.4525 H   0  0  0  0  0  0  0  0  0  0  0  0
    2.4652   -4.3422   -1.0839 H   0  0  0  0  0  0  0  0  0  0  0  0
    5.9926   -4.9241    0.5284 H   0  0  0  0  0  0  0  0  0  0  0  0
    4.9603    0.5158   -2.7355 H   0  0  0  0  0  0  0  0  0  0  0  0
    3.5452   -0.2596   -2.0887 H   0  0  0  0  0  0  0  0  0  0  0  0
  1  2  1  0
  1 15  1  0
  1 16  1  0
  1 17  1  0
  2 14  1  0
  2  3  1  0
  2 18  1  6
  3  4  1  0
  3 19  1  0
  3 20  1  0
  4  5  1  0
  4 21  1  0
  4 22  1  0
  5 11  1  0
  5  6  1  0
  5 13  1  6
  6  7  1  0
  6 23  1  0
  6 24  1  0
  7  8  1  0
  7 25  1  0
  7 26  1  0
  8  9  2  0
  8 10  1  0
 10 11  1  0
 10 27  1  0
 11 12  2  0
 13 14  1  0
 14 28  1  0
 14 29  1  0
M  END
>  <i_m_ct_stereo_status>  (213) 
1

>  <s_m_source_file>  (213) 
/var/tmp/pbs.5076255.sched01/tmph8v5ro6p/78zitxkb1g.sdf

>  <i_m_source_file_index>  (213) 
18

>  <i_lp_mmshare_version>  (213) 
48012

>  <i_f3d_flags>  (213) 
0

>  <s_epik_input>  (213) 
TzFbQ0gyXVtDQEhdKFtDSDNdKVtDSDJdW0NIMl1bQ0BdMTJbQ0gyXVtDSDJdQyg9TylbTkhdQzI9Tw==

>  <s_epik_cmdline>  (213) 
J2VwaWtfcHl0aG9uJywgJy1waHQnLCAnMi4wJywgJy1waCcsICc3LjAnLCAnLXRuJywgJzgnLCAnLW1hJywgJzIwMCcsICctaW1hZScsICc8aW5maWxlLm1hZT4nLCAnLW9tYWUnLCAnPG91dGZpbGUubWFlPic=

>  <r_lp_tautomer_probability>  (213) 
1

>  <r_epik_Ionization_Penalty>  (213) 
5.64554e-05

>  <r_epik_Ionization_Penalty_Charging>  (213) 
0

>  <r_epik_Ionization_Penalty_Neutral>  (213) 
5.64554e-05

>  <r_epik_State_Penalty>  (213) 
-0

>  <r_epik_Charging_Adjusted_Penalty>  (213) 
0

>  <i_epik_Tot_Q>  (213) 
0

>  <i_epik_Tot_abs_Q>  (213) 
0

>  <s_lp_Force_Field>  (213) 
OPLS3e

>  <r_lp_Energy>  (213) 
21.6192

>  <b_lp_Chiralities_Consistent>  (213) 
1

>  <s_lp_Variant>  (213) 
73:0-1

>  <s_i_glide_gridfile>  (213) 
pfpi4k_grid

>  <i_i_glide_lignum>  (213) 
18

>  <i_i_glide_rotatable_bonds>  (213) 
0

>  <r_i_docking_score>  (213) 
-4.26039

>  <r_i_glide_ligand_efficiency>  (213) 
-0.304313

>  <r_i_glide_ligand_efficiency_sa>  (213) 
-0.733438

>  <r_i_glide_ligand_efficiency_ln>  (213) 
-1.17074

>  <r_i_glide_gscore>  (213) 
-4.26039

>  <r_i_glide_lipo>  (213) 
-0.559301

>  <r_i_glide_hbond>  (213) 
0

>  <r_i_glide_metal>  (213) 
-0

>  <r_i_glide_rewards>  (213) 
-2.20816

>  <r_i_glide_evdw>  (213) 
-21.4853

>  <r_i_glide_ecoul>  (213) 
-2.79108

>  <r_i_glide_erotb>  (213) 
0

>  <r_i_glide_esite>  (213) 
0

>  <r_i_glide_emodel>  (213) 
-30.7175

>  <r_i_glide_energy>  (213) 
-24.2763

>  <r_i_glide_einternal>  (213) 
0

>  <r_i_glide_intrahb_reward>  (213) 
-0

>  <i_i_glide_confnum>  (213) 
2

>  <i_i_glide_posenum>  (213) 
1

>  <r_i_glide_eff_state_penalty>  (213) 
0

>  <ligand_id>  (213) 
73

>  <original_smiles>  (213) 
CC1CCC2(CCC(=O)NC2=O)OC1

>  <smiles>  (213) 
[H]N1C(=O)C([H])([H])C([H])([H])C2(OC([H])([H])C([H])(C([H])([H])[H])C([H])([H])C2([H])[H])C1=O

$$$$
73:0:1
     RDKit          3D

 29 30  0  0  1  0  0  0  0  0999 V2000
    3.0695   -0.1372   -4.9260 C   0  0  0  0  0  0  0  0  0  0  0  0
    4.0836   -0.9249   -4.1173 C   0  0  2  0  0  0  0  0  0  0  0  0
    3.7175   -2.4074   -3.9384 C   0  0  0  0  0  0  0  0  0  0  0  0
    4.7188   -3.0989   -3.0032 C   0  0  0  0  0  0  0  0  0  0  0  0
    4.7752   -2.3756   -1.6410 C   0  0  1  0  0  0  0  0  0  0  0  0
    3.4154   -2.4843   -0.8916 C   0  0  0  0  0  0  0  0  0  0  0  0
    3.5032   -1.9305    0.5344 C   0  0  0  0  0  0  0  0  0  0  0  0
    4.6587   -2.6006    1.2794 C   0  0  0  0  0  0  0  0  0  0  0  0
    4.6099   -2.7236    2.4978 O   0  0  0  0  0  0  0  0  0  0  0  0
    5.7232   -3.0358    0.5784 N   0  0  0  0  0  0  0  0  0  0  0  0
    5.8998   -2.9418   -0.7455 C   0  0  0  0  0  0  0  0  0  0  0  0
    6.9813   -3.2860   -1.2427 O   0  0  0  0  0  0  0  0  0  0  0  0
    5.1257   -1.0093   -1.9150 O   0  0  0  0  0  0  0  0  0  0  0  0
    4.2332   -0.2791   -2.7520 C   0  0  0  0  0  0  0  0  0  0  0  0
    2.0902   -0.1768   -4.4658 H   0  0  0  0  0  0  0  0  0  0  0  0
    3.0168   -0.5546   -5.9164 H   0  0  0  0  0  0  0  0  0  0  0  0
    3.3008    0.9228   -5.0287 H   0  0  0  0  0  0  0  0  0  0  0  0
    5.0053   -0.8625   -4.6859 H   0  0  0  0  0  0  0  0  0  0  0  0
    2.7015   -2.5140   -3.5491 H   0  0  0  0  0  0  0  0  0  0  0  0
    3.7027   -2.9314   -4.8893 H   0  0  0  0  0  0  0  0  0  0  0  0
    4.4731   -4.1563   -2.9089 H   0  0  0  0  0  0  0  0  0  0  0  0
    5.6989   -3.0793   -3.4739 H   0  0  0  0  0  0  0  0  0  0  0  0
    2.6298   -1.9414   -1.4026 H   0  0  0  0  0  0  0  0  0  0  0  0
    3.1138   -3.5444   -0.8488 H   0  0  0  0  0  0  0  0  0  0  0  0
    3.6724   -0.8523    0.5186 H   0  0  0  0  0  0  0  0  0  0  0  0
    2.5604   -2.0922    1.0588 H   0  0  0  0  0  0  0  0  0  0  0  0
    6.4525   -3.4931    1.0941 H   0  0  0  0  0  0  0  0  0  0  0  0
    4.6201    0.7429   -2.8833 H   0  0  0  0  0  0  0  0  0  0  0  0
    3.2296   -0.2518   -2.3277 H   0  0  0  0  0  0  0  0  0  0  0  0
  1  2  1  0
  1 15  1  0
  1 16  1  0
  1 17  1  0
  2 14  1  0
  2  3  1  0
  2 18  1  6
  3  4  1  0
  3 19  1  0
  3 20  1  0
  4  5  1  0
  4 21  1  0
  4 22  1  0
  5 11  1  0
  5  6  1  0
  5 13  1  6
  6  7  1  0
  6 23  1  0
  6 24  1  0
  7  8  1  0
  7 25  1  0
  7 26  1  0
  8  9  2  0
  8 10  1  0
 10 11  1  0
 10 27  1  0
 11 12  2  0
 13 14  1  0
 14 28  1  0
 14 29  1  0
M  END
>  <i_m_ct_stereo_status>  (214) 
1

>  <s_m_source_file>  (214) 
/var/tmp/pbs.5076255.sched01/tmph8v5ro6p/78zitxkb1g.sdf

>  <i_m_source_file_index>  (214) 
18

>  <i_lp_mmshare_version>  (214) 
48012

>  <i_f3d_flags>  (214) 
0

>  <s_epik_input>  (214) 
TzFbQ0gyXVtDQEhdKFtDSDNdKVtDSDJdW0NIMl1bQ0BdMTJbQ0gyXVtDSDJdQyg9TylbTkhdQzI9Tw==

>  <s_epik_cmdline>  (214) 
J2VwaWtfcHl0aG9uJywgJy1waHQnLCAnMi4wJywgJy1waCcsICc3LjAnLCAnLXRuJywgJzgnLCAnLW1hJywgJzIwMCcsICctaW1hZScsICc8aW5maWxlLm1hZT4nLCAnLW9tYWUnLCAnPG91dGZpbGUubWFlPic=

>  <r_lp_tautomer_probability>  (214) 
1

>  <r_epik_Ionization_Penalty>  (214) 
5.64554e-05

>  <r_epik_Ionization_Penalty_Charging>  (214) 
0

>  <r_epik_Ionization_Penalty_Neutral>  (214) 
5.64554e-05

>  <r_epik_State_Penalty>  (214) 
-0

>  <r_epik_Charging_Adjusted_Penalty>  (214) 
0

>  <i_epik_Tot_Q>  (214) 
0

>  <i_epik_Tot_abs_Q>  (214) 
0

>  <s_lp_Force_Field>  (214) 
OPLS3e

>  <r_lp_Energy>  (214) 
21.6192

>  <b_lp_Chiralities_Consistent>  (214) 
1

>  <s_lp_Variant>  (214) 
73:0-1

>  <s_i_glide_gridfile>  (214) 
pfpi4k_grid

>  <i_i_glide_lignum>  (214) 
18

>  <i_i_glide_rotatable_bonds>  (214) 
0

>  <r_i_docking_score>  (214) 
-4.03327

>  <r_i_glide_ligand_efficiency>  (214) 
-0.288091

>  <r_i_glide_ligand_efficiency_sa>  (214) 
-0.69434

>  <r_i_glide_ligand_efficiency_ln>  (214) 
-1.10833

>  <r_i_glide_gscore>  (214) 
-4.03327

>  <r_i_glide_lipo>  (214) 
-0.634523

>  <r_i_glide_hbond>  (214) 
0

>  <r_i_glide_metal>  (214) 
-0

>  <r_i_glide_rewards>  (214) 
-2.12075

>  <r_i_glide_evdw>  (214) 
-20.7268

>  <r_i_glide_ecoul>  (214) 
-1.61106

>  <r_i_glide_erotb>  (214) 
0

>  <r_i_glide_esite>  (214) 
0

>  <r_i_glide_emodel>  (214) 
-28.2349

>  <r_i_glide_energy>  (214) 
-22.3379

>  <r_i_glide_einternal>  (214) 
0

>  <r_i_glide_intrahb_reward>  (214) 
-0

>  <i_i_glide_confnum>  (214) 
1

>  <i_i_glide_posenum>  (214) 
15

>  <r_i_glide_eff_state_penalty>  (214) 
0

>  <ligand_id>  (214) 
73

>  <original_smiles>  (214) 
CC1CCC2(CCC(=O)NC2=O)OC1

>  <smiles>  (214) 
[H]N1C(=O)C([H])([H])C([H])([H])C2(OC([H])([H])C([H])(C([H])([H])[H])C([H])([H])C2([H])[H])C1=O

$$$$
73:0:2
     RDKit          3D

 29 30  0  0  1  0  0  0  0  0999 V2000
    3.6843   -1.8039   -3.8933 C   0  0  0  0  0  0  0  0  0  0  0  0
    4.0929   -2.8091   -2.8113 C   0  0  2  0  0  0  0  0  0  0  0  0
    3.0979   -2.7504   -1.6371 C   0  0  0  0  0  0  0  0  0  0  0  0
    3.5907   -3.6125   -0.4860 C   0  0  0  0  0  0  0  0  0  0  0  0
    5.0474   -3.2335   -0.0634 C   0  0  1  0  0  0  0  0  0  0  0  0
    5.1774   -1.7912    0.4969 C   0  0  0  0  0  0  0  0  0  0  0  0
    4.5094   -1.6665    1.8661 C   0  0  0  0  0  0  0  0  0  0  0  0
    4.9749   -2.7782    2.8082 C   0  0  0  0  0  0  0  0  0  0  0  0
    4.9126   -2.5984    4.0227 O   0  0  0  0  0  0  0  0  0  0  0  0
    5.4307   -3.9381    2.2984 N   0  0  0  0  0  0  0  0  0  0  0  0
    5.5233   -4.2477    0.9967 C   0  0  0  0  0  0  0  0  0  0  0  0
    5.9694   -5.3487    0.6514 O   0  0  0  0  0  0  0  0  0  0  0  0
    5.8793   -3.3692   -1.2233 O   0  0  0  0  0  0  0  0  0  0  0  0
    5.5374   -2.5481   -2.3381 C   0  0  0  0  0  0  0  0  0  0  0  0
    3.7335   -0.7817   -3.5300 H   0  0  0  0  0  0  0  0  0  0  0  0
    2.6679   -1.9741   -4.2407 H   0  0  0  0  0  0  0  0  0  0  0  0
    4.3461   -1.8672   -4.7455 H   0  0  0  0  0  0  0  0  0  0  0  0
    4.0527   -3.8187   -3.2166 H   0  0  0  0  0  0  0  0  0  0  0  0
    2.9796   -1.7230   -1.3025 H   0  0  0  0  0  0  0  0  0  0  0  0
    2.1018   -3.0805   -1.9543 H   0  0  0  0  0  0  0  0  0  0  0  0
    2.8881   -3.5492    0.3650 H   0  0  0  0  0  0  0  0  0  0  0  0
    3.5687   -4.6686   -0.7720 H   0  0  0  0  0  0  0  0  0  0  0  0
    6.2352   -1.5277    0.5782 H   0  0  0  0  0  0  0  0  0  0  0  0
    4.7266   -1.0296   -0.1360 H   0  0  0  0  0  0  0  0  0  0  0  0
    4.7167   -0.6815    2.2847 H   0  0  0  0  0  0  0  0  0  0  0  0
    3.4274   -1.7279    1.7487 H   0  0  0  0  0  0  0  0  0  0  0  0
    5.7254   -4.6421    2.9585 H   0  0  0  0  0  0  0  0  0  0  0  0
    6.2334   -2.7752   -3.1493 H   0  0  0  0  0  0  0  0  0  0  0  0
    5.6967   -1.4961   -2.1099 H   0  0  0  0  0  0  0  0  0  0  0  0
  1  2  1  0
  1 15  1  0
  1 16  1  0
  1 17  1  0
  2 14  1  0
  2  3  1  0
  2 18  1  6
  3  4  1  0
  3 19  1  0
  3 20  1  0
  4  5  1  0
  4 21  1  0
  4 22  1  0
  5 11  1  0
  5  6  1  0
  5 13  1  6
  6  7  1  0
  6 23  1  0
  6 24  1  0
  7  8  1  0
  7 25  1  0
  7 26  1  0
  8  9  2  0
  8 10  1  0
 10 11  1  0
 10 27  1  0
 11 12  2  0
 13 14  1  0
 14 28  1  0
 14 29  1  0
M  END
>  <i_m_ct_stereo_status>  (215) 
1

>  <s_m_source_file>  (215) 
/var/tmp/pbs.5076255.sched01/tmph8v5ro6p/78zitxkb1g.sdf

>  <i_m_source_file_index>  (215) 
18

>  <i_lp_mmshare_version>  (215) 
48012

>  <i_f3d_flags>  (215) 
0

>  <s_epik_input>  (215) 
TzFbQ0gyXVtDQEhdKFtDSDNdKVtDSDJdW0NIMl1bQ0BdMTJbQ0gyXVtDSDJdQyg9TylbTkhdQzI9Tw==

>  <s_epik_cmdline>  (215) 
J2VwaWtfcHl0aG9uJywgJy1waHQnLCAnMi4wJywgJy1waCcsICc3LjAnLCAnLXRuJywgJzgnLCAnLW1hJywgJzIwMCcsICctaW1hZScsICc8aW5maWxlLm1hZT4nLCAnLW9tYWUnLCAnPG91dGZpbGUubWFlPic=

>  <r_lp_tautomer_probability>  (215) 
1

>  <r_epik_Ionization_Penalty>  (215) 
5.64554e-05

>  <r_epik_Ionization_Penalty_Charging>  (215) 
0

>  <r_epik_Ionization_Penalty_Neutral>  (215) 
5.64554e-05

>  <r_epik_State_Penalty>  (215) 
-0

>  <r_epik_Charging_Adjusted_Penalty>  (215) 
0

>  <i_epik_Tot_Q>  (215) 
0

>  <i_epik_Tot_abs_Q>  (215) 
0

>  <s_lp_Force_Field>  (215) 
OPLS3e

>  <r_lp_Energy>  (215) 
21.6192

>  <b_lp_Chiralities_Consistent>  (215) 
1

>  <s_lp_Variant>  (215) 
73:0-1

>  <s_i_glide_gridfile>  (215) 
pfpi4k_grid

>  <i_i_glide_lignum>  (215) 
18

>  <i_i_glide_rotatable_bonds>  (215) 
0

>  <r_i_docking_score>  (215) 
-3.62401

>  <r_i_glide_ligand_efficiency>  (215) 
-0.258858

>  <r_i_glide_ligand_efficiency_sa>  (215) 
-0.623883

>  <r_i_glide_ligand_efficiency_ln>  (215) 
-0.995864

>  <r_i_glide_gscore>  (215) 
-3.62401

>  <r_i_glide_lipo>  (215) 
-0.32026

>  <r_i_glide_hbond>  (215) 
0

>  <r_i_glide_metal>  (215) 
-0

>  <r_i_glide_rewards>  (215) 
-2.21344

>  <r_i_glide_evdw>  (215) 
-19.6668

>  <r_i_glide_ecoul>  (215) 
-0.713068

>  <r_i_glide_erotb>  (215) 
0

>  <r_i_glide_esite>  (215) 
0

>  <r_i_glide_emodel>  (215) 
-25.8727

>  <r_i_glide_energy>  (215) 
-20.3799

>  <r_i_glide_einternal>  (215) 
0

>  <r_i_glide_intrahb_reward>  (215) 
-0

>  <i_i_glide_confnum>  (215) 
2

>  <i_i_glide_posenum>  (215) 
17

>  <r_i_glide_eff_state_penalty>  (215) 
0

>  <ligand_id>  (215) 
73

>  <original_smiles>  (215) 
CC1CCC2(CCC(=O)NC2=O)OC1

>  <smiles>  (215) 
[H]N1C(=O)C([H])([H])C([H])([H])C2(OC([H])([H])C([H])(C([H])([H])[H])C([H])([H])C2([H])[H])C1=O

$$$$
75:1:0
     RDKit          3D

 51 55  0  0  1  0  0  0  0  0999 V2000
    0.1375   -5.1354    5.2033 C   0  0  0  0  0  0  0  0  0  0  0  0
    1.6678   -5.2505    5.4548 C   0  0  0  0  0  0  0  0  0  0  0  0
    2.6203   -4.8698    4.2838 C   0  0  2  0  0  0  0  0  0  0  0  0
    2.2322   -3.6045    3.4973 C   0  0  0  0  0  0  0  0  0  0  0  0
    3.1306   -3.6200    2.2915 C   0  0  2  0  0  0  0  0  0  0  0  0
    4.2624   -2.5902    2.3612 C   0  0  0  0  0  0  0  0  0  0  0  0
    3.2963   -2.5609    1.2058 C   0  0  2  0  0  0  0  0  0  0  0  0
    2.2557   -1.6024    1.3565 O   0  0  0  0  0  0  0  0  0  0  0  0
    3.8744   -2.7229   -0.1919 C   0  0  0  0  0  0  0  0  0  0  0  0
    3.8078   -1.5623   -0.9926 C   0  0  0  0  0  0  0  0  0  0  0  0
    4.3104   -1.5038   -2.3155 C   0  0  0  0  0  0  0  0  0  0  0  0
    4.1957   -0.3751   -3.0563 O   0  0  0  0  0  0  0  0  0  0  0  0
    4.9190   -2.6507   -2.8424 C   0  0  0  0  0  0  0  0  0  0  0  0
    5.0071   -3.8101   -2.0826 C   0  0  0  0  0  0  0  0  0  0  0  0
    4.5129   -3.8979   -0.7582 C   0  0  0  0  0  0  0  0  0  0  0  0
    4.7158   -5.2928   -0.1299 C   0  0  0  0  0  0  0  0  0  0  0  0
    4.5622   -5.4812    1.3866 C   0  0  2  0  0  0  0  0  0  0  0  0
    4.7674   -6.8006    1.9529 N   0  0  0  0  0  0  0  0  0  0  0  0
    6.1376   -7.2827    1.9073 C   0  0  0  0  0  0  0  0  0  0  0  0
    4.2742   -6.6581    3.3176 C   0  0  0  0  0  0  0  0  0  0  0  0
    2.9260   -5.9284    3.1802 C   0  0  1  0  0  0  0  0  0  0  0  0
    1.8194   -6.9998    2.9890 C   0  0  0  0  0  0  0  0  0  0  0  0
    3.1894   -5.0765    1.9077 C   0  0  1  0  0  0  0  0  0  0  0  0
    2.1602   -5.3065    0.9496 O   0  0  0  0  0  0  0  0  0  0  0  0
   -0.4178   -5.3625    6.1214 H   0  0  0  0  0  0  0  0  0  0  0  0
   -0.2350   -5.7992    4.4303 H   0  0  0  0  0  0  0  0  0  0  0  0
   -0.1357   -4.1057    4.9325 H   0  0  0  0  0  0  0  0  0  0  0  0
    1.9130   -4.6052    6.2944 H   0  0  0  0  0  0  0  0  0  0  0  0
    1.9238   -6.2452    5.8189 H   0  0  0  0  0  0  0  0  0  0  0  0
    3.5830   -4.6475    4.7596 H   0  0  0  0  0  0  0  0  0  0  0  0
    1.2064   -3.6445    3.1295 H   0  0  0  0  0  0  0  0  0  0  0  0
    2.3665   -2.6985    4.0952 H   0  0  0  0  0  0  0  0  0  0  0  0
    4.1722   -1.7753    3.0750 H   0  0  0  0  0  0  0  0  0  0  0  0
    5.2764   -2.8764    2.1100 H   0  0  0  0  0  0  0  0  0  0  0  0
    1.8233   -1.4483    0.5095 H   0  0  0  0  0  0  0  0  0  0  0  0
    3.3435   -0.6794   -0.5920 H   0  0  0  0  0  0  0  0  0  0  0  0
    3.6156    0.2785   -2.6869 H   0  0  0  0  0  0  0  0  0  0  0  0
    5.3092   -2.6304   -3.8510 H   0  0  0  0  0  0  0  0  0  0  0  0
    5.4534   -4.6785   -2.5408 H   0  0  0  0  0  0  0  0  0  0  0  0
    4.0679   -6.0138   -0.6375 H   0  0  0  0  0  0  0  0  0  0  0  0
    5.7282   -5.6206   -0.3726 H   0  0  0  0  0  0  0  0  0  0  0  0
    5.3133   -4.8618    1.8685 H   0  0  0  0  0  0  0  0  0  0  0  0
    6.2180   -8.2645    2.3755 H   0  0  0  0  0  0  0  0  0  0  0  0
    6.8092   -6.6026    2.4244 H   0  0  0  0  0  0  0  0  0  0  0  0
    6.4795   -7.3894    0.8787 H   0  0  0  0  0  0  0  0  0  0  0  0
    4.1658   -7.6400    3.7796 H   0  0  0  0  0  0  0  0  0  0  0  0
    4.9752   -6.0680    3.9132 H   0  0  0  0  0  0  0  0  0  0  0  0
    2.0974   -7.7151    2.2043 H   0  0  0  0  0  0  0  0  0  0  0  0
    0.8764   -6.5543    2.6950 H   0  0  0  0  0  0  0  0  0  0  0  0
    1.6674   -7.5865    3.8966 H   0  0  0  0  0  0  0  0  0  0  0  0
    2.4557   -4.9053    0.1505 H   0  0  0  0  0  0  0  0  0  0  0  0
  1  2  1  0
  1 25  1  0
  1 26  1  0
  1 27  1  0
  2  3  1  0
  2 28  1  0
  2 29  1  0
  3 21  1  0
  3  4  1  0
  3 30  1  1
  5  4  1  1
  4 31  1  0
  4 32  1  0
  5  7  1  0
  5 23  1  0
  5  6  1  0
  6  7  1  0
  6 33  1  0
  6 34  1  0
  7  8  1  6
  7  9  1  0
  8 35  1  0
  9 15  2  0
  9 10  1  0
 10 11  2  0
 10 36  1  0
 11 12  1  0
 11 13  1  0
 12 37  1  0
 13 14  2  0
 13 38  1  0
 14 15  1  0
 14 39  1  0
 15 16  1  0
 16 17  1  0
 16 40  1  0
 16 41  1  0
 17 23  1  0
 17 18  1  0
 17 42  1  1
 18 19  1  0
 18 20  1  0
 19 43  1  0
 19 44  1  0
 19 45  1  0
 20 21  1  0
 20 46  1  0
 20 47  1  0
 21 22  1  6
 21 23  1  0
 22 48  1  0
 22 49  1  0
 22 50  1  0
 23 24  1  6
 24 51  1  0
M  END
>  <i_m_ct_stereo_status>  (216) 
1

>  <s_m_source_file>  (216) 
/var/tmp/pbs.5076255.sched01/tmph8v5ro6p/78zitxkb1g.sdf

>  <i_m_source_file_index>  (216) 
21

>  <i_lp_mmshare_version>  (216) 
48012

>  <i_f3d_flags>  (216) 
0

>  <s_epik_input>  (216) 
W0NIM11bQ0gyXVtDQEhdKFtDSDJdMSlbQ0BdKFtDSDNdKShbQ0gyXU4yW0NIM10pW0NAXTMoW09IXSlbQ0BASF0yW0NIMl1jKGM0W0NAQF0oW0NAQF0xMzUpKFtDSDJdNSlbT0hdKVtjSF1bY0hdYyhbY0hdNClbT0hd

>  <s_epik_cmdline>  (216) 
J2VwaWtfcHl0aG9uJywgJy1waHQnLCAnMi4wJywgJy1waCcsICc3LjAnLCAnLXRuJywgJzgnLCAnLW1hJywgJzIwMCcsICctaW1hZScsICc8aW5maWxlLm1hZT4nLCAnLW9tYWUnLCAnPG91dGZpbGUubWFlPic=

>  <r_lp_tautomer_probability>  (216) 
1

>  <r_epik_Ionization_Penalty>  (216) 
2.47733

>  <r_epik_Ionization_Penalty_Charging>  (216) 
0

>  <r_epik_Ionization_Penalty_Neutral>  (216) 
2.47733

>  <r_epik_State_Penalty>  (216) 
2.64031

>  <r_epik_Charging_Adjusted_Penalty>  (216) 
2.64031

>  <i_epik_Tot_Q>  (216) 
0

>  <i_epik_Tot_abs_Q>  (216) 
0

>  <s_lp_Force_Field>  (216) 
OPLS3e

>  <r_lp_Energy>  (216) 
49.9689

>  <b_lp_Chiralities_Consistent>  (216) 
1

>  <s_lp_Variant>  (216) 
75:0-2

>  <s_i_glide_gridfile>  (216) 
pfpi4k_grid

>  <i_i_glide_lignum>  (216) 
21

>  <i_i_glide_rotatable_bonds>  (216) 
4

>  <r_i_docking_score>  (216) 
-3.41141

>  <r_i_glide_ligand_efficiency>  (216) 
-0.142142

>  <r_i_glide_ligand_efficiency_sa>  (216) 
-0.410009

>  <r_i_glide_ligand_efficiency_ln>  (216) 
-0.816507

>  <r_i_glide_gscore>  (216) 
-3.41141

>  <r_i_glide_lipo>  (216) 
-0.257397

>  <r_i_glide_hbond>  (216) 
-0.182298

>  <r_i_glide_metal>  (216) 
-0

>  <r_i_glide_rewards>  (216) 
-1.16295

>  <r_i_glide_evdw>  (216) 
-19.6259

>  <r_i_glide_ecoul>  (216) 
-5.51646

>  <r_i_glide_erotb>  (216) 
0

>  <r_i_glide_esite>  (216) 
0

>  <r_i_glide_emodel>  (216) 
-28.1014

>  <r_i_glide_energy>  (216) 
-25.1423

>  <r_i_glide_einternal>  (216) 
5.33465

>  <r_i_glide_intrahb_reward>  (216) 
-0

>  <i_i_glide_confnum>  (216) 
2

>  <i_i_glide_posenum>  (216) 
22

>  <r_i_glide_eff_state_penalty>  (216) 
0

>  <ligand_id>  (216) 
75

>  <original_smiles>  (216) 
CCC1CC23CC2(O)c2cc(O)ccc2CC2N(C)CC1(C)C23O

>  <smiles>  (216) 
[H]Oc1c([H])c([H])c2c(c1[H])C1(O[H])C([H])([H])C13C([H])([H])C([H])(C([H])([H])C([H])([H])[H])C1(C([H])([H])[H])C([H])([H])N(C([H])([H])[H])C([H])(C2([H])[H])C31O[H]

$$$$
75:1:1
     RDKit          3D

 51 55  0  0  1  0  0  0  0  0999 V2000
   -0.4278   -5.5333    6.5263 C   0  0  0  0  0  0  0  0  0  0  0  0
   -0.1797   -6.3824    5.2699 C   0  0  0  0  0  0  0  0  0  0  0  0
    1.1370   -6.0448    4.5309 C   0  0  2  0  0  0  0  0  0  0  0  0
    1.2499   -4.5789    4.0862 C   0  0  0  0  0  0  0  0  0  0  0  0
    2.4319   -4.5504    3.1322 C   0  0  2  0  0  0  0  0  0  0  0  0
    3.7176   -4.0021    3.7614 C   0  0  0  0  0  0  0  0  0  0  0  0
    3.1734   -3.3972    2.5109 C   0  0  2  0  0  0  0  0  0  0  0  0
    2.3840   -2.2470    2.7438 O   0  0  0  0  0  0  0  0  0  0  0  0
    4.0416   -3.3984    1.2577 C   0  0  0  0  0  0  0  0  0  0  0  0
    4.4724   -2.1145    0.8514 C   0  0  0  0  0  0  0  0  0  0  0  0
    5.3563   -1.9234   -0.2320 C   0  0  0  0  0  0  0  0  0  0  0  0
    5.7794   -0.6920   -0.5820 O   0  0  0  0  0  0  0  0  0  0  0  0
    5.8247   -3.0265   -0.9486 C   0  0  0  0  0  0  0  0  0  0  0  0
    5.4014   -4.3094   -0.5643 C   0  0  0  0  0  0  0  0  0  0  0  0
    4.5237   -4.5403    0.5200 C   0  0  0  0  0  0  0  0  0  0  0  0
    4.2270   -6.0371    0.7252 C   0  0  0  0  0  0  0  0  0  0  0  0
    3.5985   -6.5170    2.0435 C   0  0  2  0  0  0  0  0  0  0  0  0
    3.3168   -7.9356    2.1945 N   0  0  0  0  0  0  0  0  0  0  0  0
    4.4989   -8.7825    2.3033 C   0  0  0  0  0  0  0  0  0  0  0  0
    2.5032   -7.9737    3.4042 C   0  0  0  0  0  0  0  0  0  0  0  0
    1.4627   -6.8495    3.2414 C   0  0  1  0  0  0  0  0  0  0  0  0
    0.1941   -7.4217    2.5470 C   0  0  0  0  0  0  0  0  0  0  0  0
    2.2648   -5.8399    2.3693 C   0  0  1  0  0  0  0  0  0  0  0  0
    1.5597   -5.5308    1.1756 O   0  0  0  0  0  0  0  0  0  0  0  0
   -1.3414   -5.8392    7.0291 H   0  0  0  0  0  0  0  0  0  0  0  0
   -0.5366   -4.4802    6.2775 H   0  0  0  0  0  0  0  0  0  0  0  0
    0.3916   -5.6318    7.2408 H   0  0  0  0  0  0  0  0  0  0  0  0
   -0.1582   -7.4333    5.5590 H   0  0  0  0  0  0  0  0  0  0  0  0
   -1.0391   -6.2674    4.6120 H   0  0  0  0  0  0  0  0  0  0  0  0
    1.9471   -6.2093    5.2425 H   0  0  0  0  0  0  0  0  0  0  0  0
    0.3629   -4.2440    3.5539 H   0  0  0  0  0  0  0  0  0  0  0  0
    1.4153   -3.8998    4.9258 H   0  0  0  0  0  0  0  0  0  0  0  0
    3.6420   -3.3900    4.6640 H   0  0  0  0  0  0  0  0  0  0  0  0
    4.6815   -4.4970    3.6402 H   0  0  0  0  0  0  0  0  0  0  0  0
    2.9136   -1.4782    2.6184 H   0  0  0  0  0  0  0  0  0  0  0  0
    4.1654   -1.2235    1.3815 H   0  0  0  0  0  0  0  0  0  0  0  0
    5.2934    0.0146   -0.1656 H   0  0  0  0  0  0  0  0  0  0  0  0
    6.5037   -2.8982   -1.7821 H   0  0  0  0  0  0  0  0  0  0  0  0
    5.7761   -5.1577   -1.1125 H   0  0  0  0  0  0  0  0  0  0  0  0
    3.6086   -6.3543   -0.1137 H   0  0  0  0  0  0  0  0  0  0  0  0
    5.1674   -6.5743    0.5945 H   0  0  0  0  0  0  0  0  0  0  0  0
    4.3124   -6.2950    2.8314 H   0  0  0  0  0  0  0  0  0  0  0  0
    4.2121   -9.8261    2.4596 H   0  0  0  0  0  0  0  0  0  0  0  0
    5.1305   -8.4801    3.1380 H   0  0  0  0  0  0  0  0  0  0  0  0
    5.0940   -8.7474    1.3910 H   0  0  0  0  0  0  0  0  0  0  0  0
    2.0409   -8.9533    3.5391 H   0  0  0  0  0  0  0  0  0  0  0  0
    3.1245   -7.7766    4.2766 H   0  0  0  0  0  0  0  0  0  0  0  0
    0.4414   -7.8917    1.5934 H   0  0  0  0  0  0  0  0  0  0  0  0
   -0.5477   -6.6552    2.3434 H   0  0  0  0  0  0  0  0  0  0  0  0
   -0.2805   -8.1925    3.1555 H   0  0  0  0  0  0  0  0  0  0  0  0
    2.1474   -5.0152    0.6350 H   0  0  0  0  0  0  0  0  0  0  0  0
  1  2  1  0
  1 25  1  0
  1 26  1  0
  1 27  1  0
  2  3  1  0
  2 28  1  0
  2 29  1  0
  3 21  1  0
  3  4  1  0
  3 30  1  1
  5  4  1  1
  4 31  1  0
  4 32  1  0
  5  7  1  0
  5 23  1  0
  5  6  1  0
  6  7  1  0
  6 33  1  0
  6 34  1  0
  7  8  1  1
  7  9  1  0
  8 35  1  0
  9 15  2  0
  9 10  1  0
 10 11  2  0
 10 36  1  0
 11 12  1  0
 11 13  1  0
 12 37  1  0
 13 14  2  0
 13 38  1  0
 14 15  1  0
 14 39  1  0
 15 16  1  0
 16 17  1  0
 16 40  1  0
 16 41  1  0
 17 23  1  0
 17 18  1  0
 17 42  1  1
 18 19  1  0
 18 20  1  0
 19 43  1  0
 19 44  1  0
 19 45  1  0
 20 21  1  0
 20 46  1  0
 20 47  1  0
 21 22  1  6
 21 23  1  0
 22 48  1  0
 22 49  1  0
 22 50  1  0
 23 24  1  6
 24 51  1  0
M  END
>  <i_m_ct_stereo_status>  (217) 
1

>  <s_m_source_file>  (217) 
/var/tmp/pbs.5076255.sched01/tmph8v5ro6p/78zitxkb1g.sdf

>  <i_m_source_file_index>  (217) 
21

>  <i_lp_mmshare_version>  (217) 
48012

>  <i_f3d_flags>  (217) 
0

>  <s_epik_input>  (217) 
W0NIM11bQ0gyXVtDQEhdKFtDSDJdMSlbQ0BdKFtDSDNdKShbQ0gyXU4yW0NIM10pW0NAXTMoW09IXSlbQ0BASF0yW0NIMl1jKGM0W0NAQF0oW0NAQF0xMzUpKFtDSDJdNSlbT0hdKVtjSF1bY0hdYyhbY0hdNClbT0hd

>  <s_epik_cmdline>  (217) 
J2VwaWtfcHl0aG9uJywgJy1waHQnLCAnMi4wJywgJy1waCcsICc3LjAnLCAnLXRuJywgJzgnLCAnLW1hJywgJzIwMCcsICctaW1hZScsICc8aW5maWxlLm1hZT4nLCAnLW9tYWUnLCAnPG91dGZpbGUubWFlPic=

>  <r_lp_tautomer_probability>  (217) 
1

>  <r_epik_Ionization_Penalty>  (217) 
2.47733

>  <r_epik_Ionization_Penalty_Charging>  (217) 
0

>  <r_epik_Ionization_Penalty_Neutral>  (217) 
2.47733

>  <r_epik_State_Penalty>  (217) 
2.64031

>  <r_epik_Charging_Adjusted_Penalty>  (217) 
2.64031

>  <i_epik_Tot_Q>  (217) 
0

>  <i_epik_Tot_abs_Q>  (217) 
0

>  <s_lp_Force_Field>  (217) 
OPLS3e

>  <r_lp_Energy>  (217) 
49.9689

>  <b_lp_Chiralities_Consistent>  (217) 
1

>  <s_lp_Variant>  (217) 
75:0-2

>  <s_i_glide_gridfile>  (217) 
pfpi4k_grid

>  <i_i_glide_lignum>  (217) 
21

>  <i_i_glide_rotatable_bonds>  (217) 
4

>  <r_i_docking_score>  (217) 
-3.08019

>  <r_i_glide_ligand_efficiency>  (217) 
-0.128341

>  <r_i_glide_ligand_efficiency_sa>  (217) 
-0.3702

>  <r_i_glide_ligand_efficiency_ln>  (217) 
-0.73723

>  <r_i_glide_gscore>  (217) 
-3.08019

>  <r_i_glide_lipo>  (217) 
-0.310097

>  <r_i_glide_hbond>  (217) 
-0.191139

>  <r_i_glide_metal>  (217) 
-0

>  <r_i_glide_rewards>  (217) 
-1.16295

>  <r_i_glide_evdw>  (217) 
-15.2317

>  <r_i_glide_ecoul>  (217) 
-4.36272

>  <r_i_glide_erotb>  (217) 
0

>  <r_i_glide_esite>  (217) 
0

>  <r_i_glide_emodel>  (217) 
-24.4627

>  <r_i_glide_energy>  (217) 
-19.5945

>  <r_i_glide_einternal>  (217) 
0.959862

>  <r_i_glide_intrahb_reward>  (217) 
-0

>  <i_i_glide_confnum>  (217) 
2

>  <i_i_glide_posenum>  (217) 
1

>  <r_i_glide_eff_state_penalty>  (217) 
0

>  <ligand_id>  (217) 
75

>  <original_smiles>  (217) 
CCC1CC23CC2(O)c2cc(O)ccc2CC2N(C)CC1(C)C23O

>  <smiles>  (217) 
[H]Oc1c([H])c([H])c2c(c1[H])C1(O[H])C([H])([H])C13C([H])([H])C([H])(C([H])([H])C([H])([H])[H])C1(C([H])([H])[H])C([H])([H])N(C([H])([H])[H])C([H])(C2([H])[H])C31O[H]

$$$$
75:1:2
     RDKit          3D

 51 55  0  0  1  0  0  0  0  0999 V2000
    0.1462   -8.7735    7.5894 C   0  0  0  0  0  0  0  0  0  0  0  0
    0.0663   -9.0719    6.0882 C   0  0  0  0  0  0  0  0  0  0  0  0
    0.9955   -8.1872    5.2271 C   0  0  2  0  0  0  0  0  0  0  0  0
    0.6722   -6.6945    5.2837 C   0  0  0  0  0  0  0  0  0  0  0  0
    1.4664   -6.0749    4.1617 C   0  0  2  0  0  0  0  0  0  0  0  0
    2.7628   -5.3852    4.6285 C   0  0  0  0  0  0  0  0  0  0  0  0
    1.7647   -4.6331    3.7921 C   0  0  2  0  0  0  0  0  0  0  0  0
    0.8764   -3.8549    4.5970 O   0  0  0  0  0  0  0  0  0  0  0  0
    2.2148   -4.0674    2.4758 C   0  0  0  0  0  0  0  0  0  0  0  0
    2.2461   -2.6380    2.4413 C   0  0  0  0  0  0  0  0  0  0  0  0
    2.6700   -1.9172    1.2957 C   0  0  0  0  0  0  0  0  0  0  0  0
    2.6194   -0.5592    1.2909 O   0  0  0  0  0  0  0  0  0  0  0  0
    3.0979   -2.6170    0.1536 C   0  0  0  0  0  0  0  0  0  0  0  0
    3.0841   -4.0261    0.1597 C   0  0  0  0  0  0  0  0  0  0  0  0
    2.6471   -4.7676    1.2890 C   0  0  0  0  0  0  0  0  0  0  0  0
    2.6973   -6.2828    1.0401 C   0  0  0  0  0  0  0  0  0  0  0  0
    2.6011   -7.2499    2.2265 C   0  0  2  0  0  0  0  0  0  0  0  0
    2.6699   -8.6735    1.9521 N   0  0  0  0  0  0  0  0  0  0  0  0
    3.9756   -9.1406    1.4998 C   0  0  0  0  0  0  0  0  0  0  0  0
    2.2961   -9.2699    3.2292 C   0  0  0  0  0  0  0  0  0  0  0  0
    1.0518   -8.4838    3.6985 C   0  0  1  0  0  0  0  0  0  0  0  0
   -0.2213   -9.1937    3.1753 C   0  0  0  0  0  0  0  0  0  0  0  0
    1.3243   -7.0865    3.0640 C   0  0  1  0  0  0  0  0  0  0  0  0
    0.2057   -6.6901    2.2576 O   0  0  0  0  0  0  0  0  0  0  0  0
   -0.4984   -9.4552    8.1403 H   0  0  0  0  0  0  0  0  0  0  0  0
   -0.1781   -7.7584    7.8201 H   0  0  0  0  0  0  0  0  0  0  0  0
    1.1598   -8.9014    7.9699 H   0  0  0  0  0  0  0  0  0  0  0  0
    0.3287  -10.1186    5.9376 H   0  0  0  0  0  0  0  0  0  0  0  0
   -0.9684   -8.9787    5.7650 H   0  0  0  0  0  0  0  0  0  0  0  0
    2.0045   -8.3033    5.6290 H   0  0  0  0  0  0  0  0  0  0  0  0
   -0.3895   -6.4976    5.1061 H   0  0  0  0  0  0  0  0  0  0  0  0
    0.9471   -6.2400    6.2421 H   0  0  0  0  0  0  0  0  0  0  0  0
    2.8382   -5.0743    5.6627 H   0  0  0  0  0  0  0  0  0  0  0  0
    3.7188   -5.5343    4.1241 H   0  0  0  0  0  0  0  0  0  0  0  0
    1.2505   -3.0030    4.7318 H   0  0  0  0  0  0  0  0  0  0  0  0
    1.9237   -2.0452    3.2748 H   0  0  0  0  0  0  0  0  0  0  0  0
    2.3185   -0.2505    0.4541 H   0  0  0  0  0  0  0  0  0  0  0  0
    3.4202   -2.0799   -0.7259 H   0  0  0  0  0  0  0  0  0  0  0  0
    3.4059   -4.5439   -0.7301 H   0  0  0  0  0  0  0  0  0  0  0  0
    1.9159   -6.5231    0.3238 H   0  0  0  0  0  0  0  0  0  0  0  0
    3.6319   -6.4939    0.5272 H   0  0  0  0  0  0  0  0  0  0  0  0
    3.4603   -7.0599    2.8602 H   0  0  0  0  0  0  0  0  0  0  0  0
    3.9655  -10.2163    1.3656 H   0  0  0  0  0  0  0  0  0  0  0  0
    4.7606   -8.9105    2.2203 H   0  0  0  0  0  0  0  0  0  0  0  0
    4.2421   -8.7062    0.5400 H   0  0  0  0  0  0  0  0  0  0  0  0
    2.0963  -10.3385    3.1238 H   0  0  0  0  0  0  0  0  0  0  0  0
    3.0981   -9.1562    3.9555 H   0  0  0  0  0  0  0  0  0  0  0  0
   -0.1927   -9.3129    2.0928 H   0  0  0  0  0  0  0  0  0  0  0  0
   -1.1284   -8.6434    3.4269 H   0  0  0  0  0  0  0  0  0  0  0  0
   -0.3248  -10.1987    3.5898 H   0  0  0  0  0  0  0  0  0  0  0  0
    0.0458   -7.4079    1.6730 H   0  0  0  0  0  0  0  0  0  0  0  0
  1  2  1  0
  1 25  1  0
  1 26  1  0
  1 27  1  0
  2  3  1  0
  2 28  1  0
  2 29  1  0
  3 21  1  0
  3  4  1  0
  3 30  1  1
  5  4  1  1
  4 31  1  0
  4 32  1  0
  5  7  1  0
  5 23  1  0
  5  6  1  0
  6  7  1  0
  6 33  1  0
  6 34  1  0
  7  8  1  1
  7  9  1  0
  8 35  1  0
  9 15  2  0
  9 10  1  0
 10 11  2  0
 10 36  1  0
 11 12  1  0
 11 13  1  0
 12 37  1  0
 13 14  2  0
 13 38  1  0
 14 15  1  0
 14 39  1  0
 15 16  1  0
 16 17  1  0
 16 40  1  0
 16 41  1  0
 17 23  1  0
 17 18  1  0
 17 42  1  1
 18 19  1  0
 18 20  1  0
 19 43  1  0
 19 44  1  0
 19 45  1  0
 20 21  1  0
 20 46  1  0
 20 47  1  0
 21 22  1  6
 21 23  1  0
 22 48  1  0
 22 49  1  0
 22 50  1  0
 23 24  1  6
 24 51  1  0
M  END
>  <i_m_ct_stereo_status>  (218) 
1

>  <s_m_source_file>  (218) 
/var/tmp/pbs.5076255.sched01/tmph8v5ro6p/78zitxkb1g.sdf

>  <i_m_source_file_index>  (218) 
21

>  <i_lp_mmshare_version>  (218) 
48012

>  <i_f3d_flags>  (218) 
0

>  <s_epik_input>  (218) 
W0NIM11bQ0gyXVtDQEhdKFtDSDJdMSlbQ0BdKFtDSDNdKShbQ0gyXU4yW0NIM10pW0NAXTMoW09IXSlbQ0BASF0yW0NIMl1jKGM0W0NAQF0oW0NAQF0xMzUpKFtDSDJdNSlbT0hdKVtjSF1bY0hdYyhbY0hdNClbT0hd

>  <s_epik_cmdline>  (218) 
J2VwaWtfcHl0aG9uJywgJy1waHQnLCAnMi4wJywgJy1waCcsICc3LjAnLCAnLXRuJywgJzgnLCAnLW1hJywgJzIwMCcsICctaW1hZScsICc8aW5maWxlLm1hZT4nLCAnLW9tYWUnLCAnPG91dGZpbGUubWFlPic=

>  <r_lp_tautomer_probability>  (218) 
1

>  <r_epik_Ionization_Penalty>  (218) 
2.47733

>  <r_epik_Ionization_Penalty_Charging>  (218) 
0

>  <r_epik_Ionization_Penalty_Neutral>  (218) 
2.47733

>  <r_epik_State_Penalty>  (218) 
2.64031

>  <r_epik_Charging_Adjusted_Penalty>  (218) 
2.64031

>  <i_epik_Tot_Q>  (218) 
0

>  <i_epik_Tot_abs_Q>  (218) 
0

>  <s_lp_Force_Field>  (218) 
OPLS3e

>  <r_lp_Energy>  (218) 
49.9689

>  <b_lp_Chiralities_Consistent>  (218) 
1

>  <s_lp_Variant>  (218) 
75:0-2

>  <s_i_glide_gridfile>  (218) 
pfpi4k_grid

>  <i_i_glide_lignum>  (218) 
21

>  <i_i_glide_rotatable_bonds>  (218) 
4

>  <r_i_docking_score>  (218) 
-2.82392

>  <r_i_glide_ligand_efficiency>  (218) 
-0.117663

>  <r_i_glide_ligand_efficiency_sa>  (218) 
-0.3394

>  <r_i_glide_ligand_efficiency_ln>  (218) 
-0.675894

>  <r_i_glide_gscore>  (218) 
-2.82392

>  <r_i_glide_lipo>  (218) 
0

>  <r_i_glide_hbond>  (218) 
-0.141478

>  <r_i_glide_metal>  (218) 
-0

>  <r_i_glide_rewards>  (218) 
-1.16295

>  <r_i_glide_evdw>  (218) 
-19.9821

>  <r_i_glide_ecoul>  (218) 
-3.46922

>  <r_i_glide_erotb>  (218) 
0

>  <r_i_glide_esite>  (218) 
0

>  <r_i_glide_emodel>  (218) 
-26.9885

>  <r_i_glide_energy>  (218) 
-23.4513

>  <r_i_glide_einternal>  (218) 
2.09653

>  <r_i_glide_intrahb_reward>  (218) 
-0

>  <i_i_glide_confnum>  (218) 
1

>  <i_i_glide_posenum>  (218) 
38

>  <r_i_glide_eff_state_penalty>  (218) 
0

>  <ligand_id>  (218) 
75

>  <original_smiles>  (218) 
CCC1CC23CC2(O)c2cc(O)ccc2CC2N(C)CC1(C)C23O

>  <smiles>  (218) 
[H]Oc1c([H])c([H])c2c(c1[H])C1(O[H])C([H])([H])C13C([H])([H])C([H])(C([H])([H])C([H])([H])[H])C1(C([H])([H])[H])C([H])([H])N(C([H])([H])[H])C([H])(C2([H])[H])C31O[H]

$$$$
76:0:0
     RDKit          3D

 74 78  0  0  1  0  0  0  0  0999 V2000
    2.2394   -4.4038   -0.0167 C   0  0  0  0  0  0  0  0  0  0  0  0
    3.1345   -3.1631    0.1775 C   0  0  0  0  0  0  0  0  0  0  0  0
    3.3639   -2.5667   -1.2283 C   0  0  0  0  0  0  0  0  0  0  0  0
    2.3676   -2.1747    0.8817 O   0  0  0  0  0  0  0  0  0  0  0  0
    4.4670   -3.3134    1.0105 C   0  0  2  0  0  0  0  0  0  0  0  0
    5.6405   -3.8933    0.2322 C   0  0  0  0  0  0  0  0  0  0  0  0
    5.5833   -5.3645    0.5865 C   0  0  0  0  0  0  0  0  0  0  0  0
    5.3406   -5.4676    2.1284 C   0  0  2  0  0  0  0  0  0  0  0  0
    6.7996   -5.4767    2.6675 C   0  0  0  0  0  0  0  0  0  0  0  0
    4.6765   -6.8623    2.6400 C   0  0  2  0  0  0  0  0  0  0  0  0
    4.3099   -7.7982    1.4512 C   0  0  0  0  0  0  0  0  0  0  0  0
    4.4586   -9.2979    1.6571 C   0  0  0  0  0  0  0  0  0  0  0  0
    4.0053   -9.8442    2.9968 C   0  0  0  0  0  0  0  0  0  0  0  0
    2.6398   -9.3613    3.5140 C   0  0  1  0  0  0  0  0  0  0  0  0
    2.1969  -10.4527    4.5251 C   0  0  0  0  0  0  0  0  0  0  0  0
    0.7235  -10.1762    4.7219 C   0  0  1  0  0  0  0  0  0  0  0  0
    0.5915   -8.9043    5.5646 C   0  0  0  0  0  0  0  0  0  0  0  0
    1.3045   -7.7000    4.9251 C   0  0  1  0  0  0  0  0  0  0  0  0
    1.3116   -6.7239    5.9571 O   0  0  0  0  0  0  0  0  0  0  0  0
    2.7387   -8.0147    4.3312 C   0  0  2  0  0  0  0  0  0  0  0  0
    3.5726   -6.7277    3.7889 C   0  0  1  0  0  0  0  0  0  0  0  0
    4.3180   -6.2224    5.0577 C   0  0  0  0  0  0  0  0  0  0  0  0
    2.6069   -5.6470    3.2652 C   0  0  0  0  0  0  0  0  0  0  0  0
    3.2242   -4.2492    3.1937 C   0  0  0  0  0  0  0  0  0  0  0  0
    4.5514   -4.0859    2.4036 C   0  0  2  0  0  0  0  0  0  0  0  0
    5.3543   -3.0855    3.2907 C   0  0  0  0  0  0  0  0  0  0  0  0
    0.2499  -10.0411    3.2726 C   0  0  1  0  0  0  0  0  0  0  0  0
   -0.9829   -9.3450    3.1876 O   0  0  0  0  0  0  0  0  0  0  0  0
    1.4600   -9.4657    2.4935 C   0  0  1  0  0  0  0  0  0  0  0  0
    1.1290   -8.2998    1.7621 O   0  0  0  0  0  0  0  0  0  0  0  0
    2.7571   -5.2734   -0.4045 H   0  0  0  0  0  0  0  0  0  0  0  0
    1.4503   -4.1871   -0.7439 H   0  0  0  0  0  0  0  0  0  0  0  0
    1.7642   -4.6665    0.9133 H   0  0  0  0  0  0  0  0  0  0  0  0
    3.8075   -3.2918   -1.9066 H   0  0  0  0  0  0  0  0  0  0  0  0
    3.9796   -1.6724   -1.1940 H   0  0  0  0  0  0  0  0  0  0  0  0
    2.4191   -2.3006   -1.6900 H   0  0  0  0  0  0  0  0  0  0  0  0
    1.7715   -1.7617    0.2764 H   0  0  0  0  0  0  0  0  0  0  0  0
    4.7358   -2.2682    1.1786 H   0  0  0  0  0  0  0  0  0  0  0  0
    5.6213   -3.7239   -0.8357 H   0  0  0  0  0  0  0  0  0  0  0  0
    6.5733   -3.4539    0.5824 H   0  0  0  0  0  0  0  0  0  0  0  0
    4.7525   -5.7596    0.0082 H   0  0  0  0  0  0  0  0  0  0  0  0
    6.4946   -5.8757    0.2555 H   0  0  0  0  0  0  0  0  0  0  0  0
    6.8701   -5.4567    3.7532 H   0  0  0  0  0  0  0  0  0  0  0  0
    7.4018   -4.6598    2.2768 H   0  0  0  0  0  0  0  0  0  0  0  0
    7.3132   -6.3823    2.3405 H   0  0  0  0  0  0  0  0  0  0  0  0
    5.4825   -7.4071    3.1262 H   0  0  0  0  0  0  0  0  0  0  0  0
    3.3482   -7.5351    1.0190 H   0  0  0  0  0  0  0  0  0  0  0  0
    5.0125   -7.6962    0.6328 H   0  0  0  0  0  0  0  0  0  0  0  0
    3.9293   -9.8104    0.8544 H   0  0  0  0  0  0  0  0  0  0  0  0
    5.5056   -9.5768    1.5290 H   0  0  0  0  0  0  0  0  0  0  0  0
    3.9887  -10.9274    2.8625 H   0  0  0  0  0  0  0  0  0  0  0  0
    4.7706   -9.6585    3.7532 H   0  0  0  0  0  0  0  0  0  0  0  0
    2.2958  -11.4570    4.1087 H   0  0  0  0  0  0  0  0  0  0  0  0
    2.7528  -10.4435    5.4627 H   0  0  0  0  0  0  0  0  0  0  0  0
    0.2204  -11.0014    5.2281 H   0  0  0  0  0  0  0  0  0  0  0  0
   -0.4596   -8.6655    5.7316 H   0  0  0  0  0  0  0  0  0  0  0  0
    1.0199   -9.1080    6.5438 H   0  0  0  0  0  0  0  0  0  0  0  0
    0.6570   -7.3385    4.1276 H   0  0  0  0  0  0  0  0  0  0  0  0
    1.9231   -7.0026    6.6070 H   0  0  0  0  0  0  0  0  0  0  0  0
    3.3103   -8.3413    5.2018 H   0  0  0  0  0  0  0  0  0  0  0  0
    3.6322   -5.8572    5.8167 H   0  0  0  0  0  0  0  0  0  0  0  0
    4.9855   -5.4041    4.8444 H   0  0  0  0  0  0  0  0  0  0  0  0
    4.9457   -6.9973    5.4990 H   0  0  0  0  0  0  0  0  0  0  0  0
    2.2464   -6.0121    2.3180 H   0  0  0  0  0  0  0  0  0  0  0  0
    1.7242   -5.5039    3.8768 H   0  0  0  0  0  0  0  0  0  0  0  0
    2.4744   -3.5568    2.8461 H   0  0  0  0  0  0  0  0  0  0  0  0
    3.3725   -3.9043    4.2233 H   0  0  0  0  0  0  0  0  0  0  0  0
    5.6727   -3.4908    4.2457 H   0  0  0  0  0  0  0  0  0  0  0  0
    4.7717   -2.1903    3.5159 H   0  0  0  0  0  0  0  0  0  0  0  0
    6.2250   -2.7196    2.7660 H   0  0  0  0  0  0  0  0  0  0  0  0
    0.0588  -11.0482    2.9003 H   0  0  0  0  0  0  0  0  0  0  0  0
   -1.5718   -9.7957    3.7808 H   0  0  0  0  0  0  0  0  0  0  0  0
    1.7151  -10.2080    1.7377 H   0  0  0  0  0  0  0  0  0  0  0  0
    0.5372   -8.5886    1.0831 H   0  0  0  0  0  0  0  0  0  0  0  0
  1  2  1  0
  1 31  1  0
  1 32  1  0
  1 33  1  0
  2  3  1  0
  2  4  1  0
  2  5  1  0
  3 34  1  0
  3 35  1  0
  3 36  1  0
  4 37  1  0
  5 25  1  0
  5  6  1  0
  5 38  1  1
  6  7  1  0
  6 39  1  0
  6 40  1  0
  7  8  1  0
  7 41  1  0
  7 42  1  0
  8 25  1  0
  8  9  1  1
  8 10  1  0
  9 43  1  0
  9 44  1  0
  9 45  1  0
 10 21  1  0
 10 11  1  0
 10 46  1  1
 11 12  1  0
 11 47  1  0
 11 48  1  0
 12 13  1  0
 12 49  1  0
 12 50  1  0
 14 13  1  6
 13 51  1  0
 13 52  1  0
 14 20  1  0
 14 29  1  0
 14 15  1  0
 15 16  1  0
 15 53  1  0
 15 54  1  0
 16 17  1  0
 16 27  1  0
 16 55  1  1
 17 18  1  0
 17 56  1  0
 17 57  1  0
 18 19  1  0
 18 20  1  0
 18 58  1  6
 19 59  1  0
 20 21  1  0
 20 60  1  1
 21 22  1  1
 21 23  1  0
 22 61  1  0
 22 62  1  0
 22 63  1  0
 23 24  1  0
 23 64  1  0
 23 65  1  0
 24 25  1  0
 24 66  1  0
 24 67  1  0
 25 26  1  1
 26 68  1  0
 26 69  1  0
 26 70  1  0
 27 28  1  0
 27 29  1  0
 27 71  1  6
 28 72  1  0
 29 30  1  0
 29 73  1  6
 30 74  1  0
M  END
>  <i_m_ct_stereo_status>  (219) 
1

>  <s_m_source_file>  (219) 
/var/tmp/pbs.5076255.sched01/tmph8v5ro6p/78zitxkb1g.sdf

>  <i_m_source_file_index>  (219) 
22

>  <i_lp_mmshare_version>  (219) 
48012

>  <i_f3d_flags>  (219) 
0

>  <s_epik_input>  (219) 
W0NIM11DKFtDSDNdKShbT0hdKVtDQEhdKFtDSDJdW0NIMl0xKVtDQEBdKFtDSDNdKShbQ0gyXVtDSDJdMilbQ0BAXTEoW0NIM10pW0NASF0oW0NIMl1bQ0gyXVtDSDJdMylbQ0BdMihbQ0gzXSlbQ0BIXShbQ0BAXTM0NSlbQ0BIXShbT0hdKVtDSDJdW0NASF0oW0NIMl00KVtDQEBIXShbT0hdKVtDQEhdNVtPSF0=

>  <s_epik_cmdline>  (219) 
J2VwaWtfcHl0aG9uJywgJy1waHQnLCAnMi4wJywgJy1waCcsICc3LjAnLCAnLXRuJywgJzgnLCAnLW1hJywgJzIwMCcsICctaW1hZScsICc8aW5maWxlLm1hZT4nLCAnLW9tYWUnLCAnPG91dGZpbGUubWFlPic=

>  <r_lp_tautomer_probability>  (219) 
1

>  <r_epik_Ionization_Penalty>  (219) 
3.52712e-06

>  <r_epik_Ionization_Penalty_Charging>  (219) 
0

>  <r_epik_Ionization_Penalty_Neutral>  (219) 
3.52712e-06

>  <r_epik_State_Penalty>  (219) 
-0

>  <r_epik_Charging_Adjusted_Penalty>  (219) 
0

>  <i_epik_Tot_Q>  (219) 
0

>  <i_epik_Tot_abs_Q>  (219) 
0

>  <s_lp_Force_Field>  (219) 
OPLS3e

>  <r_lp_Energy>  (219) 
119.988

>  <b_lp_Chiralities_Consistent>  (219) 
1

>  <s_lp_Variant>  (219) 
76:0-1

>  <s_i_glide_gridfile>  (219) 
pfpi4k_grid

>  <i_i_glide_lignum>  (219) 
22

>  <i_i_glide_rotatable_bonds>  (219) 
5

>  <r_i_docking_score>  (219) 
-3.52397

>  <r_i_glide_ligand_efficiency>  (219) 
-0.117466

>  <r_i_glide_ligand_efficiency_sa>  (219) 
-0.364993

>  <r_i_glide_ligand_efficiency_ln>  (219) 
-0.800685

>  <r_i_glide_gscore>  (219) 
-3.52397

>  <r_i_glide_lipo>  (219) 
-0.399372

>  <r_i_glide_hbond>  (219) 
-0.144

>  <r_i_glide_metal>  (219) 
-0

>  <r_i_glide_rewards>  (219) 
-0.541192

>  <r_i_glide_evdw>  (219) 
-24.0753

>  <r_i_glide_ecoul>  (219) 
-8.98346

>  <r_i_glide_erotb>  (219) 
0.111878

>  <r_i_glide_esite>  (219) 
0

>  <r_i_glide_emodel>  (219) 
-40.4366

>  <r_i_glide_energy>  (219) 
-33.0588

>  <r_i_glide_einternal>  (219) 
1.87124

>  <r_i_glide_intrahb_reward>  (219) 
-0

>  <i_i_glide_confnum>  (219) 
5

>  <i_i_glide_posenum>  (219) 
29

>  <r_i_glide_eff_state_penalty>  (219) 
0

>  <ligand_id>  (219) 
76

>  <original_smiles>  (219) 
CC(C)(O)C1CCC2(C)C3CCCC45CC(CC(O)C4C3(C)CCC12C)C(O)C5O

>  <smiles>  (219) 
[H]OC1([H])C([H])(O[H])C23C([H])([H])C([H])([H])C([H])([H])C4([H])C(C([H])([H])[H])(C([H])([H])C([H])([H])C5(C([H])([H])[H])C([H])(C(O[H])(C([H])([H])[H])C([H])([H])[H])C([H])([H])C([H])([H])C45C([H])([H])[H])C2([H])C([H])(O[H])C([H])([H])C1([H])C3([H])[H]

$$$$
76:0:1
     RDKit          3D

 74 78  0  0  1  0  0  0  0  0999 V2000
   -1.3412   -7.5785    3.3281 C   0  0  0  0  0  0  0  0  0  0  0  0
    0.1772   -7.3775    3.1830 C   0  0  0  0  0  0  0  0  0  0  0  0
    0.6757   -8.7685    2.6879 C   0  0  0  0  0  0  0  0  0  0  0  0
    0.3285   -6.4245    2.1581 O   0  0  0  0  0  0  0  0  0  0  0  0
    0.8851   -6.8908    4.5172 C   0  0  2  0  0  0  0  0  0  0  0  0
    0.0974   -5.8489    5.3119 C   0  0  0  0  0  0  0  0  0  0  0  0
    0.6587   -4.5430    4.8215 C   0  0  0  0  0  0  0  0  0  0  0  0
    2.2092   -4.6734    4.8027 C   0  0  2  0  0  0  0  0  0  0  0  0
    2.6266   -4.2555    6.2490 C   0  0  0  0  0  0  0  0  0  0  0  0
    2.9689   -3.6203    3.8126 C   0  0  2  0  0  0  0  0  0  0  0  0
    1.9653   -2.7095    3.0380 C   0  0  0  0  0  0  0  0  0  0  0  0
    2.3815   -1.2754    2.7331 C   0  0  0  0  0  0  0  0  0  0  0  0
    3.8164   -1.0591    2.2938 C   0  0  0  0  0  0  0  0  0  0  0  0
    4.3642   -2.0099    1.2133 C   0  0  1  0  0  0  0  0  0  0  0  0
    5.5599   -1.2464    0.5863 C   0  0  0  0  0  0  0  0  0  0  0  0
    5.8193   -2.0000   -0.6997 C   0  0  1  0  0  0  0  0  0  0  0  0
    6.4638   -3.3346   -0.3208 C   0  0  0  0  0  0  0  0  0  0  0  0
    5.6042   -4.1659    0.6447 C   0  0  1  0  0  0  0  0  0  0  0  0
    6.4664   -5.1831    1.0905 O   0  0  0  0  0  0  0  0  0  0  0  0
    4.9314   -3.3487    1.8179 C   0  0  2  0  0  0  0  0  0  0  0  0
    4.1436   -4.2307    2.9268 C   0  0  1  0  0  0  0  0  0  0  0  0
    5.2736   -4.6050    3.9408 C   0  0  0  0  0  0  0  0  0  0  0  0
    3.5194   -5.4881    2.3099 C   0  0  0  0  0  0  0  0  0  0  0  0
    3.2837   -6.6089    3.3311 C   0  0  0  0  0  0  0  0  0  0  0  0
    2.3567   -6.2526    4.5506 C   0  0  2  0  0  0  0  0  0  0  0  0
    3.0246   -7.0108    5.7415 C   0  0  0  0  0  0  0  0  0  0  0  0
    4.4094   -2.0956   -1.2887 C   0  0  1  0  0  0  0  0  0  0  0  0
    4.2552   -3.1304   -2.2510 O   0  0  0  0  0  0  0  0  0  0  0  0
    3.4695   -2.1698   -0.0603 C   0  0  1  0  0  0  0  0  0  0  0  0
    2.6589   -3.3248   -0.1201 O   0  0  0  0  0  0  0  0  0  0  0  0
   -1.5844   -8.2523    4.1431 H   0  0  0  0  0  0  0  0  0  0  0  0
   -1.7658   -8.0127    2.4227 H   0  0  0  0  0  0  0  0  0  0  0  0
   -1.8981   -6.6589    3.4883 H   0  0  0  0  0  0  0  0  0  0  0  0
    0.3093   -9.5588    3.3586 H   0  0  0  0  0  0  0  0  0  0  0  0
    1.7344   -8.9415    2.6222 H   0  0  0  0  0  0  0  0  0  0  0  0
    0.2643   -8.9839    1.6911 H   0  0  0  0  0  0  0  0  0  0  0  0
    1.2603   -6.3488    1.9563 H   0  0  0  0  0  0  0  0  0  0  0  0
    0.8639   -7.7911    5.1275 H   0  0  0  0  0  0  0  0  0  0  0  0
   -0.9869   -5.9030    5.2329 H   0  0  0  0  0  0  0  0  0  0  0  0
    0.2977   -5.9620    6.3751 H   0  0  0  0  0  0  0  0  0  0  0  0
    0.2541   -4.4211    3.8162 H   0  0  0  0  0  0  0  0  0  0  0  0
    0.2943   -3.6993    5.4162 H   0  0  0  0  0  0  0  0  0  0  0  0
    3.6908   -4.3571    6.4354 H   0  0  0  0  0  0  0  0  0  0  0  0
    2.1094   -4.8030    7.0277 H   0  0  0  0  0  0  0  0  0  0  0  0
    2.3844   -3.2052    6.4299 H   0  0  0  0  0  0  0  0  0  0  0  0
    3.4723   -2.9028    4.4624 H   0  0  0  0  0  0  0  0  0  0  0  0
    1.6002   -3.2158    2.1440 H   0  0  0  0  0  0  0  0  0  0  0  0
    1.0805   -2.5024    3.6252 H   0  0  0  0  0  0  0  0  0  0  0  0
    1.7010   -0.8741    1.9749 H   0  0  0  0  0  0  0  0  0  0  0  0
    2.2160   -0.6622    3.6196 H   0  0  0  0  0  0  0  0  0  0  0  0
    3.8560   -0.0253    1.9386 H   0  0  0  0  0  0  0  0  0  0  0  0
    4.4782   -1.0825    3.1660 H   0  0  0  0  0  0  0  0  0  0  0  0
    5.2925   -0.2160    0.3231 H   0  0  0  0  0  0  0  0  0  0  0  0
    6.4365   -1.1871    1.2324 H   0  0  0  0  0  0  0  0  0  0  0  0
    6.4790   -1.4530   -1.3719 H   0  0  0  0  0  0  0  0  0  0  0  0
    6.6804   -3.8947   -1.2274 H   0  0  0  0  0  0  0  0  0  0  0  0
    7.4331   -3.1349    0.1465 H   0  0  0  0  0  0  0  0  0  0  0  0
    4.8220   -4.6422    0.0404 H   0  0  0  0  0  0  0  0  0  0  0  0
    5.9449   -5.8106    1.5899 H   0  0  0  0  0  0  0  0  0  0  0  0
    5.8040   -2.9600    2.3624 H   0  0  0  0  0  0  0  0  0  0  0  0
    6.0293   -5.2493    3.5081 H   0  0  0  0  0  0  0  0  0  0  0  0
    4.9074   -5.1242    4.8084 H   0  0  0  0  0  0  0  0  0  0  0  0
    5.7764   -3.7255    4.3454 H   0  0  0  0  0  0  0  0  0  0  0  0
    2.5964   -5.2498    1.7896 H   0  0  0  0  0  0  0  0  0  0  0  0
    4.1344   -5.9657    1.5516 H   0  0  0  0  0  0  0  0  0  0  0  0
    2.9607   -7.4353    2.7715 H   0  0  0  0  0  0  0  0  0  0  0  0
    4.2627   -6.9202    3.7033 H   0  0  0  0  0  0  0  0  0  0  0  0
    4.0188   -6.6505    5.9798 H   0  0  0  0  0  0  0  0  0  0  0  0
    3.1318   -8.0676    5.5050 H   0  0  0  0  0  0  0  0  0  0  0  0
    2.4391   -6.9641    6.6550 H   0  0  0  0  0  0  0  0  0  0  0  0
    4.2144   -1.1670   -1.8199 H   0  0  0  0  0  0  0  0  0  0  0  0
    4.2063   -3.9664   -1.7880 H   0  0  0  0  0  0  0  0  0  0  0  0
    2.8022   -1.3094   -0.1234 H   0  0  0  0  0  0  0  0  0  0  0  0
    2.1604   -3.2523   -0.9244 H   0  0  0  0  0  0  0  0  0  0  0  0
  1  2  1  0
  1 31  1  0
  1 32  1  0
  1 33  1  0
  2  3  1  0
  2  4  1  0
  2  5  1  0
  3 34  1  0
  3 35  1  0
  3 36  1  0
  4 37  1  0
  5 25  1  0
  5  6  1  0
  5 38  1  1
  6  7  1  0
  6 39  1  0
  6 40  1  0
  7  8  1  0
  7 41  1  0
  7 42  1  0
  8 25  1  0
  8  9  1  1
  8 10  1  0
  9 43  1  0
  9 44  1  0
  9 45  1  0
 10 21  1  0
 10 11  1  0
 10 46  1  1
 11 12  1  0
 11 47  1  0
 11 48  1  0
 12 13  1  0
 12 49  1  0
 12 50  1  0
 14 13  1  1
 13 51  1  0
 13 52  1  0
 14 20  1  0
 14 29  1  0
 14 15  1  0
 15 16  1  0
 15 53  1  0
 15 54  1  0
 16 17  1  0
 16 27  1  0
 16 55  1  6
 17 18  1  0
 17 56  1  0
 17 57  1  0
 18 19  1  0
 18 20  1  0
 18 58  1  6
 19 59  1  0
 20 21  1  0
 20 60  1  1
 21 22  1  1
 21 23  1  0
 22 61  1  0
 22 62  1  0
 22 63  1  0
 23 24  1  0
 23 64  1  0
 23 65  1  0
 24 25  1  0
 24 66  1  0
 24 67  1  0
 25 26  1  1
 26 68  1  0
 26 69  1  0
 26 70  1  0
 27 28  1  0
 27 29  1  0
 27 71  1  6
 28 72  1  0
 29 30  1  0
 29 73  1  6
 30 74  1  0
M  END
>  <i_m_ct_stereo_status>  (220) 
1

>  <s_m_source_file>  (220) 
/var/tmp/pbs.5076255.sched01/tmph8v5ro6p/78zitxkb1g.sdf

>  <i_m_source_file_index>  (220) 
22

>  <i_lp_mmshare_version>  (220) 
48012

>  <i_f3d_flags>  (220) 
0

>  <s_epik_input>  (220) 
W0NIM11DKFtDSDNdKShbT0hdKVtDQEhdKFtDSDJdW0NIMl0xKVtDQEBdKFtDSDNdKShbQ0gyXVtDSDJdMilbQ0BAXTEoW0NIM10pW0NASF0oW0NIMl1bQ0gyXVtDSDJdMylbQ0BdMihbQ0gzXSlbQ0BIXShbQ0BAXTM0NSlbQ0BIXShbT0hdKVtDSDJdW0NASF0oW0NIMl00KVtDQEBIXShbT0hdKVtDQEhdNVtPSF0=

>  <s_epik_cmdline>  (220) 
J2VwaWtfcHl0aG9uJywgJy1waHQnLCAnMi4wJywgJy1waCcsICc3LjAnLCAnLXRuJywgJzgnLCAnLW1hJywgJzIwMCcsICctaW1hZScsICc8aW5maWxlLm1hZT4nLCAnLW9tYWUnLCAnPG91dGZpbGUubWFlPic=

>  <r_lp_tautomer_probability>  (220) 
1

>  <r_epik_Ionization_Penalty>  (220) 
3.52712e-06

>  <r_epik_Ionization_Penalty_Charging>  (220) 
0

>  <r_epik_Ionization_Penalty_Neutral>  (220) 
3.52712e-06

>  <r_epik_State_Penalty>  (220) 
-0

>  <r_epik_Charging_Adjusted_Penalty>  (220) 
0

>  <i_epik_Tot_Q>  (220) 
0

>  <i_epik_Tot_abs_Q>  (220) 
0

>  <s_lp_Force_Field>  (220) 
OPLS3e

>  <r_lp_Energy>  (220) 
119.988

>  <b_lp_Chiralities_Consistent>  (220) 
1

>  <s_lp_Variant>  (220) 
76:0-1

>  <s_i_glide_gridfile>  (220) 
pfpi4k_grid

>  <i_i_glide_lignum>  (220) 
22

>  <i_i_glide_rotatable_bonds>  (220) 
5

>  <r_i_docking_score>  (220) 
-3.05866

>  <r_i_glide_ligand_efficiency>  (220) 
-0.101955

>  <r_i_glide_ligand_efficiency_sa>  (220) 
-0.316799

>  <r_i_glide_ligand_efficiency_ln>  (220) 
-0.69496

>  <r_i_glide_gscore>  (220) 
-3.05866

>  <r_i_glide_lipo>  (220) 
-0.32853

>  <r_i_glide_hbond>  (220) 
-0.132714

>  <r_i_glide_metal>  (220) 
-0

>  <r_i_glide_rewards>  (220) 
-0.541192

>  <r_i_glide_evdw>  (220) 
-29.5517

>  <r_i_glide_ecoul>  (220) 
-4.60343

>  <r_i_glide_erotb>  (220) 
0.111878

>  <r_i_glide_esite>  (220) 
0

>  <r_i_glide_emodel>  (220) 
-40.6813

>  <r_i_glide_energy>  (220) 
-34.1551

>  <r_i_glide_einternal>  (220) 
0.906955

>  <r_i_glide_intrahb_reward>  (220) 
-0

>  <i_i_glide_confnum>  (220) 
4

>  <i_i_glide_posenum>  (220) 
2

>  <r_i_glide_eff_state_penalty>  (220) 
0

>  <ligand_id>  (220) 
76

>  <original_smiles>  (220) 
CC(C)(O)C1CCC2(C)C3CCCC45CC(CC(O)C4C3(C)CCC12C)C(O)C5O

>  <smiles>  (220) 
[H]OC1([H])C([H])(O[H])C23C([H])([H])C([H])([H])C([H])([H])C4([H])C(C([H])([H])[H])(C([H])([H])C([H])([H])C5(C([H])([H])[H])C([H])(C(O[H])(C([H])([H])[H])C([H])([H])[H])C([H])([H])C([H])([H])C45C([H])([H])[H])C2([H])C([H])(O[H])C([H])([H])C1([H])C3([H])[H]

$$$$
76:0:2
     RDKit          3D

 74 78  0  0  1  0  0  0  0  0999 V2000
   -1.1823   -7.8856    3.2535 C   0  0  0  0  0  0  0  0  0  0  0  0
    0.3335   -7.6051    3.1509 C   0  0  0  0  0  0  0  0  0  0  0  0
    0.9364   -8.9626    2.6982 C   0  0  0  0  0  0  0  0  0  0  0  0
    0.4575   -6.6696    2.1010 O   0  0  0  0  0  0  0  0  0  0  0  0
    0.9749   -7.0488    4.4851 C   0  0  2  0  0  0  0  0  0  0  0  0
    0.1068   -6.0344    5.2420 C   0  0  0  0  0  0  0  0  0  0  0  0
    0.6195   -4.7076    4.7336 C   0  0  0  0  0  0  0  0  0  0  0  0
    2.1733   -4.7586    4.7622 C   0  0  2  0  0  0  0  0  0  0  0  0
    2.5279   -4.2846    6.2066 C   0  0  0  0  0  0  0  0  0  0  0  0
    2.9101   -3.6887    3.7703 C   0  0  2  0  0  0  0  0  0  0  0  0
    1.8805   -2.8470    2.9551 C   0  0  0  0  0  0  0  0  0  0  0  0
    2.2259   -1.4000    2.6180 C   0  0  0  0  0  0  0  0  0  0  0  0
    3.6606   -1.1153    2.2116 C   0  0  0  0  0  0  0  0  0  0  0  0
    4.2808   -2.0616    1.1644 C   0  0  1  0  0  0  0  0  0  0  0  0
    5.4560   -1.2486    0.5530 C   0  0  0  0  0  0  0  0  0  0  0  0
    5.7919   -2.0216   -0.7066 C   0  0  1  0  0  0  0  0  0  0  0  0
    6.5007   -3.3089   -0.2775 C   0  0  0  0  0  0  0  0  0  0  0  0
    5.6543   -4.1659    0.6859 C   0  0  1  0  0  0  0  0  0  0  0  0
    6.5525   -5.1326    1.1815 O   0  0  0  0  0  0  0  0  0  0  0  0
    4.9051   -3.3579    1.8173 C   0  0  2  0  0  0  0  0  0  0  0  0
    4.1380   -4.2558    2.9297 C   0  0  1  0  0  0  0  0  0  0  0  0
    5.2541   -4.5494    3.9816 C   0  0  0  0  0  0  0  0  0  0  0  0
    3.5876   -5.5643    2.3223 C   0  0  0  0  0  0  0  0  0  0  0  0
    3.3802   -6.6646    3.3627 C   0  0  0  0  0  0  0  0  0  0  0  0
    2.4150   -6.3413    4.5477 C   0  0  2  0  0  0  0  0  0  0  0  0
    3.0862   -7.0309    5.7752 C   0  0  0  0  0  0  0  0  0  0  0  0
    4.4058   -2.2079   -1.3347 C   0  0  1  0  0  0  0  0  0  0  0  0
    4.3501   -3.2515   -2.2963 O   0  0  0  0  0  0  0  0  0  0  0  0
    3.4243   -2.2924   -0.1329 C   0  0  1  0  0  0  0  0  0  0  0  0
    2.6372   -3.4660   -0.1567 O   0  0  0  0  0  0  0  0  0  0  0  0
   -1.4041   -8.5597    4.0802 H   0  0  0  0  0  0  0  0  0  0  0  0
   -1.5526   -8.3677    2.3521 H   0  0  0  0  0  0  0  0  0  0  0  0
   -1.7919   -6.9946    3.3792 H   0  0  0  0  0  0  0  0  0  0  0  0
    0.6029   -9.7588    3.3634 H   0  0  0  0  0  0  0  0  0  0  0  0
    2.0101   -9.0505    2.6643 H   0  0  0  0  0  0  0  0  0  0  0  0
    0.5743   -9.2256    1.7025 H   0  0  0  0  0  0  0  0  0  0  0  0
    0.3507   -7.1397    1.2809 H   0  0  0  0  0  0  0  0  0  0  0  0
    0.9796   -7.9324    5.1228 H   0  0  0  0  0  0  0  0  0  0  0  0
   -0.9668   -6.1414    5.1294 H   0  0  0  0  0  0  0  0  0  0  0  0
    0.2832   -6.1113    6.3143 H   0  0  0  0  0  0  0  0  0  0  0  0
    0.2433   -4.6346    3.7148 H   0  0  0  0  0  0  0  0  0  0  0  0
    0.1966   -3.8703    5.2942 H   0  0  0  0  0  0  0  0  0  0  0  0
    3.5908   -4.3262    6.4262 H   0  0  0  0  0  0  0  0  0  0  0  0
    2.0197   -4.8473    6.9861 H   0  0  0  0  0  0  0  0  0  0  0  0
    2.2250   -3.2487    6.3583 H   0  0  0  0  0  0  0  0  0  0  0  0
    3.3557   -2.9298    4.4153 H   0  0  0  0  0  0  0  0  0  0  0  0
    1.5641   -3.3985    2.0773 H   0  0  0  0  0  0  0  0  0  0  0  0
    0.9658   -2.6729    3.5124 H   0  0  0  0  0  0  0  0  0  0  0  0
    1.5460   -1.0548    1.8349 H   0  0  0  0  0  0  0  0  0  0  0  0
    2.0049   -0.7732    3.4854 H   0  0  0  0  0  0  0  0  0  0  0  0
    3.6548   -0.0912    1.8374 H   0  0  0  0  0  0  0  0  0  0  0  0
    4.2969   -1.0891    3.0987 H   0  0  0  0  0  0  0  0  0  0  0  0
    5.1465   -0.2435    0.2605 H   0  0  0  0  0  0  0  0  0  0  0  0
    6.3115   -1.1318    1.2243 H   0  0  0  0  0  0  0  0  0  0  0  0
    6.4420   -1.4579   -1.3719 H   0  0  0  0  0  0  0  0  0  0  0  0
    6.7711   -3.8793   -1.1639 H   0  0  0  0  0  0  0  0  0  0  0  0
    7.4429   -3.0466    0.2083 H   0  0  0  0  0  0  0  0  0  0  0  0
    4.9252   -4.6945    0.0720 H   0  0  0  0  0  0  0  0  0  0  0  0
    6.0570   -5.7697    1.6796 H   0  0  0  0  0  0  0  0  0  0  0  0
    5.7318   -2.9111    2.3738 H   0  0  0  0  0  0  0  0  0  0  0  0
    6.0575   -5.1639    3.5823 H   0  0  0  0  0  0  0  0  0  0  0  0
    4.8917   -5.0702    4.8529 H   0  0  0  0  0  0  0  0  0  0  0  0
    5.7007   -3.6356    4.3783 H   0  0  0  0  0  0  0  0  0  0  0  0
    2.6696   -5.3867    1.7745 H   0  0  0  0  0  0  0  0  0  0  0  0
    4.2537   -6.0204    1.5986 H   0  0  0  0  0  0  0  0  0  0  0  0
    3.1083   -7.5367    2.8155 H   0  0  0  0  0  0  0  0  0  0  0  0
    4.3678   -6.9172    3.7597 H   0  0  0  0  0  0  0  0  0  0  0  0
    4.0550   -6.6109    6.0321 H   0  0  0  0  0  0  0  0  0  0  0  0
    3.2566   -8.0860    5.5664 H   0  0  0  0  0  0  0  0  0  0  0  0
    2.4728   -6.9954    6.6726 H   0  0  0  0  0  0  0  0  0  0  0  0
    4.1752   -1.2937   -1.8828 H   0  0  0  0  0  0  0  0  0  0  0  0
    4.3085   -4.0903   -1.8601 H   0  0  0  0  0  0  0  0  0  0  0  0
    2.7334   -1.4541   -0.2262 H   0  0  0  0  0  0  0  0  0  0  0  0
    3.2029   -4.2134   -0.3043 H   0  0  0  0  0  0  0  0  0  0  0  0
  1  2  1  0
  1 31  1  0
  1 32  1  0
  1 33  1  0
  2  3  1  0
  2  4  1  0
  2  5  1  0
  3 34  1  0
  3 35  1  0
  3 36  1  0
  4 37  1  0
  5 25  1  0
  5  6  1  0
  5 38  1  1
  6  7  1  0
  6 39  1  0
  6 40  1  0
  7  8  1  0
  7 41  1  0
  7 42  1  0
  8 25  1  0
  8  9  1  1
  8 10  1  0
  9 43  1  0
  9 44  1  0
  9 45  1  0
 10 21  1  0
 10 11  1  0
 10 46  1  1
 11 12  1  0
 11 47  1  0
 11 48  1  0
 12 13  1  0
 12 49  1  0
 12 50  1  0
 14 13  1  1
 13 51  1  0
 13 52  1  0
 14 20  1  0
 14 29  1  0
 14 15  1  0
 15 16  1  0
 15 53  1  0
 15 54  1  0
 16 17  1  0
 16 27  1  0
 16 55  1  6
 17 18  1  0
 17 56  1  0
 17 57  1  0
 18 19  1  0
 18 20  1  0
 18 58  1  6
 19 59  1  0
 20 21  1  0
 20 60  1  1
 21 22  1  1
 21 23  1  0
 22 61  1  0
 22 62  1  0
 22 63  1  0
 23 24  1  0
 23 64  1  0
 23 65  1  0
 24 25  1  0
 24 66  1  0
 24 67  1  0
 25 26  1  1
 26 68  1  0
 26 69  1  0
 26 70  1  0
 27 28  1  0
 27 29  1  0
 27 71  1  6
 28 72  1  0
 29 30  1  0
 29 73  1  6
 30 74  1  0
M  END
>  <i_m_ct_stereo_status>  (221) 
1

>  <s_m_source_file>  (221) 
/var/tmp/pbs.5076255.sched01/tmph8v5ro6p/78zitxkb1g.sdf

>  <i_m_source_file_index>  (221) 
22

>  <i_lp_mmshare_version>  (221) 
48012

>  <i_f3d_flags>  (221) 
0

>  <s_epik_input>  (221) 
W0NIM11DKFtDSDNdKShbT0hdKVtDQEhdKFtDSDJdW0NIMl0xKVtDQEBdKFtDSDNdKShbQ0gyXVtDSDJdMilbQ0BAXTEoW0NIM10pW0NASF0oW0NIMl1bQ0gyXVtDSDJdMylbQ0BdMihbQ0gzXSlbQ0BIXShbQ0BAXTM0NSlbQ0BIXShbT0hdKVtDSDJdW0NASF0oW0NIMl00KVtDQEBIXShbT0hdKVtDQEhdNVtPSF0=

>  <s_epik_cmdline>  (221) 
J2VwaWtfcHl0aG9uJywgJy1waHQnLCAnMi4wJywgJy1waCcsICc3LjAnLCAnLXRuJywgJzgnLCAnLW1hJywgJzIwMCcsICctaW1hZScsICc8aW5maWxlLm1hZT4nLCAnLW9tYWUnLCAnPG91dGZpbGUubWFlPic=

>  <r_lp_tautomer_probability>  (221) 
1

>  <r_epik_Ionization_Penalty>  (221) 
3.52712e-06

>  <r_epik_Ionization_Penalty_Charging>  (221) 
0

>  <r_epik_Ionization_Penalty_Neutral>  (221) 
3.52712e-06

>  <r_epik_State_Penalty>  (221) 
-0

>  <r_epik_Charging_Adjusted_Penalty>  (221) 
0

>  <i_epik_Tot_Q>  (221) 
0

>  <i_epik_Tot_abs_Q>  (221) 
0

>  <s_lp_Force_Field>  (221) 
OPLS3e

>  <r_lp_Energy>  (221) 
119.988

>  <b_lp_Chiralities_Consistent>  (221) 
1

>  <s_lp_Variant>  (221) 
76:0-1

>  <s_i_glide_gridfile>  (221) 
pfpi4k_grid

>  <i_i_glide_lignum>  (221) 
22

>  <i_i_glide_rotatable_bonds>  (221) 
5

>  <r_i_docking_score>  (221) 
-2.73457

>  <r_i_glide_ligand_efficiency>  (221) 
-0.0911522

>  <r_i_glide_ligand_efficiency_sa>  (221) 
-0.283231

>  <r_i_glide_ligand_efficiency_ln>  (221) 
-0.621323

>  <r_i_glide_gscore>  (221) 
-2.73457

>  <r_i_glide_lipo>  (221) 
-0.312441

>  <r_i_glide_hbond>  (221) 
0

>  <r_i_glide_metal>  (221) 
-0

>  <r_i_glide_rewards>  (221) 
-0.541192

>  <r_i_glide_evdw>  (221) 
-29.8943

>  <r_i_glide_ecoul>  (221) 
-3.32064

>  <r_i_glide_erotb>  (221) 
0.111878

>  <r_i_glide_esite>  (221) 
0

>  <r_i_glide_emodel>  (221) 
-38.3044

>  <r_i_glide_energy>  (221) 
-33.2149

>  <r_i_glide_einternal>  (221) 
1.317

>  <r_i_glide_intrahb_reward>  (221) 
-0

>  <i_i_glide_confnum>  (221) 
1

>  <i_i_glide_posenum>  (221) 
11

>  <r_i_glide_eff_state_penalty>  (221) 
0

>  <ligand_id>  (221) 
76

>  <original_smiles>  (221) 
CC(C)(O)C1CCC2(C)C3CCCC45CC(CC(O)C4C3(C)CCC12C)C(O)C5O

>  <smiles>  (221) 
[H]OC1([H])C([H])(O[H])C23C([H])([H])C([H])([H])C([H])([H])C4([H])C(C([H])([H])[H])(C([H])([H])C([H])([H])C5(C([H])([H])[H])C([H])(C(O[H])(C([H])([H])[H])C([H])([H])[H])C([H])([H])C([H])([H])C45C([H])([H])[H])C2([H])C([H])(O[H])C([H])([H])C1([H])C3([H])[H]

$$$$
77:0:0
     RDKit          3D

 48 52  0  0  1  0  0  0  0  0999 V2000
    5.8159   -0.6576    0.5195 C   0  0  0  0  0  0  0  0  0  0  0  0
    5.3744   -1.7994   -0.3718 C   0  0  0  0  0  0  0  0  0  0  0  0
    4.8576   -1.2909   -1.7061 C   0  0  0  0  0  0  0  0  0  0  0  0
    6.1091   -3.1147   -0.3055 C   0  0  1  0  0  0  0  0  0  0  0  0
    7.0485   -3.6743    0.7307 C   0  0  0  0  0  0  0  0  0  0  0  0
    6.8442   -5.2031    0.8971 C   0  0  1  0  0  0  0  0  0  0  0  0
    7.8788   -5.7366    1.9086 C   0  0  0  0  0  0  0  0  0  0  0  0
    7.8019   -7.2476    2.0539 C   0  0  0  0  0  0  0  0  0  0  0  0
    6.4128   -7.7814    2.4879 C   0  0  2  0  0  0  0  0  0  0  0  0
    6.3530   -7.8875    3.9021 O   0  0  0  0  0  0  0  0  0  0  0  0
    6.1815   -9.2015    1.9209 C   0  0  0  0  0  0  0  0  0  0  0  0
    4.6687   -9.4003    1.8628 C   0  0  0  0  0  0  0  0  0  0  0  0
    4.1135   -7.9915    1.8287 C   0  0  0  0  0  0  0  0  0  0  0  0
    2.9133   -7.7639    1.6981 O   0  0  0  0  0  0  0  0  0  0  0  0
    5.1966   -6.9540    2.0262 C   0  0  1  0  0  0  0  0  0  0  0  0
    4.7156   -5.5950    2.5109 C   0  0  1  0  0  0  0  0  0  0  0  0
    5.4469   -4.9644    3.5396 O   0  0  0  0  0  0  0  0  0  0  0  0
    5.3755   -5.6880    1.1523 C   0  0  1  0  0  0  0  0  0  0  0  0
    4.4807   -5.5014   -0.0977 C   0  0  0  0  0  0  0  0  0  0  0  0
    3.8556   -4.0985   -0.3207 C   0  0  1  0  0  0  0  0  0  0  0  0
    2.5982   -3.9995    0.3079 O   0  0  0  0  0  0  0  0  0  0  0  0
    4.7171   -3.0072    0.2588 C   0  0  2  0  0  0  0  0  0  0  0  0
    6.6594   -0.1238    0.0804 H   0  0  0  0  0  0  0  0  0  0  0  0
    6.1429   -1.0235    1.4918 H   0  0  0  0  0  0  0  0  0  0  0  0
    4.9993    0.0533    0.6735 H   0  0  0  0  0  0  0  0  0  0  0  0
    4.5816   -2.1213   -2.3566 H   0  0  0  0  0  0  0  0  0  0  0  0
    5.6234   -0.7068   -2.2133 H   0  0  0  0  0  0  0  0  0  0  0  0
    3.9768   -0.6651   -1.5561 H   0  0  0  0  0  0  0  0  0  0  0  0
    6.2383   -3.5924   -1.2769 H   0  0  0  0  0  0  0  0  0  0  0  0
    8.0667   -3.4634    0.4088 H   0  0  0  0  0  0  0  0  0  0  0  0
    6.9074   -3.1667    1.6838 H   0  0  0  0  0  0  0  0  0  0  0  0
    7.1393   -5.6639   -0.0386 H   0  0  0  0  0  0  0  0  0  0  0  0
    8.8808   -5.4665    1.5799 H   0  0  0  0  0  0  0  0  0  0  0  0
    7.7700   -5.2734    2.8833 H   0  0  0  0  0  0  0  0  0  0  0  0
    8.0917   -7.6749    1.0918 H   0  0  0  0  0  0  0  0  0  0  0  0
    8.5670   -7.5833    2.7549 H   0  0  0  0  0  0  0  0  0  0  0  0
    7.1173   -8.3463    4.2138 H   0  0  0  0  0  0  0  0  0  0  0  0
    6.5588   -9.2704    0.8977 H   0  0  0  0  0  0  0  0  0  0  0  0
    6.6861   -9.9763    2.5039 H   0  0  0  0  0  0  0  0  0  0  0  0
    4.3589   -9.9603    0.9805 H   0  0  0  0  0  0  0  0  0  0  0  0
    4.3060   -9.9095    2.7588 H   0  0  0  0  0  0  0  0  0  0  0  0
    3.6529   -5.3744    2.5644 H   0  0  0  0  0  0  0  0  0  0  0  0
    5.3597   -4.0279    3.4450 H   0  0  0  0  0  0  0  0  0  0  0  0
    5.0581   -5.7708   -0.9795 H   0  0  0  0  0  0  0  0  0  0  0  0
    3.6642   -6.2141   -0.0895 H   0  0  0  0  0  0  0  0  0  0  0  0
    3.7009   -3.9429   -1.3884 H   0  0  0  0  0  0  0  0  0  0  0  0
    2.2391   -3.1443    0.1045 H   0  0  0  0  0  0  0  0  0  0  0  0
    4.6236   -2.9416    1.3436 H   0  0  0  0  0  0  0  0  0  0  0  0
  1  2  1  0
  1 23  1  0
  1 24  1  0
  1 25  1  0
  2 22  1  0
  2  3  1  0
  2  4  1  0
  3 26  1  0
  3 27  1  0
  3 28  1  0
  4 22  1  0
  4  5  1  0
  4 29  1  6
  5  6  1  0
  5 30  1  0
  5 31  1  0
  6 18  1  0
  6  7  1  0
  6 32  1  6
  7  8  1  0
  7 33  1  0
  7 34  1  0
  8  9  1  0
  8 35  1  0
  8 36  1  0
  9 15  1  0
  9 10  1  1
  9 11  1  0
 10 37  1  0
 11 12  1  0
 11 38  1  0
 11 39  1  0
 12 13  1  0
 12 40  1  0
 12 41  1  0
 13 14  2  0
 15 13  1  6
 15 18  1  0
 15 16  1  0
 16 17  1  0
 16 18  1  0
 16 42  1  6
 17 43  1  0
 18 19  1  6
 19 20  1  0
 19 44  1  0
 19 45  1  0
 20 21  1  0
 20 22  1  0
 20 46  1  6
 21 47  1  0
 22 48  1  1
M  END
>  <i_m_ct_stereo_status>  (222) 
1

>  <s_m_source_file>  (222) 
/var/tmp/pbs.5076255.sched01/tmph8v5ro6p/78zitxkb1g.sdf

>  <i_m_source_file_index>  (222) 
23

>  <i_lp_mmshare_version>  (222) 
48012

>  <i_f3d_flags>  (222) 
0

>  <s_epik_input>  (222) 
W0NIM11DMShbQ0gzXSlbQ0BASF0oW0NAQEhdKFtDSDJdMilbT0hdKVtDQEBIXTFbQ0gyXVtDQEhdKFtDQEBdMihbQ0BdMzQ1KVtDQEBIXTVbT0hdKVtDSDJdW0NIMl1bQ0BdMyhbT0hdKVtDSDJdW0NIMl1DND1P

>  <s_epik_cmdline>  (222) 
J2VwaWtfcHl0aG9uJywgJy1waHQnLCAnMi4wJywgJy1waCcsICc3LjAnLCAnLXRuJywgJzgnLCAnLW1hJywgJzIwMCcsICctaW1hZScsICc8aW5maWxlLm1hZT4nLCAnLW9tYWUnLCAnPG91dGZpbGUubWFlPic=

>  <r_lp_tautomer_probability>  (222) 
1

>  <r_epik_Ionization_Penalty>  (222) 
1.00691e-06

>  <r_epik_Ionization_Penalty_Charging>  (222) 
0

>  <r_epik_Ionization_Penalty_Neutral>  (222) 
1.00691e-06

>  <r_epik_State_Penalty>  (222) 
-0

>  <r_epik_Charging_Adjusted_Penalty>  (222) 
0

>  <i_epik_Tot_Q>  (222) 
0

>  <i_epik_Tot_abs_Q>  (222) 
0

>  <s_lp_Force_Field>  (222) 
OPLS3e

>  <r_lp_Energy>  (222) 
38.5735

>  <b_lp_Chiralities_Consistent>  (222) 
1

>  <s_lp_Variant>  (222) 
77:0-1

>  <s_i_glide_gridfile>  (222) 
pfpi4k_grid

>  <i_i_glide_lignum>  (222) 
23

>  <i_i_glide_rotatable_bonds>  (222) 
3

>  <r_i_docking_score>  (222) 
-3.32885

>  <r_i_glide_ligand_efficiency>  (222) 
-0.151311

>  <r_i_glide_ligand_efficiency_sa>  (222) 
-0.42398

>  <r_i_glide_ligand_efficiency_ln>  (222) 
-0.813692

>  <r_i_glide_gscore>  (222) 
-3.32885

>  <r_i_glide_lipo>  (222) 
-0.62042

>  <r_i_glide_hbond>  (222) 
0

>  <r_i_glide_metal>  (222) 
-0

>  <r_i_glide_rewards>  (222) 
-1.32002

>  <r_i_glide_evdw>  (222) 
-24.8237

>  <r_i_glide_ecoul>  (222) 
-0.965009

>  <r_i_glide_erotb>  (222) 
0

>  <r_i_glide_esite>  (222) 
-0.00246622

>  <r_i_glide_emodel>  (222) 
-30.8767

>  <r_i_glide_energy>  (222) 
-25.7887

>  <r_i_glide_einternal>  (222) 
0.518545

>  <r_i_glide_intrahb_reward>  (222) 
-0

>  <i_i_glide_confnum>  (222) 
1

>  <i_i_glide_posenum>  (222) 
30

>  <r_i_glide_eff_state_penalty>  (222) 
0

>  <ligand_id>  (222) 
77

>  <original_smiles>  (222) 
CC1(C)C2CC3CCC4(O)CCC(=O)C45C(O)C35CC(O)C21

>  <smiles>  (222) 
[H]OC1([H])C([H])([H])C23C([H])(O[H])C24C(=O)C([H])([H])C([H])([H])C4(O[H])C([H])([H])C([H])([H])C3([H])C([H])([H])C2([H])C1([H])C2(C([H])([H])[H])C([H])([H])[H]

$$$$
77:0:1
     RDKit          3D

 48 52  0  0  1  0  0  0  0  0999 V2000
    5.3136   -2.8136    5.5077 C   0  0  0  0  0  0  0  0  0  0  0  0
    4.1373   -2.1845    4.7870 C   0  0  0  0  0  0  0  0  0  0  0  0
    3.1690   -1.5621    5.7739 C   0  0  0  0  0  0  0  0  0  0  0  0
    4.3517   -1.5405    3.4401 C   0  0  1  0  0  0  0  0  0  0  0  0
    5.4771   -1.6587    2.4484 C   0  0  0  0  0  0  0  0  0  0  0  0
    4.9424   -1.6003    0.9965 C   0  0  1  0  0  0  0  0  0  0  0  0
    6.1407   -1.6677    0.0320 C   0  0  0  0  0  0  0  0  0  0  0  0
    5.6932   -1.5356   -1.4171 C   0  0  0  0  0  0  0  0  0  0  0  0
    4.6776   -2.6003   -1.8835 C   0  0  2  0  0  0  0  0  0  0  0  0
    5.3769   -3.6783   -2.4743 O   0  0  0  0  0  0  0  0  0  0  0  0
    3.7651   -2.0296   -2.9932 C   0  0  0  0  0  0  0  0  0  0  0  0
    2.4882   -2.8712   -2.9643 C   0  0  0  0  0  0  0  0  0  0  0  0
    2.4650   -3.4515   -1.5586 C   0  0  0  0  0  0  0  0  0  0  0  0
    1.5267   -4.1277   -1.1343 O   0  0  0  0  0  0  0  0  0  0  0  0
    3.7311   -3.1433   -0.8021 C   0  0  1  0  0  0  0  0  0  0  0  0
    4.0318   -4.0667    0.3669 C   0  0  1  0  0  0  0  0  0  0  0  0
    5.3504   -4.5557    0.4808 O   0  0  0  0  0  0  0  0  0  0  0  0
    3.7886   -2.5997    0.6510 C   0  0  1  0  0  0  0  0  0  0  0  0
    2.4751   -2.2122    1.3646 C   0  0  0  0  0  0  0  0  0  0  0  0
    2.2746   -2.7080    2.8241 C   0  0  1  0  0  0  0  0  0  0  0  0
    1.6282   -3.9682    2.8781 O   0  0  0  0  0  0  0  0  0  0  0  0
    3.5957   -2.8413    3.5351 C   0  0  2  0  0  0  0  0  0  0  0  0
    5.8825   -2.0501    6.0385 H   0  0  0  0  0  0  0  0  0  0  0  0
    5.9775   -3.3031    4.7951 H   0  0  0  0  0  0  0  0  0  0  0  0
    4.9718   -3.5681    6.2154 H   0  0  0  0  0  0  0  0  0  0  0  0
    2.3521   -1.0647    5.2514 H   0  0  0  0  0  0  0  0  0  0  0  0
    3.6793   -0.8187    6.3864 H   0  0  0  0  0  0  0  0  0  0  0  0
    2.7437   -2.3310    6.4199 H   0  0  0  0  0  0  0  0  0  0  0  0
    3.7857   -0.6174    3.3073 H   0  0  0  0  0  0  0  0  0  0  0  0
    6.1708   -0.8374    2.6240 H   0  0  0  0  0  0  0  0  0  0  0  0
    6.0327   -2.5847    2.6043 H   0  0  0  0  0  0  0  0  0  0  0  0
    4.5240   -0.6013    0.8579 H   0  0  0  0  0  0  0  0  0  0  0  0
    6.8361   -0.8625    0.2691 H   0  0  0  0  0  0  0  0  0  0  0  0
    6.7249   -2.5787    0.1612 H   0  0  0  0  0  0  0  0  0  0  0  0
    5.2837   -0.5294   -1.5357 H   0  0  0  0  0  0  0  0  0  0  0  0
    6.5700   -1.5873   -2.0586 H   0  0  0  0  0  0  0  0  0  0  0  0
    4.7962   -4.4251   -2.5095 H   0  0  0  0  0  0  0  0  0  0  0  0
    3.4853   -0.9949   -2.7683 H   0  0  0  0  0  0  0  0  0  0  0  0
    4.2474   -2.0214   -3.9753 H   0  0  0  0  0  0  0  0  0  0  0  0
    1.6025   -2.2658   -3.1655 H   0  0  0  0  0  0  0  0  0  0  0  0
    2.5329   -3.6810   -3.6962 H   0  0  0  0  0  0  0  0  0  0  0  0
    3.2916   -4.7993    0.6763 H   0  0  0  0  0  0  0  0  0  0  0  0
    5.4426   -5.3042   -0.0848 H   0  0  0  0  0  0  0  0  0  0  0  0
    2.3733   -1.1275    1.3304 H   0  0  0  0  0  0  0  0  0  0  0  0
    1.6342   -2.5655    0.7911 H   0  0  0  0  0  0  0  0  0  0  0  0
    1.6314   -1.9985    3.3445 H   0  0  0  0  0  0  0  0  0  0  0  0
    2.2121   -4.6284    2.5330 H   0  0  0  0  0  0  0  0  0  0  0  0
    4.1346   -3.7421    3.2398 H   0  0  0  0  0  0  0  0  0  0  0  0
  1  2  1  0
  1 23  1  0
  1 24  1  0
  1 25  1  0
  2 22  1  0
  2  3  1  0
  2  4  1  0
  3 26  1  0
  3 27  1  0
  3 28  1  0
  4 22  1  0
  4  5  1  0
  4 29  1  1
  5  6  1  0
  5 30  1  0
  5 31  1  0
  6 18  1  0
  6  7  1  0
  6 32  1  1
  7  8  1  0
  7 33  1  0
  7 34  1  0
  8  9  1  0
  8 35  1  0
  8 36  1  0
  9 15  1  0
  9 10  1  6
  9 11  1  0
 10 37  1  0
 11 12  1  0
 11 38  1  0
 11 39  1  0
 12 13  1  0
 12 40  1  0
 12 41  1  0
 13 14  2  0
 15 13  1  6
 15 18  1  0
 15 16  1  0
 16 17  1  0
 16 18  1  0
 16 42  1  1
 17 43  1  0
 18 19  1  1
 19 20  1  0
 19 44  1  0
 19 45  1  0
 20 21  1  0
 20 22  1  0
 20 46  1  1
 21 47  1  0
 22 48  1  6
M  END
>  <i_m_ct_stereo_status>  (223) 
1

>  <s_m_source_file>  (223) 
/var/tmp/pbs.5076255.sched01/tmph8v5ro6p/78zitxkb1g.sdf

>  <i_m_source_file_index>  (223) 
23

>  <i_lp_mmshare_version>  (223) 
48012

>  <i_f3d_flags>  (223) 
0

>  <s_epik_input>  (223) 
W0NIM11DMShbQ0gzXSlbQ0BASF0oW0NAQEhdKFtDSDJdMilbT0hdKVtDQEBIXTFbQ0gyXVtDQEhdKFtDQEBdMihbQ0BdMzQ1KVtDQEBIXTVbT0hdKVtDSDJdW0NIMl1bQ0BdMyhbT0hdKVtDSDJdW0NIMl1DND1P

>  <s_epik_cmdline>  (223) 
J2VwaWtfcHl0aG9uJywgJy1waHQnLCAnMi4wJywgJy1waCcsICc3LjAnLCAnLXRuJywgJzgnLCAnLW1hJywgJzIwMCcsICctaW1hZScsICc8aW5maWxlLm1hZT4nLCAnLW9tYWUnLCAnPG91dGZpbGUubWFlPic=

>  <r_lp_tautomer_probability>  (223) 
1

>  <r_epik_Ionization_Penalty>  (223) 
1.00691e-06

>  <r_epik_Ionization_Penalty_Charging>  (223) 
0

>  <r_epik_Ionization_Penalty_Neutral>  (223) 
1.00691e-06

>  <r_epik_State_Penalty>  (223) 
-0

>  <r_epik_Charging_Adjusted_Penalty>  (223) 
0

>  <i_epik_Tot_Q>  (223) 
0

>  <i_epik_Tot_abs_Q>  (223) 
0

>  <s_lp_Force_Field>  (223) 
OPLS3e

>  <r_lp_Energy>  (223) 
38.5735

>  <b_lp_Chiralities_Consistent>  (223) 
1

>  <s_lp_Variant>  (223) 
77:0-1

>  <s_i_glide_gridfile>  (223) 
pfpi4k_grid

>  <i_i_glide_lignum>  (223) 
23

>  <i_i_glide_rotatable_bonds>  (223) 
3

>  <r_i_docking_score>  (223) 
-3.18787

>  <r_i_glide_ligand_efficiency>  (223) 
-0.144903

>  <r_i_glide_ligand_efficiency_sa>  (223) 
-0.406024

>  <r_i_glide_ligand_efficiency_ln>  (223) 
-0.779231

>  <r_i_glide_gscore>  (223) 
-3.18787

>  <r_i_glide_lipo>  (223) 
-0.349108

>  <r_i_glide_hbond>  (223) 
-0.00690348

>  <r_i_glide_metal>  (223) 
-0

>  <r_i_glide_rewards>  (223) 
-1.47679

>  <r_i_glide_evdw>  (223) 
-21.16

>  <r_i_glide_ecoul>  (223) 
-1.98044

>  <r_i_glide_erotb>  (223) 
0

>  <r_i_glide_esite>  (223) 
0

>  <r_i_glide_emodel>  (223) 
-27.8945

>  <r_i_glide_energy>  (223) 
-23.1405

>  <r_i_glide_einternal>  (223) 
0.350453

>  <r_i_glide_intrahb_reward>  (223) 
-0

>  <i_i_glide_confnum>  (223) 
2

>  <i_i_glide_posenum>  (223) 
15

>  <r_i_glide_eff_state_penalty>  (223) 
0

>  <ligand_id>  (223) 
77

>  <original_smiles>  (223) 
CC1(C)C2CC3CCC4(O)CCC(=O)C45C(O)C35CC(O)C21

>  <smiles>  (223) 
[H]OC1([H])C([H])([H])C23C([H])(O[H])C24C(=O)C([H])([H])C([H])([H])C4(O[H])C([H])([H])C([H])([H])C3([H])C([H])([H])C2([H])C1([H])C2(C([H])([H])[H])C([H])([H])[H]

$$$$
77:0:2
     RDKit          3D

 48 52  0  0  1  0  0  0  0  0999 V2000
    4.5878   -6.6022    4.5826 C   0  0  0  0  0  0  0  0  0  0  0  0
    3.5171   -5.6235    4.1475 C   0  0  0  0  0  0  0  0  0  0  0  0
    2.3099   -5.7009    5.0646 C   0  0  0  0  0  0  0  0  0  0  0  0
    3.9226   -4.3004    3.5569 C   0  0  1  0  0  0  0  0  0  0  0  0
    5.2299   -3.8268    2.9751 C   0  0  0  0  0  0  0  0  0  0  0  0
    4.9863   -2.8632    1.7921 C   0  0  1  0  0  0  0  0  0  0  0  0
    6.3416   -2.3622    1.2781 C   0  0  0  0  0  0  0  0  0  0  0  0
    6.1780   -1.3506    0.1682 C   0  0  0  0  0  0  0  0  0  0  0  0
    5.4059   -1.8691   -1.0616 C   0  0  2  0  0  0  0  0  0  0  0  0
    6.3582   -2.4191   -1.9399 O   0  0  0  0  0  0  0  0  0  0  0  0
    4.6775   -0.7212   -1.7838 C   0  0  0  0  0  0  0  0  0  0  0  0
    3.5139   -1.3346   -2.5591 C   0  0  0  0  0  0  0  0  0  0  0  0
    3.2669   -2.6466   -1.8442 C   0  0  0  0  0  0  0  0  0  0  0  0
    2.3352   -3.3953   -2.1371 O   0  0  0  0  0  0  0  0  0  0  0  0
    4.3218   -2.9240   -0.7877 C   0  0  1  0  0  0  0  0  0  0  0  0
    4.4853   -4.3714   -0.3820 C   0  0  1  0  0  0  0  0  0  0  0  0
    5.8072   -4.8462   -0.3116 O   0  0  0  0  0  0  0  0  0  0  0  0
    4.0434   -3.3851    0.6632 C   0  0  1  0  0  0  0  0  0  0  0  0
    2.5905   -3.4682    1.1502 C   0  0  0  0  0  0  0  0  0  0  0  0
    2.1692   -4.7580    1.9073 C   0  0  1  0  0  0  0  0  0  0  0  0
    1.6266   -5.7319    1.0288 O   0  0  0  0  0  0  0  0  0  0  0  0
    3.3186   -5.3633    2.6695 C   0  0  2  0  0  0  0  0  0  0  0  0
    4.9452   -6.3477    5.5804 H   0  0  0  0  0  0  0  0  0  0  0  0
    5.4322   -6.5697    3.8936 H   0  0  0  0  0  0  0  0  0  0  0  0
    4.1913   -7.6170    4.5868 H   0  0  0  0  0  0  0  0  0  0  0  0
    1.5636   -4.9568    4.7843 H   0  0  0  0  0  0  0  0  0  0  0  0
    2.6055   -5.5107    6.0963 H   0  0  0  0  0  0  0  0  0  0  0  0
    1.8527   -6.6887    4.9993 H   0  0  0  0  0  0  0  0  0  0  0  0
    3.2979   -3.4689    3.8879 H   0  0  0  0  0  0  0  0  0  0  0  0
    5.7735   -3.3106    3.7623 H   0  0  0  0  0  0  0  0  0  0  0  0
    5.8385   -4.6747    2.6602 H   0  0  0  0  0  0  0  0  0  0  0  0
    4.4976   -1.9759    2.1991 H   0  0  0  0  0  0  0  0  0  0  0  0
    6.8596   -1.8660    2.0842 H   0  0  0  0  0  0  0  0  0  0  0  0
    7.0043   -3.1681    0.9635 H   0  0  0  0  0  0  0  0  0  0  0  0
    5.6907   -0.4672    0.5885 H   0  0  0  0  0  0  0  0  0  0  0  0
    7.1744   -1.0328   -0.1324 H   0  0  0  0  0  0  0  0  0  0  0  0
    6.5312   -3.3133   -1.6703 H   0  0  0  0  0  0  0  0  0  0  0  0
    4.2437   -0.0598   -1.0313 H   0  0  0  0  0  0  0  0  0  0  0  0
    5.3429   -0.1195   -2.4090 H   0  0  0  0  0  0  0  0  0  0  0  0
    2.6272   -0.6927   -2.5305 H   0  0  0  0  0  0  0  0  0  0  0  0
    3.7866   -1.5251   -3.6013 H   0  0  0  0  0  0  0  0  0  0  0  0
    3.7746   -5.1266   -0.7082 H   0  0  0  0  0  0  0  0  0  0  0  0
    6.3111   -4.2441    0.2199 H   0  0  0  0  0  0  0  0  0  0  0  0
    2.3821   -2.5930    1.7669 H   0  0  0  0  0  0  0  0  0  0  0  0
    1.9207   -3.3622    0.3059 H   0  0  0  0  0  0  0  0  0  0  0  0
    1.3739   -4.4918    2.6012 H   0  0  0  0  0  0  0  0  0  0  0  0
    2.3080   -6.0426    0.4450 H   0  0  0  0  0  0  0  0  0  0  0  0
    4.0014   -5.9144    2.0234 H   0  0  0  0  0  0  0  0  0  0  0  0
  1  2  1  0
  1 23  1  0
  1 24  1  0
  1 25  1  0
  2 22  1  0
  2  3  1  0
  2  4  1  0
  3 26  1  0
  3 27  1  0
  3 28  1  0
  4 22  1  0
  4  5  1  0
  4 29  1  1
  5  6  1  0
  5 30  1  0
  5 31  1  0
  6 18  1  0
  6  7  1  0
  6 32  1  1
  7  8  1  0
  7 33  1  0
  7 34  1  0
  8  9  1  0
  8 35  1  0
  8 36  1  0
  9 15  1  0
  9 10  1  6
  9 11  1  0
 10 37  1  0
 11 12  1  0
 11 38  1  0
 11 39  1  0
 12 13  1  0
 12 40  1  0
 12 41  1  0
 13 14  2  0
 15 13  1  6
 15 18  1  0
 15 16  1  0
 16 17  1  0
 16 18  1  0
 16 42  1  6
 17 43  1  0
 18 19  1  1
 19 20  1  0
 19 44  1  0
 19 45  1  0
 20 21  1  0
 20 22  1  0
 20 46  1  1
 21 47  1  0
 22 48  1  6
M  END
>  <i_m_ct_stereo_status>  (224) 
1

>  <s_m_source_file>  (224) 
/var/tmp/pbs.5076255.sched01/tmph8v5ro6p/78zitxkb1g.sdf

>  <i_m_source_file_index>  (224) 
23

>  <i_lp_mmshare_version>  (224) 
48012

>  <i_f3d_flags>  (224) 
0

>  <s_epik_input>  (224) 
W0NIM11DMShbQ0gzXSlbQ0BASF0oW0NAQEhdKFtDSDJdMilbT0hdKVtDQEBIXTFbQ0gyXVtDQEhdKFtDQEBdMihbQ0BdMzQ1KVtDQEBIXTVbT0hdKVtDSDJdW0NIMl1bQ0BdMyhbT0hdKVtDSDJdW0NIMl1DND1P

>  <s_epik_cmdline>  (224) 
J2VwaWtfcHl0aG9uJywgJy1waHQnLCAnMi4wJywgJy1waCcsICc3LjAnLCAnLXRuJywgJzgnLCAnLW1hJywgJzIwMCcsICctaW1hZScsICc8aW5maWxlLm1hZT4nLCAnLW9tYWUnLCAnPG91dGZpbGUubWFlPic=

>  <r_lp_tautomer_probability>  (224) 
1

>  <r_epik_Ionization_Penalty>  (224) 
1.00691e-06

>  <r_epik_Ionization_Penalty_Charging>  (224) 
0

>  <r_epik_Ionization_Penalty_Neutral>  (224) 
1.00691e-06

>  <r_epik_State_Penalty>  (224) 
-0

>  <r_epik_Charging_Adjusted_Penalty>  (224) 
0

>  <i_epik_Tot_Q>  (224) 
0

>  <i_epik_Tot_abs_Q>  (224) 
0

>  <s_lp_Force_Field>  (224) 
OPLS3e

>  <r_lp_Energy>  (224) 
38.5735

>  <b_lp_Chiralities_Consistent>  (224) 
1

>  <s_lp_Variant>  (224) 
77:0-1

>  <s_i_glide_gridfile>  (224) 
pfpi4k_grid

>  <i_i_glide_lignum>  (224) 
23

>  <i_i_glide_rotatable_bonds>  (224) 
3

>  <r_i_docking_score>  (224) 
-3.12759

>  <r_i_glide_ligand_efficiency>  (224) 
-0.142163

>  <r_i_glide_ligand_efficiency_sa>  (224) 
-0.398347

>  <r_i_glide_ligand_efficiency_ln>  (224) 
-0.764497

>  <r_i_glide_gscore>  (224) 
-3.12759

>  <r_i_glide_lipo>  (224) 
-0.194328

>  <r_i_glide_hbond>  (224) 
-0.131154

>  <r_i_glide_metal>  (224) 
-0

>  <r_i_glide_rewards>  (224) 
-1.32002

>  <r_i_glide_evdw>  (224) 
-18.8337

>  <r_i_glide_ecoul>  (224) 
-3.37539

>  <r_i_glide_erotb>  (224) 
0

>  <r_i_glide_esite>  (224) 
-0.0340938

>  <r_i_glide_emodel>  (224) 
-27.0334

>  <r_i_glide_energy>  (224) 
-22.2091

>  <r_i_glide_einternal>  (224) 
0.159702

>  <r_i_glide_intrahb_reward>  (224) 
-0

>  <i_i_glide_confnum>  (224) 
1

>  <i_i_glide_posenum>  (224) 
13

>  <r_i_glide_eff_state_penalty>  (224) 
0

>  <ligand_id>  (224) 
77

>  <original_smiles>  (224) 
CC1(C)C2CC3CCC4(O)CCC(=O)C45C(O)C35CC(O)C21

>  <smiles>  (224) 
[H]OC1([H])C([H])([H])C23C([H])(O[H])C24C(=O)C([H])([H])C([H])([H])C4(O[H])C([H])([H])C([H])([H])C3([H])C([H])([H])C2([H])C1([H])C2(C([H])([H])[H])C([H])([H])[H]

$$$$
78:0:0
     RDKit          3D

 58 62  0  0  1  0  0  0  0  0999 V2000
    3.5467   -7.3232    4.3239 C   0  0  0  0  0  0  0  0  0  0  0  0
    4.3804   -6.1906    3.7040 C   0  0  2  0  0  0  0  0  0  0  0  0
    5.3513   -6.6915    2.6291 C   0  0  0  0  0  0  0  0  0  0  0  0
    6.2841   -5.5720    2.1410 C   0  0  0  0  0  0  0  0  0  0  0  0
    5.6693   -4.1286    2.0931 C   0  0  2  0  0  0  0  0  0  0  0  0
    4.6300   -3.9120    3.2214 C   0  0  2  0  0  0  0  0  0  0  0  0
    5.2208   -4.2094    4.6082 C   0  0  0  0  0  0  0  0  0  0  0  0
    5.1880   -5.6296    4.7370 O   0  0  0  0  0  0  0  0  0  0  0  0
    3.5604   -4.9908    3.2133 C   0  0  1  0  0  0  0  0  0  0  0  0
    2.7005   -5.1737    1.9460 C   0  0  0  0  0  0  0  0  0  0  0  0
    3.3632   -4.9956    0.5688 C   0  0  0  0  0  0  0  0  0  0  0  0
    3.8320   -3.5386    0.2788 C   0  0  2  0  0  0  0  0  0  0  0  0
    3.5008   -3.0268   -1.1834 C   0  0  1  0  0  0  0  0  0  0  0  0
    2.0348   -3.4360   -1.5558 C   0  0  0  0  0  0  0  0  0  0  0  0
    3.5449   -1.4675   -1.2570 C   0  0  0  0  0  0  0  0  0  0  0  0
    3.2563   -0.9179   -2.6716 C   0  0  0  0  0  0  0  0  0  0  0  0
    4.0302   -1.6217   -3.7525 C   0  0  0  0  0  0  0  0  0  0  0  0
    4.3006   -1.0146   -4.7736 O   0  0  0  0  0  0  0  0  0  0  0  0
    4.2210   -3.1179   -3.6409 C   0  0  0  0  0  0  0  0  0  0  0  0
    4.5217   -3.5714   -2.2088 C   0  0  1  0  0  0  0  0  0  0  0  0
    5.9612   -3.2576   -1.8040 C   0  0  0  0  0  0  0  0  0  0  0  0
    6.2514   -3.8512   -0.4134 C   0  0  0  0  0  0  0  0  0  0  0  0
    5.3327   -3.3727    0.7370 C   0  0  2  0  0  0  0  0  0  0  0  0
    5.6737   -1.8748    1.0168 C   0  0  0  0  0  0  0  0  0  0  0  0
    2.9117   -7.8077    3.5776 H   0  0  0  0  0  0  0  0  0  0  0  0
    2.9080   -6.9464    5.1224 H   0  0  0  0  0  0  0  0  0  0  0  0
    4.1945   -8.0878    4.7589 H   0  0  0  0  0  0  0  0  0  0  0  0
    5.9566   -7.5094    3.0217 H   0  0  0  0  0  0  0  0  0  0  0  0
    4.7938   -7.1300    1.7994 H   0  0  0  0  0  0  0  0  0  0  0  0
    7.1295   -5.5368    2.8276 H   0  0  0  0  0  0  0  0  0  0  0  0
    6.7050   -5.8990    1.1954 H   0  0  0  0  0  0  0  0  0  0  0  0
    6.5592   -3.6045    2.4071 H   0  0  0  0  0  0  0  0  0  0  0  0
    4.2068   -2.9117    3.1760 H   0  0  0  0  0  0  0  0  0  0  0  0
    6.2137   -3.8192    4.7869 H   0  0  0  0  0  0  0  0  0  0  0  0
    4.5736   -3.8002    5.3806 H   0  0  0  0  0  0  0  0  0  0  0  0
    2.8533   -4.7654    4.0174 H   0  0  0  0  0  0  0  0  0  0  0  0
    2.2409   -6.1558    1.9787 H   0  0  0  0  0  0  0  0  0  0  0  0
    1.8712   -4.4593    2.0176 H   0  0  0  0  0  0  0  0  0  0  0  0
    4.1784   -5.6824    0.3996 H   0  0  0  0  0  0  0  0  0  0  0  0
    2.6157   -5.3457   -0.1373 H   0  0  0  0  0  0  0  0  0  0  0  0
    3.2235   -2.9050    0.9319 H   0  0  0  0  0  0  0  0  0  0  0  0
    1.6139   -2.8669   -2.3725 H   0  0  0  0  0  0  0  0  0  0  0  0
    1.4268   -3.2191   -0.6829 H   0  0  0  0  0  0  0  0  0  0  0  0
    1.8205   -4.4816   -1.8301 H   0  0  0  0  0  0  0  0  0  0  0  0
    2.8722   -1.0230   -0.5156 H   0  0  0  0  0  0  0  0  0  0  0  0
    4.5104   -1.0481   -0.9975 H   0  0  0  0  0  0  0  0  0  0  0  0
    2.2401   -1.0515   -2.9371 H   0  0  0  0  0  0  0  0  0  0  0  0
    3.4705    0.1657   -2.7145 H   0  0  0  0  0  0  0  0  0  0  0  0
    3.2889   -3.5496   -3.9903 H   0  0  0  0  0  0  0  0  0  0  0  0
    5.0021   -3.4557   -4.3144 H   0  0  0  0  0  0  0  0  0  0  0  0
    4.4629   -4.6556   -2.2035 H   0  0  0  0  0  0  0  0  0  0  0  0
    6.6142   -3.7490   -2.5311 H   0  0  0  0  0  0  0  0  0  0  0  0
    6.2021   -2.1942   -1.8749 H   0  0  0  0  0  0  0  0  0  0  0  0
    6.0864   -4.9153   -0.5417 H   0  0  0  0  0  0  0  0  0  0  0  0
    7.3004   -3.6923   -0.1564 H   0  0  0  0  0  0  0  0  0  0  0  0
    6.1330   -1.3930    0.1574 H   0  0  0  0  0  0  0  0  0  0  0  0
    6.4183   -1.7160    1.7958 H   0  0  0  0  0  0  0  0  0  0  0  0
    4.7914   -1.2978    1.3023 H   0  0  0  0  0  0  0  0  0  0  0  0
  2  1  1  1
  1 25  1  0
  1 26  1  0
  1 27  1  0
  2  8  1  0
  2  9  1  0
  2  3  1  0
  3  4  1  0
  3 28  1  0
  3 29  1  0
  4  5  1  0
  4 30  1  0
  4 31  1  0
  5 23  1  0
  5  6  1  0
  5 32  1  1
  6  7  1  0
  6  9  1  0
  6 33  1  1
  7  8  1  0
  7 34  1  0
  7 35  1  0
  9 10  1  0
  9 36  1  1
 10 11  1  0
 10 37  1  0
 10 38  1  0
 11 12  1  0
 11 39  1  0
 11 40  1  0
 12 23  1  0
 12 13  1  0
 12 41  1  1
 13 20  1  0
 13 14  1  6
 13 15  1  0
 14 42  1  0
 14 43  1  0
 14 44  1  0
 15 16  1  0
 15 45  1  0
 15 46  1  0
 16 17  1  0
 16 47  1  0
 16 48  1  0
 17 18  2  0
 17 19  1  0
 19 20  1  0
 19 49  1  0
 19 50  1  0
 20 21  1  0
 20 51  1  6
 21 22  1  0
 21 52  1  0
 21 53  1  0
 22 23  1  0
 22 54  1  0
 22 55  1  0
 23 24  1  1
 24 56  1  0
 24 57  1  0
 24 58  1  0
M  END
>  <i_m_ct_stereo_status>  (225) 
1

>  <s_m_source_file>  (225) 
/var/tmp/pbs.5076255.sched01/tmph8v5ro6p/78zitxkb1g.sdf

>  <i_m_source_file_index>  (225) 
24

>  <i_lp_mmshare_version>  (225) 
48012

>  <i_f3d_flags>  (225) 
0

>  <s_epik_input>  (225) 
W0NIM11bQ0BdMTJbQ0BASF0zW0NAQEhdKFtDSDJdTzIpW0NAQEhdKFtDSDJdW0NIMl0xKVtDQF00KFtDSDNdKVtDQEhdKFtDSDJdW0NIMl0zKVtDQF01KFtDSDNdKVtDQEhdKFtDSDJdW0NIMl00KVtDSDJdQyg9TylbQ0gyXVtDSDJdNQ==

>  <s_epik_cmdline>  (225) 
J2VwaWtfcHl0aG9uJywgJy1waHQnLCAnMi4wJywgJy1waCcsICc3LjAnLCAnLXRuJywgJzgnLCAnLW1hJywgJzIwMCcsICctaW1hZScsICc8aW5maWxlLm1hZT4nLCAnLW9tYWUnLCAnPG91dGZpbGUubWFlPic=

>  <r_lp_tautomer_probability>  (225) 
1

>  <r_epik_Ionization_Penalty>  (225) 
1.20957e-10

>  <r_epik_Ionization_Penalty_Charging>  (225) 
0

>  <r_epik_Ionization_Penalty_Neutral>  (225) 
1.20957e-10

>  <r_epik_State_Penalty>  (225) 
-0

>  <r_epik_Charging_Adjusted_Penalty>  (225) 
0

>  <i_epik_Tot_Q>  (225) 
0

>  <i_epik_Tot_abs_Q>  (225) 
0

>  <s_lp_Force_Field>  (225) 
OPLS3e

>  <r_lp_Energy>  (225) 
73.9362

>  <b_lp_Chiralities_Consistent>  (225) 
1

>  <s_lp_Variant>  (225) 
78:0-1

>  <s_i_glide_gridfile>  (225) 
pfpi4k_grid

>  <i_i_glide_lignum>  (225) 
24

>  <i_i_glide_rotatable_bonds>  (225) 
0

>  <r_i_docking_score>  (225) 
-3.97293

>  <r_i_glide_ligand_efficiency>  (225) 
-0.165539

>  <r_i_glide_ligand_efficiency_sa>  (225) 
-0.477496

>  <r_i_glide_ligand_efficiency_ln>  (225) 
-0.950903

>  <r_i_glide_gscore>  (225) 
-3.97293

>  <r_i_glide_lipo>  (225) 
-0.77444

>  <r_i_glide_hbond>  (225) 
-0.32

>  <r_i_glide_metal>  (225) 
-0

>  <r_i_glide_rewards>  (225) 
-1.37407

>  <r_i_glide_evdw>  (225) 
-20.9287

>  <r_i_glide_ecoul>  (225) 
-3.05318

>  <r_i_glide_erotb>  (225) 
0

>  <r_i_glide_esite>  (225) 
0

>  <r_i_glide_emodel>  (225) 
-29.5534

>  <r_i_glide_energy>  (225) 
-23.9819

>  <r_i_glide_einternal>  (225) 
0

>  <r_i_glide_intrahb_reward>  (225) 
-0

>  <i_i_glide_confnum>  (225) 
2

>  <i_i_glide_posenum>  (225) 
11

>  <r_i_glide_eff_state_penalty>  (225) 
0

>  <ligand_id>  (225) 
78

>  <original_smiles>  (225) 
CC12CCC3C(CO1)C2CCC1C2(C)CCC(=O)CC2CCC31C

>  <smiles>  (225) 
[H]C([H])([H])C12OC([H])([H])C3([H])C1([H])C([H])([H])C([H])([H])C1([H])C4(C([H])([H])[H])C([H])([H])C([H])([H])C(=O)C([H])([H])C4([H])C([H])([H])C([H])([H])C1(C([H])([H])[H])C3([H])C([H])([H])C2([H])[H]

$$$$
78:0:1
     RDKit          3D

 58 62  0  0  1  0  0  0  0  0999 V2000
    3.5081   -2.9929    7.1537 C   0  0  0  0  0  0  0  0  0  0  0  0
    3.5575   -3.8948    5.9084 C   0  0  2  0  0  0  0  0  0  0  0  0
    2.2364   -3.8910    5.1216 C   0  0  0  0  0  0  0  0  0  0  0  0
    2.2566   -4.9024    3.9541 C   0  0  0  0  0  0  0  0  0  0  0  0
    3.6416   -5.1574    3.2545 C   0  0  2  0  0  0  0  0  0  0  0  0
    4.8190   -4.9645    4.2515 C   0  0  2  0  0  0  0  0  0  0  0  0
    4.6778   -5.8970    5.4635 C   0  0  0  0  0  0  0  0  0  0  0  0
    3.7669   -5.2368    6.3439 O   0  0  0  0  0  0  0  0  0  0  0  0
    4.7576   -3.6321    4.9867 C   0  0  1  0  0  0  0  0  0  0  0  0
    4.7724   -2.3291    4.1567 C   0  0  0  0  0  0  0  0  0  0  0  0
    4.0295   -2.2963    2.8083 C   0  0  0  0  0  0  0  0  0  0  0  0
    4.6577   -3.2218    1.7198 C   0  0  2  0  0  0  0  0  0  0  0  0
    4.7795   -2.5396    0.2767 C   0  0  1  0  0  0  0  0  0  0  0  0
    5.2741   -1.0688    0.4249 C   0  0  0  0  0  0  0  0  0  0  0  0
    5.8317   -3.2459   -0.6444 C   0  0  0  0  0  0  0  0  0  0  0  0
    5.9263   -2.6891   -2.0830 C   0  0  0  0  0  0  0  0  0  0  0  0
    4.5478   -2.5524   -2.7331 C   0  0  0  0  0  0  0  0  0  0  0  0
    4.3583   -2.8429   -3.9131 O   0  0  0  0  0  0  0  0  0  0  0  0
    3.4434   -1.9559   -1.8651 C   0  0  0  0  0  0  0  0  0  0  0  0
    3.4008   -2.5559   -0.4405 C   0  0  1  0  0  0  0  0  0  0  0  0
    2.7873   -3.9652   -0.4587 C   0  0  0  0  0  0  0  0  0  0  0  0
    2.6291   -4.5496    0.9515 C   0  0  0  0  0  0  0  0  0  0  0  0
    3.9427   -4.6375    1.7741 C   0  0  2  0  0  0  0  0  0  0  0  0
    4.8574   -5.7349    1.1322 C   0  0  0  0  0  0  0  0  0  0  0  0
    3.3349   -1.9482    6.8936 H   0  0  0  0  0  0  0  0  0  0  0  0
    4.4428   -3.0492    7.7137 H   0  0  0  0  0  0  0  0  0  0  0  0
    2.7091   -3.3039    7.8280 H   0  0  0  0  0  0  0  0  0  0  0  0
    1.4117   -4.1402    5.7906 H   0  0  0  0  0  0  0  0  0  0  0  0
    2.0153   -2.8850    4.7664 H   0  0  0  0  0  0  0  0  0  0  0  0
    1.9635   -5.8520    4.3992 H   0  0  0  0  0  0  0  0  0  0  0  0
    1.4361   -4.6874    3.2786 H   0  0  0  0  0  0  0  0  0  0  0  0
    3.5591   -6.2367    3.1301 H   0  0  0  0  0  0  0  0  0  0  0  0
    5.7774   -5.1194    3.7577 H   0  0  0  0  0  0  0  0  0  0  0  0
    4.3357   -6.9011    5.2127 H   0  0  0  0  0  0  0  0  0  0  0  0
    5.6346   -5.9894    5.9796 H   0  0  0  0  0  0  0  0  0  0  0  0
    5.6380   -3.5738    5.6334 H   0  0  0  0  0  0  0  0  0  0  0  0
    4.3958   -1.5198    4.7802 H   0  0  0  0  0  0  0  0  0  0  0  0
    5.8122   -2.0721    3.9613 H   0  0  0  0  0  0  0  0  0  0  0  0
    2.9679   -2.4901    2.9052 H   0  0  0  0  0  0  0  0  0  0  0  0
    4.0420   -1.2516    2.5336 H   0  0  0  0  0  0  0  0  0  0  0  0
    5.6911   -3.3749    2.0358 H   0  0  0  0  0  0  0  0  0  0  0  0
    5.6559   -0.6376   -0.4955 H   0  0  0  0  0  0  0  0  0  0  0  0
    6.0743   -0.9883    1.1629 H   0  0  0  0  0  0  0  0  0  0  0  0
    4.4723   -0.3891    0.7097 H   0  0  0  0  0  0  0  0  0  0  0  0
    6.8181   -3.2299   -0.1768 H   0  0  0  0  0  0  0  0  0  0  0  0
    5.5999   -4.2919   -0.7833 H   0  0  0  0  0  0  0  0  0  0  0  0
    6.4049   -1.7137   -2.0927 H   0  0  0  0  0  0  0  0  0  0  0  0
    6.5515   -3.3374   -2.6974 H   0  0  0  0  0  0  0  0  0  0  0  0
    3.5988   -0.8793   -1.8082 H   0  0  0  0  0  0  0  0  0  0  0  0
    2.4812   -2.0974   -2.3566 H   0  0  0  0  0  0  0  0  0  0  0  0
    2.7174   -1.9301    0.1367 H   0  0  0  0  0  0  0  0  0  0  0  0
    1.8061   -3.9168   -0.9284 H   0  0  0  0  0  0  0  0  0  0  0  0
    3.3664   -4.6304   -1.0925 H   0  0  0  0  0  0  0  0  0  0  0  0
    1.9286   -3.8819    1.4462 H   0  0  0  0  0  0  0  0  0  0  0  0
    2.1523   -5.5309    0.8976 H   0  0  0  0  0  0  0  0  0  0  0  0
    4.6265   -5.9258    0.0864 H   0  0  0  0  0  0  0  0  0  0  0  0
    4.7679   -6.7230    1.5824 H   0  0  0  0  0  0  0  0  0  0  0  0
    5.9146   -5.4782    1.2008 H   0  0  0  0  0  0  0  0  0  0  0  0
  2  1  1  1
  1 25  1  0
  1 26  1  0
  1 27  1  0
  2  8  1  0
  2  9  1  0
  2  3  1  0
  3  4  1  0
  3 28  1  0
  3 29  1  0
  4  5  1  0
  4 30  1  0
  4 31  1  0
  5 23  1  0
  5  6  1  0
  5 32  1  6
  6  7  1  0
  6  9  1  0
  6 33  1  6
  7  8  1  0
  7 34  1  0
  7 35  1  0
  9 10  1  0
  9 36  1  1
 10 11  1  0
 10 37  1  0
 10 38  1  0
 11 12  1  0
 11 39  1  0
 11 40  1  0
 12 23  1  0
 12 13  1  0
 12 41  1  1
 13 20  1  0
 13 14  1  1
 13 15  1  0
 14 42  1  0
 14 43  1  0
 14 44  1  0
 15 16  1  0
 15 45  1  0
 15 46  1  0
 16 17  1  0
 16 47  1  0
 16 48  1  0
 17 18  2  0
 17 19  1  0
 19 20  1  0
 19 49  1  0
 19 50  1  0
 20 21  1  0
 20 51  1  1
 21 22  1  0
 21 52  1  0
 21 53  1  0
 22 23  1  0
 22 54  1  0
 22 55  1  0
 23 24  1  6
 24 56  1  0
 24 57  1  0
 24 58  1  0
M  END
>  <i_m_ct_stereo_status>  (226) 
1

>  <s_m_source_file>  (226) 
/var/tmp/pbs.5076255.sched01/tmph8v5ro6p/78zitxkb1g.sdf

>  <i_m_source_file_index>  (226) 
24

>  <i_lp_mmshare_version>  (226) 
48012

>  <i_f3d_flags>  (226) 
0

>  <s_epik_input>  (226) 
W0NIM11bQ0BdMTJbQ0BASF0zW0NAQEhdKFtDSDJdTzIpW0NAQEhdKFtDSDJdW0NIMl0xKVtDQF00KFtDSDNdKVtDQEhdKFtDSDJdW0NIMl0zKVtDQF01KFtDSDNdKVtDQEhdKFtDSDJdW0NIMl00KVtDSDJdQyg9TylbQ0gyXVtDSDJdNQ==

>  <s_epik_cmdline>  (226) 
J2VwaWtfcHl0aG9uJywgJy1waHQnLCAnMi4wJywgJy1waCcsICc3LjAnLCAnLXRuJywgJzgnLCAnLW1hJywgJzIwMCcsICctaW1hZScsICc8aW5maWxlLm1hZT4nLCAnLW9tYWUnLCAnPG91dGZpbGUubWFlPic=

>  <r_lp_tautomer_probability>  (226) 
1

>  <r_epik_Ionization_Penalty>  (226) 
1.20957e-10

>  <r_epik_Ionization_Penalty_Charging>  (226) 
0

>  <r_epik_Ionization_Penalty_Neutral>  (226) 
1.20957e-10

>  <r_epik_State_Penalty>  (226) 
-0

>  <r_epik_Charging_Adjusted_Penalty>  (226) 
0

>  <i_epik_Tot_Q>  (226) 
0

>  <i_epik_Tot_abs_Q>  (226) 
0

>  <s_lp_Force_Field>  (226) 
OPLS3e

>  <r_lp_Energy>  (226) 
73.9362

>  <b_lp_Chiralities_Consistent>  (226) 
1

>  <s_lp_Variant>  (226) 
78:0-1

>  <s_i_glide_gridfile>  (226) 
pfpi4k_grid

>  <i_i_glide_lignum>  (226) 
24

>  <i_i_glide_rotatable_bonds>  (226) 
0

>  <r_i_docking_score>  (226) 
-3.248

>  <r_i_glide_ligand_efficiency>  (226) 
-0.135333

>  <r_i_glide_ligand_efficiency_sa>  (226) 
-0.390368

>  <r_i_glide_ligand_efficiency_ln>  (226) 
-0.777394

>  <r_i_glide_gscore>  (226) 
-3.248

>  <r_i_glide_lipo>  (226) 
-0.342457

>  <r_i_glide_hbond>  (226) 
-0.110502

>  <r_i_glide_metal>  (226) 
-0

>  <r_i_glide_rewards>  (226) 
-1.31764

>  <r_i_glide_evdw>  (226) 
-23.1908

>  <r_i_glide_ecoul>  (226) 
-2.11902

>  <r_i_glide_erotb>  (226) 
0

>  <r_i_glide_esite>  (226) 
0

>  <r_i_glide_emodel>  (226) 
-30.2659

>  <r_i_glide_energy>  (226) 
-25.3099

>  <r_i_glide_einternal>  (226) 
0

>  <r_i_glide_intrahb_reward>  (226) 
-0

>  <i_i_glide_confnum>  (226) 
1

>  <i_i_glide_posenum>  (226) 
10

>  <r_i_glide_eff_state_penalty>  (226) 
0

>  <ligand_id>  (226) 
78

>  <original_smiles>  (226) 
CC12CCC3C(CO1)C2CCC1C2(C)CCC(=O)CC2CCC31C

>  <smiles>  (226) 
[H]C([H])([H])C12OC([H])([H])C3([H])C1([H])C([H])([H])C([H])([H])C1([H])C4(C([H])([H])[H])C([H])([H])C([H])([H])C(=O)C([H])([H])C4([H])C([H])([H])C([H])([H])C1(C([H])([H])[H])C3([H])C([H])([H])C2([H])[H]

$$$$
78:0:2
     RDKit          3D

 58 62  0  0  1  0  0  0  0  0999 V2000
    3.3809   -1.2324    6.8725 C   0  0  0  0  0  0  0  0  0  0  0  0
    3.4778   -2.3974    5.8728 C   0  0  2  0  0  0  0  0  0  0  0  0
    2.1834   -2.5963    5.0671 C   0  0  0  0  0  0  0  0  0  0  0  0
    2.2498   -3.8506    4.1680 C   0  0  0  0  0  0  0  0  0  0  0  0
    3.6592   -4.2414    3.5910 C   0  0  2  0  0  0  0  0  0  0  0  0
    4.8013   -3.8048    4.5513 C   0  0  2  0  0  0  0  0  0  0  0  0
    4.6268   -4.4324    5.9419 C   0  0  0  0  0  0  0  0  0  0  0  0
    3.6816   -3.5991    6.6149 O   0  0  0  0  0  0  0  0  0  0  0  0
    4.7070   -2.3389    4.9538 C   0  0  1  0  0  0  0  0  0  0  0  0
    4.7433   -1.2634    3.8443 C   0  0  0  0  0  0  0  0  0  0  0  0
    4.0442   -1.5561    2.5035 C   0  0  0  0  0  0  0  0  0  0  0  0
    4.7118   -2.7019    1.6804 C   0  0  2  0  0  0  0  0  0  0  0  0
    4.8740   -2.3767    0.1222 C   0  0  1  0  0  0  0  0  0  0  0  0
    5.3541   -0.9075   -0.0571 C   0  0  0  0  0  0  0  0  0  0  0  0
    5.9639   -3.2580   -0.5780 C   0  0  0  0  0  0  0  0  0  0  0  0
    6.1073   -3.0425   -2.1032 C   0  0  0  0  0  0  0  0  0  0  0  0
    4.7524   -3.0704   -2.8140 C   0  0  0  0  0  0  0  0  0  0  0  0
    4.6145   -3.6041   -3.9154 O   0  0  0  0  0  0  0  0  0  0  0  0
    3.6063   -2.3203   -2.1373 C   0  0  0  0  0  0  0  0  0  0  0  0
    3.5184   -2.5812   -0.6137 C   0  0  1  0  0  0  0  0  0  0  0  0
    2.9175   -3.9666   -0.3202 C   0  0  0  0  0  0  0  0  0  0  0  0
    2.7171   -4.1987    1.1837 C   0  0  0  0  0  0  0  0  0  0  0  0
    4.0054   -4.0754    2.0414 C   0  0  2  0  0  0  0  0  0  0  0  0
    4.9504   -5.2769    1.7013 C   0  0  0  0  0  0  0  0  0  0  0  0
    3.2094   -0.2794    6.3712 H   0  0  0  0  0  0  0  0  0  0  0  0
    4.2968   -1.1440    7.4586 H   0  0  0  0  0  0  0  0  0  0  0  0
    2.5619   -1.3897    7.5755 H   0  0  0  0  0  0  0  0  0  0  0  0
    1.3383   -2.6952    5.7498 H   0  0  0  0  0  0  0  0  0  0  0  0
    1.9677   -1.7043    4.4806 H   0  0  0  0  0  0  0  0  0  0  0  0
    1.9480   -4.6759    4.8121 H   0  0  0  0  0  0  0  0  0  0  0  0
    1.4513   -3.8105    3.4355 H   0  0  0  0  0  0  0  0  0  0  0  0
    3.5885   -5.3210    3.7184 H   0  0  0  0  0  0  0  0  0  0  0  0
    5.7763   -4.0573    4.1366 H   0  0  0  0  0  0  0  0  0  0  0  0
    4.3005   -5.4722    5.9201 H   0  0  0  0  0  0  0  0  0  0  0  0
    5.5667   -4.3879    6.4939 H   0  0  0  0  0  0  0  0  0  0  0  0
    5.5640   -2.1199    5.5971 H   0  0  0  0  0  0  0  0  0  0  0  0
    4.3382   -0.3375    4.2499 H   0  0  0  0  0  0  0  0  0  0  0  0
    5.7879   -1.0401    3.6296 H   0  0  0  0  0  0  0  0  0  0  0  0
    2.9813   -1.7368    2.6109 H   0  0  0  0  0  0  0  0  0  0  0  0
    4.0561   -0.6030    1.9948 H   0  0  0  0  0  0  0  0  0  0  0  0
    5.7359   -2.7619    2.0529 H   0  0  0  0  0  0  0  0  0  0  0  0
    5.7604   -0.6949   -1.0412 H   0  0  0  0  0  0  0  0  0  0  0  0
    6.1296   -0.6471    0.6659 H   0  0  0  0  0  0  0  0  0  0  0  0
    4.5390   -0.1913    0.0390 H   0  0  0  0  0  0  0  0  0  0  0  0
    6.9333   -3.1167   -0.0973 H   0  0  0  0  0  0  0  0  0  0  0  0
    5.7461   -4.3122   -0.4800 H   0  0  0  0  0  0  0  0  0  0  0  0
    6.5871   -2.0922   -2.3192 H   0  0  0  0  0  0  0  0  0  0  0  0
    6.7510   -3.8077   -2.5357 H   0  0  0  0  0  0  0  0  0  0  0  0
    3.7493   -1.2566   -2.3227 H   0  0  0  0  0  0  0  0  0  0  0  0
    2.6651   -2.5880   -2.6166 H   0  0  0  0  0  0  0  0  0  0  0  0
    2.8151   -1.8490   -0.2146 H   0  0  0  0  0  0  0  0  0  0  0  0
    1.9524   -4.0420   -0.8163 H   0  0  0  0  0  0  0  0  0  0  0  0
    3.5232   -4.7560   -0.7497 H   0  0  0  0  0  0  0  0  0  0  0  0
    1.9975   -3.4399    1.4821 H   0  0  0  0  0  0  0  0  0  0  0  0
    2.2464   -5.1700    1.3467 H   0  0  0  0  0  0  0  0  0  0  0  0
    4.7575   -5.7092    0.7223 H   0  0  0  0  0  0  0  0  0  0  0  0
    4.8531   -6.1347    2.3657 H   0  0  0  0  0  0  0  0  0  0  0  0
    6.0027   -4.9947    1.7408 H   0  0  0  0  0  0  0  0  0  0  0  0
  2  1  1  1
  1 25  1  0
  1 26  1  0
  1 27  1  0
  2  8  1  0
  2  9  1  0
  2  3  1  0
  3  4  1  0
  3 28  1  0
  3 29  1  0
  4  5  1  0
  4 30  1  0
  4 31  1  0
  5 23  1  0
  5  6  1  0
  5 32  1  6
  6  7  1  0
  6  9  1  0
  6 33  1  6
  7  8  1  0
  7 34  1  0
  7 35  1  0
  9 10  1  0
  9 36  1  1
 10 11  1  0
 10 37  1  0
 10 38  1  0
 11 12  1  0
 11 39  1  0
 11 40  1  0
 12 23  1  0
 12 13  1  0
 12 41  1  1
 13 20  1  0
 13 14  1  1
 13 15  1  0
 14 42  1  0
 14 43  1  0
 14 44  1  0
 15 16  1  0
 15 45  1  0
 15 46  1  0
 16 17  1  0
 16 47  1  0
 16 48  1  0
 17 18  2  0
 17 19  1  0
 19 20  1  0
 19 49  1  0
 19 50  1  0
 20 21  1  0
 20 51  1  1
 21 22  1  0
 21 52  1  0
 21 53  1  0
 22 23  1  0
 22 54  1  0
 22 55  1  0
 23 24  1  6
 24 56  1  0
 24 57  1  0
 24 58  1  0
M  END
>  <i_m_ct_stereo_status>  (227) 
1

>  <s_m_source_file>  (227) 
/var/tmp/pbs.5076255.sched01/tmph8v5ro6p/78zitxkb1g.sdf

>  <i_m_source_file_index>  (227) 
24

>  <i_lp_mmshare_version>  (227) 
48012

>  <i_f3d_flags>  (227) 
0

>  <s_epik_input>  (227) 
W0NIM11bQ0BdMTJbQ0BASF0zW0NAQEhdKFtDSDJdTzIpW0NAQEhdKFtDSDJdW0NIMl0xKVtDQF00KFtDSDNdKVtDQEhdKFtDSDJdW0NIMl0zKVtDQF01KFtDSDNdKVtDQEhdKFtDSDJdW0NIMl00KVtDSDJdQyg9TylbQ0gyXVtDSDJdNQ==

>  <s_epik_cmdline>  (227) 
J2VwaWtfcHl0aG9uJywgJy1waHQnLCAnMi4wJywgJy1waCcsICc3LjAnLCAnLXRuJywgJzgnLCAnLW1hJywgJzIwMCcsICctaW1hZScsICc8aW5maWxlLm1hZT4nLCAnLW9tYWUnLCAnPG91dGZpbGUubWFlPic=

>  <r_lp_tautomer_probability>  (227) 
1

>  <r_epik_Ionization_Penalty>  (227) 
1.20957e-10

>  <r_epik_Ionization_Penalty_Charging>  (227) 
0

>  <r_epik_Ionization_Penalty_Neutral>  (227) 
1.20957e-10

>  <r_epik_State_Penalty>  (227) 
-0

>  <r_epik_Charging_Adjusted_Penalty>  (227) 
0

>  <i_epik_Tot_Q>  (227) 
0

>  <i_epik_Tot_abs_Q>  (227) 
0

>  <s_lp_Force_Field>  (227) 
OPLS3e

>  <r_lp_Energy>  (227) 
73.9362

>  <b_lp_Chiralities_Consistent>  (227) 
1

>  <s_lp_Variant>  (227) 
78:0-1

>  <s_i_glide_gridfile>  (227) 
pfpi4k_grid

>  <i_i_glide_lignum>  (227) 
24

>  <i_i_glide_rotatable_bonds>  (227) 
0

>  <r_i_docking_score>  (227) 
-3.15112

>  <r_i_glide_ligand_efficiency>  (227) 
-0.131297

>  <r_i_glide_ligand_efficiency_sa>  (227) 
-0.378725

>  <r_i_glide_ligand_efficiency_ln>  (227) 
-0.754208

>  <r_i_glide_gscore>  (227) 
-3.15112

>  <r_i_glide_lipo>  (227) 
-0.360335

>  <r_i_glide_hbond>  (227) 
0

>  <r_i_glide_metal>  (227) 
-0

>  <r_i_glide_rewards>  (227) 
-1.326

>  <r_i_glide_evdw>  (227) 
-24.7891

>  <r_i_glide_ecoul>  (227) 
-1.50223

>  <r_i_glide_erotb>  (227) 
0

>  <r_i_glide_esite>  (227) 
0

>  <r_i_glide_emodel>  (227) 
-31.0847

>  <r_i_glide_energy>  (227) 
-26.2913

>  <r_i_glide_einternal>  (227) 
0

>  <r_i_glide_intrahb_reward>  (227) 
-0

>  <i_i_glide_confnum>  (227) 
1

>  <i_i_glide_posenum>  (227) 
1

>  <r_i_glide_eff_state_penalty>  (227) 
0

>  <ligand_id>  (227) 
78

>  <original_smiles>  (227) 
CC12CCC3C(CO1)C2CCC1C2(C)CCC(=O)CC2CCC31C

>  <smiles>  (227) 
[H]C([H])([H])C12OC([H])([H])C3([H])C1([H])C([H])([H])C([H])([H])C1([H])C4(C([H])([H])[H])C([H])([H])C([H])([H])C(=O)C([H])([H])C4([H])C([H])([H])C([H])([H])C1(C([H])([H])[H])C3([H])C([H])([H])C2([H])[H]

$$$$
78:1:0
     RDKit          3D

 58 62  0  0  1  0  0  0  0  0999 V2000
    2.2233   -3.4984    6.3743 C   0  0  0  0  0  0  0  0  0  0  0  0
    2.9616   -4.4960    5.4700 C   0  0  2  0  0  0  0  0  0  0  0  0
    2.0028   -5.4872    4.7235 C   0  0  0  0  0  0  0  0  0  0  0  0
    2.6382   -6.2433    3.4897 C   0  0  0  0  0  0  0  0  0  0  0  0
    4.0145   -5.6971    2.9224 C   0  0  2  0  0  0  0  0  0  0  0  0
    4.7266   -5.0194    4.0576 C   0  0  2  0  0  0  0  0  0  0  0  0
    4.8478   -5.8112    5.3721 C   0  0  0  0  0  0  0  0  0  0  0  0
    3.8778   -5.2498    6.2400 O   0  0  0  0  0  0  0  0  0  0  0  0
    3.7871   -3.8831    4.3510 C   0  0  2  0  0  0  0  0  0  0  0  0
    4.5772   -2.6194    4.2634 C   0  0  0  0  0  0  0  0  0  0  0  0
    4.7471   -2.3473    2.7350 C   0  0  0  0  0  0  0  0  0  0  0  0
    5.0314   -3.4680    1.6017 C   0  0  2  0  0  0  0  0  0  0  0  0
    5.1246   -2.7021    0.1827 C   0  0  1  0  0  0  0  0  0  0  0  0
    5.8032   -1.3038    0.3339 C   0  0  0  0  0  0  0  0  0  0  0  0
    6.0441   -3.4286   -0.8640 C   0  0  0  0  0  0  0  0  0  0  0  0
    6.0308   -2.8349   -2.2878 C   0  0  0  0  0  0  0  0  0  0  0  0
    4.6082   -2.6028   -2.7811 C   0  0  0  0  0  0  0  0  0  0  0  0
    4.2500   -2.9324   -3.9112 O   0  0  0  0  0  0  0  0  0  0  0  0
    3.6883   -1.8512   -1.8244 C   0  0  0  0  0  0  0  0  0  0  0  0
    3.6911   -2.4440   -0.3936 C   0  0  1  0  0  0  0  0  0  0  0  0
    2.7475   -3.6527   -0.3278 C   0  0  0  0  0  0  0  0  0  0  0  0
    2.6949   -4.3543    1.0376 C   0  0  0  0  0  0  0  0  0  0  0  0
    4.0820   -4.8112    1.5677 C   0  0  2  0  0  0  0  0  0  0  0  0
    4.5937   -5.9005    0.5738 C   0  0  0  0  0  0  0  0  0  0  0  0
    1.5261   -2.8831    5.8048 H   0  0  0  0  0  0  0  0  0  0  0  0
    2.9265   -2.8337    6.8774 H   0  0  0  0  0  0  0  0  0  0  0  0
    1.6586   -4.0223    7.1453 H   0  0  0  0  0  0  0  0  0  0  0  0
    1.5975   -6.2096    5.4328 H   0  0  0  0  0  0  0  0  0  0  0  0
    1.1449   -4.9206    4.3529 H   0  0  0  0  0  0  0  0  0  0  0  0
    2.8309   -7.2607    3.8273 H   0  0  0  0  0  0  0  0  0  0  0  0
    1.8887   -6.3772    2.7136 H   0  0  0  0  0  0  0  0  0  0  0  0
    4.6263   -6.5929    2.7870 H   0  0  0  0  0  0  0  0  0  0  0  0
    5.7310   -4.7258    3.7566 H   0  0  0  0  0  0  0  0  0  0  0  0
    4.6778   -6.8793    5.2392 H   0  0  0  0  0  0  0  0  0  0  0  0
    5.8299   -5.6840    5.8269 H   0  0  0  0  0  0  0  0  0  0  0  0
    3.0163   -3.6709    3.6169 H   0  0  0  0  0  0  0  0  0  0  0  0
    4.0372   -1.7917    4.7234 H   0  0  0  0  0  0  0  0  0  0  0  0
    5.5306   -2.7081    4.7823 H   0  0  0  0  0  0  0  0  0  0  0  0
    3.8623   -1.7928    2.4253 H   0  0  0  0  0  0  0  0  0  0  0  0
    5.5663   -1.6348    2.7427 H   0  0  0  0  0  0  0  0  0  0  0  0
    6.0444   -3.8214    1.7991 H   0  0  0  0  0  0  0  0  0  0  0  0
    5.9714   -0.8052   -0.6161 H   0  0  0  0  0  0  0  0  0  0  0  0
    6.7751   -1.3746    0.8257 H   0  0  0  0  0  0  0  0  0  0  0  0
    5.1901   -0.5916    0.8858 H   0  0  0  0  0  0  0  0  0  0  0  0
    7.0730   -3.4442   -0.4988 H   0  0  0  0  0  0  0  0  0  0  0  0
    5.8033   -4.4653   -1.0099 H   0  0  0  0  0  0  0  0  0  0  0  0
    6.5600   -1.8850   -2.3164 H   0  0  0  0  0  0  0  0  0  0  0  0
    6.5596   -3.4897   -2.9791 H   0  0  0  0  0  0  0  0  0  0  0  0
    4.0097   -0.8111   -1.8002 H   0  0  0  0  0  0  0  0  0  0  0  0
    2.6747   -1.8495   -2.2242 H   0  0  0  0  0  0  0  0  0  0  0  0
    3.2157   -1.6887    0.2344 H   0  0  0  0  0  0  0  0  0  0  0  0
    1.7487   -3.2982   -0.5695 H   0  0  0  0  0  0  0  0  0  0  0  0
    2.9785   -4.3519   -1.1227 H   0  0  0  0  0  0  0  0  0  0  0  0
    2.2128   -3.6602    1.7205 H   0  0  0  0  0  0  0  0  0  0  0  0
    2.0213   -5.2046    0.9407 H   0  0  0  0  0  0  0  0  0  0  0  0
    4.3525   -5.7321   -0.4662 H   0  0  0  0  0  0  0  0  0  0  0  0
    4.1234   -6.8698    0.7498 H   0  0  0  0  0  0  0  0  0  0  0  0
    5.6712   -6.0444    0.6618 H   0  0  0  0  0  0  0  0  0  0  0  0
  2  1  1  1
  1 25  1  0
  1 26  1  0
  1 27  1  0
  2  8  1  0
  2  9  1  0
  2  3  1  0
  3  4  1  0
  3 28  1  0
  3 29  1  0
  4  5  1  0
  4 30  1  0
  4 31  1  0
  5 23  1  0
  5  6  1  0
  5 32  1  6
  6  7  1  0
  6  9  1  0
  6 33  1  6
  7  8  1  0
  7 34  1  0
  7 35  1  0
  9 10  1  0
  9 36  1  6
 10 11  1  0
 10 37  1  0
 10 38  1  0
 11 12  1  0
 11 39  1  0
 11 40  1  0
 12 23  1  0
 12 13  1  0
 12 41  1  1
 13 20  1  0
 13 14  1  1
 13 15  1  0
 14 42  1  0
 14 43  1  0
 14 44  1  0
 15 16  1  0
 15 45  1  0
 15 46  1  0
 16 17  1  0
 16 47  1  0
 16 48  1  0
 17 18  2  0
 17 19  1  0
 19 20  1  0
 19 49  1  0
 19 50  1  0
 20 21  1  0
 20 51  1  1
 21 22  1  0
 21 52  1  0
 21 53  1  0
 22 23  1  0
 22 54  1  0
 22 55  1  0
 23 24  1  6
 24 56  1  0
 24 57  1  0
 24 58  1  0
M  END
>  <i_m_ct_stereo_status>  (228) 
1

>  <s_m_source_file>  (228) 
/var/tmp/pbs.5076255.sched01/tmph8v5ro6p/78zitxkb1g.sdf

>  <i_m_source_file_index>  (228) 
25

>  <i_lp_mmshare_version>  (228) 
48012

>  <i_f3d_flags>  (228) 
0

>  <s_epik_input>  (228) 
W0NIM11bQ0BdMTJbQ0BASF0zW0NAQEhdKFtDSDJdTzIpW0NAQEhdKFtDSDJdW0NIMl0xKVtDQF00KFtDSDNdKVtDQEhdKFtDSDJdW0NIMl0zKVtDQF01KFtDSDNdKVtDQEhdKFtDSDJdW0NIMl00KVtDSDJdQyg9TylbQ0gyXVtDSDJdNQ==

>  <s_epik_cmdline>  (228) 
J2VwaWtfcHl0aG9uJywgJy1waHQnLCAnMi4wJywgJy1waCcsICc3LjAnLCAnLXRuJywgJzgnLCAnLW1hJywgJzIwMCcsICctaW1hZScsICc8aW5maWxlLm1hZT4nLCAnLW9tYWUnLCAnPG91dGZpbGUubWFlPic=

>  <r_lp_tautomer_probability>  (228) 
1

>  <r_epik_Ionization_Penalty>  (228) 
1.20957e-10

>  <r_epik_Ionization_Penalty_Charging>  (228) 
0

>  <r_epik_Ionization_Penalty_Neutral>  (228) 
1.20957e-10

>  <r_epik_State_Penalty>  (228) 
-0

>  <r_epik_Charging_Adjusted_Penalty>  (228) 
0

>  <i_epik_Tot_Q>  (228) 
0

>  <i_epik_Tot_abs_Q>  (228) 
0

>  <s_lp_Force_Field>  (228) 
OPLS3e

>  <r_lp_Energy>  (228) 
113.936

>  <b_lp_Chiralities_Consistent>  (228) 
1

>  <s_lp_Variant>  (228) 
78:0-2

>  <s_i_glide_gridfile>  (228) 
pfpi4k_grid

>  <i_i_glide_lignum>  (228) 
25

>  <i_i_glide_rotatable_bonds>  (228) 
0

>  <r_i_docking_score>  (228) 
-3.42862

>  <r_i_glide_ligand_efficiency>  (228) 
-0.142859

>  <r_i_glide_ligand_efficiency_sa>  (228) 
-0.412077

>  <r_i_glide_ligand_efficiency_ln>  (228) 
-0.820627

>  <r_i_glide_gscore>  (228) 
-3.42862

>  <r_i_glide_lipo>  (228) 
-0.511397

>  <r_i_glide_hbond>  (228) 
-0.0991996

>  <r_i_glide_metal>  (228) 
-0

>  <r_i_glide_rewards>  (228) 
-1.31827

>  <r_i_glide_evdw>  (228) 
-24.8993

>  <r_i_glide_ecoul>  (228) 
-1.69863

>  <r_i_glide_erotb>  (228) 
0

>  <r_i_glide_esite>  (228) 
0

>  <r_i_glide_emodel>  (228) 
-32.21

>  <r_i_glide_energy>  (228) 
-26.5979

>  <r_i_glide_einternal>  (228) 
0

>  <r_i_glide_intrahb_reward>  (228) 
-0

>  <i_i_glide_confnum>  (228) 
1

>  <i_i_glide_posenum>  (228) 
2

>  <r_i_glide_eff_state_penalty>  (228) 
0

>  <ligand_id>  (228) 
78

>  <original_smiles>  (228) 
CC12CCC3C(CO1)C2CCC1C2(C)CCC(=O)CC2CCC31C

>  <smiles>  (228) 
[H]C([H])([H])C12OC([H])([H])C3([H])C1([H])C([H])([H])C([H])([H])C1([H])C4(C([H])([H])[H])C([H])([H])C([H])([H])C(=O)C([H])([H])C4([H])C([H])([H])C([H])([H])C1(C([H])([H])[H])C3([H])C([H])([H])C2([H])[H]

$$$$
78:1:1
     RDKit          3D

 58 62  0  0  1  0  0  0  0  0999 V2000
    1.5782   -2.3048    6.0323 C   0  0  0  0  0  0  0  0  0  0  0  0
    2.4841   -3.3886    5.4300 C   0  0  2  0  0  0  0  0  0  0  0  0
    1.6897   -4.6041    4.8369 C   0  0  0  0  0  0  0  0  0  0  0  0
    2.5099   -5.5320    3.8547 C   0  0  0  0  0  0  0  0  0  0  0  0
    3.8885   -4.9807    3.3025 C   0  0  2  0  0  0  0  0  0  0  0  0
    4.4227   -4.0135    4.3192 C   0  0  2  0  0  0  0  0  0  0  0  0
    4.4691   -4.4999    5.7790 C   0  0  0  0  0  0  0  0  0  0  0  0
    3.3702   -3.8727    6.4193 O   0  0  0  0  0  0  0  0  0  0  0  0
    3.3700   -2.9418    4.2802 C   0  0  2  0  0  0  0  0  0  0  0  0
    4.0616   -1.6511    3.9886 C   0  0  0  0  0  0  0  0  0  0  0  0
    4.3663   -1.6866    2.4567 C   0  0  0  0  0  0  0  0  0  0  0  0
    4.8550   -2.9841    1.6213 C   0  0  2  0  0  0  0  0  0  0  0  0
    5.0313   -2.5245    0.0835 C   0  0  1  0  0  0  0  0  0  0  0  0
    5.5750   -1.0644   -0.0135 C   0  0  0  0  0  0  0  0  0  0  0  0
    6.1097   -3.3553   -0.6987 C   0  0  0  0  0  0  0  0  0  0  0  0
    6.2038   -3.0595   -2.2059 C   0  0  0  0  0  0  0  0  0  0  0  0
    4.8252   -3.0729   -2.8612 C   0  0  0  0  0  0  0  0  0  0  0  0
    4.6193   -3.6606   -3.9209 O   0  0  0  0  0  0  0  0  0  0  0  0
    3.7453   -2.2508   -2.1694 C   0  0  0  0  0  0  0  0  0  0  0  0
    3.6463   -2.5367   -0.6517 C   0  0  1  0  0  0  0  0  0  0  0  0
    2.8036   -3.7978   -0.4100 C   0  0  0  0  0  0  0  0  0  0  0  0
    2.6691   -4.1978    1.0677 C   0  0  0  0  0  0  0  0  0  0  0  0
    4.0259   -4.3924    1.7982 C   0  0  2  0  0  0  0  0  0  0  0  0
    4.7226   -5.6084    1.1093 C   0  0  0  0  0  0  0  0  0  0  0  0
    0.8973   -1.8938    5.2865 H   0  0  0  0  0  0  0  0  0  0  0  0
    2.1710   -1.4835    6.4370 H   0  0  0  0  0  0  0  0  0  0  0  0
    0.9812   -2.7117    6.8481 H   0  0  0  0  0  0  0  0  0  0  0  0
    1.2728   -5.2008    5.6493 H   0  0  0  0  0  0  0  0  0  0  0  0
    0.8326   -4.2155    4.2812 H   0  0  0  0  0  0  0  0  0  0  0  0
    2.7466   -6.4321    4.4188 H   0  0  0  0  0  0  0  0  0  0  0  0
    1.8571   -5.8986    3.0655 H   0  0  0  0  0  0  0  0  0  0  0  0
    4.5816   -5.8188    3.4146 H   0  0  0  0  0  0  0  0  0  0  0  0
    5.4250   -3.6896    4.0472 H   0  0  0  0  0  0  0  0  0  0  0  0
    4.4018   -5.5844    5.8654 H   0  0  0  0  0  0  0  0  0  0  0  0
    5.3856   -4.1816    6.2768 H   0  0  0  0  0  0  0  0  0  0  0  0
    2.6653   -2.9636    3.4562 H   0  0  0  0  0  0  0  0  0  0  0  0
    3.4123   -0.8034    4.2104 H   0  0  0  0  0  0  0  0  0  0  0  0
    4.9612   -1.5334    4.5907 H   0  0  0  0  0  0  0  0  0  0  0  0
    3.4763   -1.2995    1.9613 H   0  0  0  0  0  0  0  0  0  0  0  0
    5.1204   -0.9089    2.3796 H   0  0  0  0  0  0  0  0  0  0  0  0
    5.8675   -3.1848    1.9744 H   0  0  0  0  0  0  0  0  0  0  0  0
    5.8027   -0.7573   -1.0311 H   0  0  0  0  0  0  0  0  0  0  0  0
    6.4953   -0.9347    0.5595 H   0  0  0  0  0  0  0  0  0  0  0  0
    4.8536   -0.3171    0.3190 H   0  0  0  0  0  0  0  0  0  0  0  0
    7.0929   -3.1937   -0.2513 H   0  0  0  0  0  0  0  0  0  0  0  0
    5.9718   -4.4192   -0.6422 H   0  0  0  0  0  0  0  0  0  0  0  0
    6.6688   -2.0939   -2.3669 H   0  0  0  0  0  0  0  0  0  0  0  0
    6.8414   -3.7907   -2.6996 H   0  0  0  0  0  0  0  0  0  0  0  0
    3.9750   -1.2022   -2.3430 H   0  0  0  0  0  0  0  0  0  0  0  0
    2.7839   -2.4404   -2.6498 H   0  0  0  0  0  0  0  0  0  0  0  0
    3.0517   -1.7187   -0.2436 H   0  0  0  0  0  0  0  0  0  0  0  0
    1.8034   -3.6055   -0.7953 H   0  0  0  0  0  0  0  0  0  0  0  0
    3.1725   -4.6171   -1.0166 H   0  0  0  0  0  0  0  0  0  0  0  0
    2.0713   -3.4248    1.5444 H   0  0  0  0  0  0  0  0  0  0  0  0
    2.0772   -5.1105    1.1031 H   0  0  0  0  0  0  0  0  0  0  0  0
    4.5775   -5.6854    0.0395 H   0  0  0  0  0  0  0  0  0  0  0  0
    4.3155   -6.5617    1.4518 H   0  0  0  0  0  0  0  0  0  0  0  0
    5.7941   -5.6209    1.3170 H   0  0  0  0  0  0  0  0  0  0  0  0
  2  1  1  1
  1 25  1  0
  1 26  1  0
  1 27  1  0
  2  8  1  0
  2  9  1  0
  2  3  1  0
  3  4  1  0
  3 28  1  0
  3 29  1  0
  4  5  1  0
  4 30  1  0
  4 31  1  0
  5 23  1  0
  5  6  1  0
  5 32  1  6
  6  7  1  0
  6  9  1  0
  6 33  1  6
  7  8  1  0
  7 34  1  0
  7 35  1  0
  9 10  1  0
  9 36  1  6
 10 11  1  0
 10 37  1  0
 10 38  1  0
 11 12  1  0
 11 39  1  0
 11 40  1  0
 12 23  1  0
 12 13  1  0
 12 41  1  1
 13 20  1  0
 13 14  1  1
 13 15  1  0
 14 42  1  0
 14 43  1  0
 14 44  1  0
 15 16  1  0
 15 45  1  0
 15 46  1  0
 16 17  1  0
 16 47  1  0
 16 48  1  0
 17 18  2  0
 17 19  1  0
 19 20  1  0
 19 49  1  0
 19 50  1  0
 20 21  1  0
 20 51  1  1
 21 22  1  0
 21 52  1  0
 21 53  1  0
 22 23  1  0
 22 54  1  0
 22 55  1  0
 23 24  1  6
 24 56  1  0
 24 57  1  0
 24 58  1  0
M  END
>  <i_m_ct_stereo_status>  (229) 
1

>  <s_m_source_file>  (229) 
/var/tmp/pbs.5076255.sched01/tmph8v5ro6p/78zitxkb1g.sdf

>  <i_m_source_file_index>  (229) 
25

>  <i_lp_mmshare_version>  (229) 
48012

>  <i_f3d_flags>  (229) 
0

>  <s_epik_input>  (229) 
W0NIM11bQ0BdMTJbQ0BASF0zW0NAQEhdKFtDSDJdTzIpW0NAQEhdKFtDSDJdW0NIMl0xKVtDQF00KFtDSDNdKVtDQEhdKFtDSDJdW0NIMl0zKVtDQF01KFtDSDNdKVtDQEhdKFtDSDJdW0NIMl00KVtDSDJdQyg9TylbQ0gyXVtDSDJdNQ==

>  <s_epik_cmdline>  (229) 
J2VwaWtfcHl0aG9uJywgJy1waHQnLCAnMi4wJywgJy1waCcsICc3LjAnLCAnLXRuJywgJzgnLCAnLW1hJywgJzIwMCcsICctaW1hZScsICc8aW5maWxlLm1hZT4nLCAnLW9tYWUnLCAnPG91dGZpbGUubWFlPic=

>  <r_lp_tautomer_probability>  (229) 
1

>  <r_epik_Ionization_Penalty>  (229) 
1.20957e-10

>  <r_epik_Ionization_Penalty_Charging>  (229) 
0

>  <r_epik_Ionization_Penalty_Neutral>  (229) 
1.20957e-10

>  <r_epik_State_Penalty>  (229) 
-0

>  <r_epik_Charging_Adjusted_Penalty>  (229) 
0

>  <i_epik_Tot_Q>  (229) 
0

>  <i_epik_Tot_abs_Q>  (229) 
0

>  <s_lp_Force_Field>  (229) 
OPLS3e

>  <r_lp_Energy>  (229) 
113.936

>  <b_lp_Chiralities_Consistent>  (229) 
1

>  <s_lp_Variant>  (229) 
78:0-2

>  <s_i_glide_gridfile>  (229) 
pfpi4k_grid

>  <i_i_glide_lignum>  (229) 
25

>  <i_i_glide_rotatable_bonds>  (229) 
0

>  <r_i_docking_score>  (229) 
-3.19956

>  <r_i_glide_ligand_efficiency>  (229) 
-0.133315

>  <r_i_glide_ligand_efficiency_sa>  (229) 
-0.384547

>  <r_i_glide_ligand_efficiency_ln>  (229) 
-0.765802

>  <r_i_glide_gscore>  (229) 
-3.19956

>  <r_i_glide_lipo>  (229) 
-0.3722

>  <r_i_glide_hbond>  (229) 
0

>  <r_i_glide_metal>  (229) 
-0

>  <r_i_glide_rewards>  (229) 
-1.35173

>  <r_i_glide_evdw>  (229) 
-25.1847

>  <r_i_glide_ecoul>  (229) 
-1.44265

>  <r_i_glide_erotb>  (229) 
0

>  <r_i_glide_esite>  (229) 
0

>  <r_i_glide_emodel>  (229) 
-31.8461

>  <r_i_glide_energy>  (229) 
-26.6274

>  <r_i_glide_einternal>  (229) 
0

>  <r_i_glide_intrahb_reward>  (229) 
-0

>  <i_i_glide_confnum>  (229) 
1

>  <i_i_glide_posenum>  (229) 
11

>  <r_i_glide_eff_state_penalty>  (229) 
0

>  <ligand_id>  (229) 
78

>  <original_smiles>  (229) 
CC12CCC3C(CO1)C2CCC1C2(C)CCC(=O)CC2CCC31C

>  <smiles>  (229) 
[H]C([H])([H])C12OC([H])([H])C3([H])C1([H])C([H])([H])C([H])([H])C1([H])C4(C([H])([H])[H])C([H])([H])C([H])([H])C(=O)C([H])([H])C4([H])C([H])([H])C([H])([H])C1(C([H])([H])[H])C3([H])C([H])([H])C2([H])[H]

$$$$
78:1:2
     RDKit          3D

 58 62  0  0  1  0  0  0  0  0999 V2000
    4.4181   -1.3346   -1.8939 C   0  0  0  0  0  0  0  0  0  0  0  0
    4.8060   -1.5637   -0.4239 C   0  0  2  0  0  0  0  0  0  0  0  0
    3.7651   -0.9847    0.5954 C   0  0  0  0  0  0  0  0  0  0  0  0
    3.8722   -1.5408    2.0727 C   0  0  0  0  0  0  0  0  0  0  0  0
    4.7645   -2.8301    2.3064 C   0  0  2  0  0  0  0  0  0  0  0  0
    5.8060   -2.8503    1.2262 C   0  0  2  0  0  0  0  0  0  0  0  0
    6.6066   -1.5530    1.0047 C   0  0  0  0  0  0  0  0  0  0  0  0
    6.0742   -0.9847   -0.1780 O   0  0  0  0  0  0  0  0  0  0  0  0
    4.9463   -3.0138    0.0018 C   0  0  2  0  0  0  0  0  0  0  0  0
    5.4329   -4.2247   -0.7163 C   0  0  0  0  0  0  0  0  0  0  0  0
    4.8702   -5.4411    0.0838 C   0  0  0  0  0  0  0  0  0  0  0  0
    4.7746   -5.5458    1.6932 C   0  0  2  0  0  0  0  0  0  0  0  0
    4.1252   -6.9862    2.0394 C   0  0  1  0  0  0  0  0  0  0  0  0
    4.6135   -8.0858    1.0419 C   0  0  0  0  0  0  0  0  0  0  0  0
    4.5749   -7.5629    3.4304 C   0  0  0  0  0  0  0  0  0  0  0  0
    3.8567   -8.8585    3.8761 C   0  0  0  0  0  0  0  0  0  0  0  0
    2.3488   -8.7222    3.7196 C   0  0  0  0  0  0  0  0  0  0  0  0
    1.5722   -9.0034    4.6275 O   0  0  0  0  0  0  0  0  0  0  0  0
    1.8529   -8.2209    2.3661 C   0  0  0  0  0  0  0  0  0  0  0  0
    2.5639   -6.9197    1.9157 C   0  0  1  0  0  0  0  0  0  0  0  0
    1.9109   -5.6977    2.5852 C   0  0  0  0  0  0  0  0  0  0  0  0
    2.5730   -4.3541    2.2272 C   0  0  0  0  0  0  0  0  0  0  0  0
    4.0989   -4.2961    2.5190 C   0  0  2  0  0  0  0  0  0  0  0  0
    4.2565   -4.4288    4.0650 C   0  0  0  0  0  0  0  0  0  0  0  0
    3.4632   -1.8036   -2.1301 H   0  0  0  0  0  0  0  0  0  0  0  0
    5.1723   -1.7446   -2.5667 H   0  0  0  0  0  0  0  0  0  0  0  0
    4.3297   -0.2685   -2.1075 H   0  0  0  0  0  0  0  0  0  0  0  0
    3.8127    0.1046    0.6018 H   0  0  0  0  0  0  0  0  0  0  0  0
    2.7652   -1.2345    0.2361 H   0  0  0  0  0  0  0  0  0  0  0  0
    4.3228   -0.7425    2.6616 H   0  0  0  0  0  0  0  0  0  0  0  0
    2.8772   -1.6366    2.4993 H   0  0  0  0  0  0  0  0  0  0  0  0
    5.3636   -2.5881    3.1863 H   0  0  0  0  0  0  0  0  0  0  0  0
    6.5207   -3.6502    1.4062 H   0  0  0  0  0  0  0  0  0  0  0  0
    6.5278   -0.8607    1.8428 H   0  0  0  0  0  0  0  0  0  0  0  0
    7.6644   -1.7558    0.8399 H   0  0  0  0  0  0  0  0  0  0  0  0
    3.9085   -3.2891    0.1496 H   0  0  0  0  0  0  0  0  0  0  0  0
    5.0548   -4.2521   -1.7379 H   0  0  0  0  0  0  0  0  0  0  0  0
    6.5209   -4.2318   -0.7701 H   0  0  0  0  0  0  0  0  0  0  0  0
    3.8763   -5.6326   -0.3165 H   0  0  0  0  0  0  0  0  0  0  0  0
    5.5041   -6.2408   -0.2853 H   0  0  0  0  0  0  0  0  0  0  0  0
    5.8065   -5.6134    2.0400 H   0  0  0  0  0  0  0  0  0  0  0  0
    4.2837   -9.0885    1.3062 H   0  0  0  0  0  0  0  0  0  0  0  0
    5.7023   -8.1276    0.9877 H   0  0  0  0  0  0  0  0  0  0  0  0
    4.2217   -7.9463    0.0354 H   0  0  0  0  0  0  0  0  0  0  0  0
    5.6518   -7.7438    3.4230 H   0  0  0  0  0  0  0  0  0  0  0  0
    4.4294   -6.8849    4.2516 H   0  0  0  0  0  0  0  0  0  0  0  0
    4.1952   -9.7215    3.3041 H   0  0  0  0  0  0  0  0  0  0  0  0
    4.0948   -9.0784    4.9166 H   0  0  0  0  0  0  0  0  0  0  0  0
    2.0100   -9.0148    1.6366 H   0  0  0  0  0  0  0  0  0  0  0  0
    0.7772   -8.0628    2.4200 H   0  0  0  0  0  0  0  0  0  0  0  0
    2.3310   -6.8139    0.8552 H   0  0  0  0  0  0  0  0  0  0  0  0
    0.8742   -5.6460    2.2593 H   0  0  0  0  0  0  0  0  0  0  0  0
    1.8454   -5.8423    3.6599 H   0  0  0  0  0  0  0  0  0  0  0  0
    2.3632   -4.1741    1.1749 H   0  0  0  0  0  0  0  0  0  0  0  0
    2.0432   -3.5746    2.7745 H   0  0  0  0  0  0  0  0  0  0  0  0
    3.5560   -5.1007    4.5451 H   0  0  0  0  0  0  0  0  0  0  0  0
    4.0486   -3.4876    4.5793 H   0  0  0  0  0  0  0  0  0  0  0  0
    5.2691   -4.7295    4.3385 H   0  0  0  0  0  0  0  0  0  0  0  0
  2  1  1  6
  1 25  1  0
  1 26  1  0
  1 27  1  0
  2  8  1  0
  2  9  1  0
  2  3  1  0
  3  4  1  0
  3 28  1  0
  3 29  1  0
  4  5  1  0
  4 30  1  0
  4 31  1  0
  5 23  1  0
  5  6  1  0
  5 32  1  1
  6  7  1  0
  6  9  1  0
  6 33  1  1
  7  8  1  0
  7 34  1  0
  7 35  1  0
  9 10  1  0
  9 36  1  1
 10 11  1  0
 10 37  1  0
 10 38  1  0
 11 12  1  0
 11 39  1  0
 11 40  1  0
 12 23  1  0
 12 13  1  0
 12 41  1  1
 13 20  1  0
 13 14  1  6
 13 15  1  0
 14 42  1  0
 14 43  1  0
 14 44  1  0
 15 16  1  0
 15 45  1  0
 15 46  1  0
 16 17  1  0
 16 47  1  0
 16 48  1  0
 17 18  2  0
 17 19  1  0
 19 20  1  0
 19 49  1  0
 19 50  1  0
 20 21  1  0
 20 51  1  6
 21 22  1  0
 21 52  1  0
 21 53  1  0
 22 23  1  0
 22 54  1  0
 22 55  1  0
 23 24  1  1
 24 56  1  0
 24 57  1  0
 24 58  1  0
M  END
>  <i_m_ct_stereo_status>  (230) 
1

>  <s_m_source_file>  (230) 
/var/tmp/pbs.5076255.sched01/tmph8v5ro6p/78zitxkb1g.sdf

>  <i_m_source_file_index>  (230) 
25

>  <i_lp_mmshare_version>  (230) 
48012

>  <i_f3d_flags>  (230) 
0

>  <s_epik_input>  (230) 
W0NIM11bQ0BdMTJbQ0BASF0zW0NAQEhdKFtDSDJdTzIpW0NAQEhdKFtDSDJdW0NIMl0xKVtDQF00KFtDSDNdKVtDQEhdKFtDSDJdW0NIMl0zKVtDQF01KFtDSDNdKVtDQEhdKFtDSDJdW0NIMl00KVtDSDJdQyg9TylbQ0gyXVtDSDJdNQ==

>  <s_epik_cmdline>  (230) 
J2VwaWtfcHl0aG9uJywgJy1waHQnLCAnMi4wJywgJy1waCcsICc3LjAnLCAnLXRuJywgJzgnLCAnLW1hJywgJzIwMCcsICctaW1hZScsICc8aW5maWxlLm1hZT4nLCAnLW9tYWUnLCAnPG91dGZpbGUubWFlPic=

>  <r_lp_tautomer_probability>  (230) 
1

>  <r_epik_Ionization_Penalty>  (230) 
1.20957e-10

>  <r_epik_Ionization_Penalty_Charging>  (230) 
0

>  <r_epik_Ionization_Penalty_Neutral>  (230) 
1.20957e-10

>  <r_epik_State_Penalty>  (230) 
-0

>  <r_epik_Charging_Adjusted_Penalty>  (230) 
0

>  <i_epik_Tot_Q>  (230) 
0

>  <i_epik_Tot_abs_Q>  (230) 
0

>  <s_lp_Force_Field>  (230) 
OPLS3e

>  <r_lp_Energy>  (230) 
113.936

>  <b_lp_Chiralities_Consistent>  (230) 
1

>  <s_lp_Variant>  (230) 
78:0-2

>  <s_i_glide_gridfile>  (230) 
pfpi4k_grid

>  <i_i_glide_lignum>  (230) 
25

>  <i_i_glide_rotatable_bonds>  (230) 
0

>  <r_i_docking_score>  (230) 
-2.92163

>  <r_i_glide_ligand_efficiency>  (230) 
-0.121734

>  <r_i_glide_ligand_efficiency_sa>  (230) 
-0.351143

>  <r_i_glide_ligand_efficiency_ln>  (230) 
-0.69928

>  <r_i_glide_gscore>  (230) 
-2.92163

>  <r_i_glide_lipo>  (230) 
-0.340529

>  <r_i_glide_hbond>  (230) 
-0.0255541

>  <r_i_glide_metal>  (230) 
-0

>  <r_i_glide_rewards>  (230) 
-1.15565

>  <r_i_glide_evdw>  (230) 
-25.5553

>  <r_i_glide_ecoul>  (230) 
-0.772648

>  <r_i_glide_erotb>  (230) 
0

>  <r_i_glide_esite>  (230) 
-0.006227

>  <r_i_glide_emodel>  (230) 
-31.0787

>  <r_i_glide_energy>  (230) 
-26.328

>  <r_i_glide_einternal>  (230) 
0

>  <r_i_glide_intrahb_reward>  (230) 
-0

>  <i_i_glide_confnum>  (230) 
2

>  <i_i_glide_posenum>  (230) 
17

>  <r_i_glide_eff_state_penalty>  (230) 
0

>  <ligand_id>  (230) 
78

>  <original_smiles>  (230) 
CC12CCC3C(CO1)C2CCC1C2(C)CCC(=O)CC2CCC31C

>  <smiles>  (230) 
[H]C([H])([H])C12OC([H])([H])C3([H])C1([H])C([H])([H])C([H])([H])C1([H])C4(C([H])([H])[H])C([H])([H])C([H])([H])C(=O)C([H])([H])C4([H])C([H])([H])C([H])([H])C1(C([H])([H])[H])C3([H])C([H])([H])C2([H])[H]

$$$$
80:0:0
     RDKit          3D

 53 56  0  0  1  0  0  0  0  0999 V2000
    5.6667   -2.7406   -3.2326 C   0  0  0  0  0  0  0  0  0  0  0  0
    5.2030   -2.3755   -1.8484 C   0  0  2  0  0  0  0  0  0  0  0  0
    5.5269   -3.4163   -0.8077 C   0  0  1  0  0  0  0  0  0  0  0  0
    6.9185   -3.6529   -0.7040 O   0  0  0  0  0  0  0  0  0  0  0  0
    4.7446   -2.9175    0.4557 C   0  0  1  0  0  0  0  0  0  0  0  0
    3.5144   -2.1908   -0.2064 C   0  0  2  0  0  0  0  0  0  0  0  0
    2.3449   -2.9361    0.2956 C   0  0  2  0  0  0  0  0  0  0  0  0
    2.0984   -2.7795    1.7075 O   0  0  0  0  0  0  0  0  0  0  0  0
    2.6864   -4.0050    1.2468 C   0  0  1  0  0  0  0  0  0  0  0  0
    1.8440   -5.1389    1.1372 O   0  0  0  0  0  0  0  0  0  0  0  0
    4.1685   -4.1376    1.3213 C   0  0  1  0  0  0  0  0  0  0  0  0
    4.5784   -5.5672    0.8509 C   0  0  0  0  0  0  0  0  0  0  0  0
    4.5839   -3.8396    2.7643 C   0  0  1  0  0  0  0  0  0  0  0  0
    4.7828   -4.9913    3.5597 O   0  0  0  0  0  0  0  0  0  0  0  0
    5.8522   -3.0582    2.5677 C   0  0  0  0  0  0  0  0  0  0  0  0
    5.5900   -2.0215    1.4670 C   0  0  1  0  0  0  0  0  0  0  0  0
    6.8132   -1.5114    0.9603 O   0  0  0  0  0  0  0  0  0  0  0  0
    4.9269   -0.7300    2.0303 C   0  0  0  0  0  0  0  0  0  0  0  0
    4.8981    0.4145    0.9903 C   0  0  0  0  0  0  0  0  0  0  0  0
    5.5977   -0.1665    3.3214 C   0  0  0  0  0  0  0  0  0  0  0  0
    3.6953   -2.1494   -1.7562 C   0  0  0  0  0  0  0  0  0  0  0  0
    3.3328   -0.8048   -2.4355 C   0  0  0  0  0  0  0  0  0  0  0  0
    2.8839   -3.2408   -2.4939 C   0  0  0  0  0  0  0  0  0  0  0  0
    5.3265   -3.7119   -3.6093 H   0  0  0  0  0  0  0  0  0  0  0  0
    6.7532   -2.7262   -3.2160 H   0  0  0  0  0  0  0  0  0  0  0  0
    5.2929   -1.9464   -3.8593 H   0  0  0  0  0  0  0  0  0  0  0  0
    5.7082   -1.4486   -1.5847 H   0  0  0  0  0  0  0  0  0  0  0  0
    5.1141   -4.3282   -1.2347 H   0  0  0  0  0  0  0  0  0  0  0  0
    7.2505   -3.8315   -1.5751 H   0  0  0  0  0  0  0  0  0  0  0  0
    3.2575   -1.1856    0.1474 H   0  0  0  0  0  0  0  0  0  0  0  0
    1.4599   -2.9934   -0.3228 H   0  0  0  0  0  0  0  0  0  0  0  0
    2.0546   -5.7248    1.8492 H   0  0  0  0  0  0  0  0  0  0  0  0
    4.1809   -6.3351    1.5107 H   0  0  0  0  0  0  0  0  0  0  0  0
    5.6660   -5.6908    0.8158 H   0  0  0  0  0  0  0  0  0  0  0  0
    4.1672   -5.8101   -0.1281 H   0  0  0  0  0  0  0  0  0  0  0  0
    3.8598   -3.2004    3.2691 H   0  0  0  0  0  0  0  0  0  0  0  0
    3.9413   -5.4012    3.6986 H   0  0  0  0  0  0  0  0  0  0  0  0
    6.1842   -2.6524    3.5106 H   0  0  0  0  0  0  0  0  0  0  0  0
    6.5773   -3.7810    2.2029 H   0  0  0  0  0  0  0  0  0  0  0  0
    7.2172   -0.9902    1.6413 H   0  0  0  0  0  0  0  0  0  0  0  0
    3.8960   -0.9743    2.2992 H   0  0  0  0  0  0  0  0  0  0  0  0
    5.8448    0.9303    0.8846 H   0  0  0  0  0  0  0  0  0  0  0  0
    4.0970    1.0962    1.2592 H   0  0  0  0  0  0  0  0  0  0  0  0
    4.7286    0.1065   -0.0381 H   0  0  0  0  0  0  0  0  0  0  0  0
    6.6696   -0.0168    3.2112 H   0  0  0  0  0  0  0  0  0  0  0  0
    5.4620   -0.7929    4.2024 H   0  0  0  0  0  0  0  0  0  0  0  0
    5.1747    0.8007    3.5894 H   0  0  0  0  0  0  0  0  0  0  0  0
    2.2786   -0.5528   -2.2787 H   0  0  0  0  0  0  0  0  0  0  0  0
    3.4443   -0.8240   -3.5205 H   0  0  0  0  0  0  0  0  0  0  0  0
    4.0016   -0.0239   -2.0844 H   0  0  0  0  0  0  0  0  0  0  0  0
    1.8124   -3.0626   -2.4399 H   0  0  0  0  0  0  0  0  0  0  0  0
    3.0836   -4.1985   -2.0281 H   0  0  0  0  0  0  0  0  0  0  0  0
    3.1021   -3.3063   -3.5605 H   0  0  0  0  0  0  0  0  0  0  0  0
  1  2  1  0
  1 24  1  0
  1 25  1  0
  1 26  1  0
  2 21  1  0
  2  3  1  0
  2 27  1  1
  3  4  1  0
  3  5  1  0
  3 28  1  6
  4 29  1  0
  5 11  1  0
  5 16  1  1
  5  6  1  0
  6  7  1  0
  6 21  1  0
  6 30  1  1
  7  9  1  0
  7  8  1  0
  7 31  1  6
  8  9  1  0
  9 10  1  6
  9 11  1  0
 10 32  1  0
 11 12  1  6
 11 13  1  0
 12 33  1  0
 12 34  1  0
 12 35  1  0
 13 14  1  0
 13 15  1  0
 13 36  1  1
 14 37  1  0
 15 16  1  0
 15 38  1  0
 15 39  1  0
 16 17  1  6
 16 18  1  0
 17 40  1  0
 18 19  1  0
 18 20  1  0
 18 41  1  0
 19 42  1  0
 19 43  1  0
 19 44  1  0
 20 45  1  0
 20 46  1  0
 20 47  1  0
 21 22  1  0
 21 23  1  0
 22 48  1  0
 22 49  1  0
 22 50  1  0
 23 51  1  0
 23 52  1  0
 23 53  1  0
M  END
>  <i_m_ct_stereo_status>  (231) 
1

>  <s_m_source_file>  (231) 
/var/tmp/pbs.5076255.sched01/tmph8v5ro6p/78zitxkb1g.sdf

>  <i_m_source_file_index>  (231) 
27

>  <i_lp_mmshare_version>  (231) 
48012

>  <i_f3d_flags>  (231) 
0

>  <s_epik_input>  (231) 
W09IXVtDQEBIXTFbQ0BASF0oW0NIM10pQyhbQ0gzXSkoW0NIM10pW0NASF0oW0NAXTEyMylbQ0BIXTRbQ0BdKE80KShbT0hdKVtDQF0yKFtDSDNdKVtDQEBIXShbT0hdKVtDSDJdW0NAXTMoW09IXSlbQ0hdKFtDSDNdKVtDSDNd

>  <s_epik_cmdline>  (231) 
J2VwaWtfcHl0aG9uJywgJy1waHQnLCAnMi4wJywgJy1waCcsICc3LjAnLCAnLXRuJywgJzgnLCAnLW1hJywgJzIwMCcsICctaW1hZScsICc8aW5maWxlLm1hZT4nLCAnLW9tYWUnLCAnPG91dGZpbGUubWFlPic=

>  <r_lp_tautomer_probability>  (231) 
1

>  <r_epik_Ionization_Penalty>  (231) 
9.28926e-07

>  <r_epik_Ionization_Penalty_Charging>  (231) 
0

>  <r_epik_Ionization_Penalty_Neutral>  (231) 
9.28926e-07

>  <r_epik_State_Penalty>  (231) 
-0

>  <r_epik_Charging_Adjusted_Penalty>  (231) 
0

>  <i_epik_Tot_Q>  (231) 
0

>  <i_epik_Tot_abs_Q>  (231) 
0

>  <s_lp_Force_Field>  (231) 
OPLS3e

>  <r_lp_Energy>  (231) 
53.3228

>  <b_lp_Chiralities_Consistent>  (231) 
1

>  <s_lp_Variant>  (231) 
80:0-1

>  <s_i_glide_gridfile>  (231) 
pfpi4k_grid

>  <i_i_glide_lignum>  (231) 
27

>  <i_i_glide_rotatable_bonds>  (231) 
5

>  <r_i_docking_score>  (231) 
-2.5188

>  <r_i_glide_ligand_efficiency>  (231) 
-0.109513

>  <r_i_glide_ligand_efficiency_sa>  (231) 
-0.31144

>  <r_i_glide_ligand_efficiency_ln>  (231) 
-0.609068

>  <r_i_glide_gscore>  (231) 
-2.5188

>  <r_i_glide_lipo>  (231) 
-0.633013

>  <r_i_glide_hbond>  (231) 
0

>  <r_i_glide_metal>  (231) 
-0

>  <r_i_glide_rewards>  (231) 
-1.18345

>  <r_i_glide_evdw>  (231) 
-5.56165

>  <r_i_glide_ecoul>  (231) 
-2.73017

>  <r_i_glide_erotb>  (231) 
0

>  <r_i_glide_esite>  (231) 
-0.014729

>  <r_i_glide_emodel>  (231) 
-5.65332

>  <r_i_glide_energy>  (231) 
-8.29182

>  <r_i_glide_einternal>  (231) 
1.93335

>  <r_i_glide_intrahb_reward>  (231) 
-0

>  <i_i_glide_confnum>  (231) 
2

>  <i_i_glide_posenum>  (231) 
1

>  <r_i_glide_eff_state_penalty>  (231) 
0

>  <ligand_id>  (231) 
80

>  <original_smiles>  (231) 
CC1C(O)C23C(C4OC4(O)C2(C)C(O)CC3(O)C(C)C)C1(C)C

>  <smiles>  (231) 
[H]OC1([H])C([H])([H])C(O[H])(C([H])(C([H])([H])[H])C([H])([H])[H])C23C([H])(O[H])C([H])(C([H])([H])[H])C(C([H])([H])[H])(C([H])([H])[H])C2([H])C2([H])OC2(O[H])C13C([H])([H])[H]

$$$$
81:0:0
     RDKit          3D

 51 55  0  0  1  0  0  0  0  0999 V2000
    5.0433   -8.0068    6.4469 C   0  0  0  0  0  0  0  0  0  0  0  0
    4.3900   -7.4600    5.1935 C   0  0  0  0  0  0  0  0  0  0  0  0
    3.6902   -6.3310    5.0540 C   0  0  0  0  0  0  0  0  0  0  0  0
    3.0777   -6.1899    3.6768 C   0  0  2  0  0  0  0  0  0  0  0  0
    3.5357   -7.4744    2.9465 C   0  0  2  0  0  0  0  0  0  0  0  0
    4.4761   -8.2383    3.9078 C   0  0  0  0  0  0  0  0  0  0  0  0
    4.1742   -7.0203    1.6180 C   0  0  0  0  0  0  0  0  0  0  0  0
    3.6497   -5.5813    1.3397 C   0  0  2  0  0  0  0  0  0  0  0  0
    2.2381   -5.7459    0.6630 C   0  0  0  0  0  0  0  0  0  0  0  0
    1.4573   -6.6415    0.9955 O   0  0  0  0  0  0  0  0  0  0  0  0
    1.8737   -4.8708   -0.3078 O   0  0  0  0  0  0  0  0  0  0  0  0
    2.6181   -3.6981   -0.6000 C   0  0  2  0  0  0  0  0  0  0  0  0
    2.4120   -3.1863   -2.0309 C   0  0  0  0  0  0  0  0  0  0  0  0
    3.6961   -2.3930   -2.3415 C   0  0  1  0  0  0  0  0  0  0  0  0
    4.0268   -2.3332   -3.8418 C   0  0  0  0  0  0  0  0  0  0  0  0
    3.5783   -1.0787   -1.8481 O   0  0  0  0  0  0  0  0  0  0  0  0
    4.7561   -3.1171   -1.5131 C   0  0  0  0  0  0  0  0  0  0  0  0
    5.9605   -3.0281   -1.7482 O   0  0  0  0  0  0  0  0  0  0  0  0
    4.0952   -3.8988   -0.4525 C   0  0  0  0  0  0  0  0  0  0  0  0
    4.6139   -4.7520    0.4516 C   0  0  0  0  0  0  0  0  0  0  0  0
    6.1154   -4.9328    0.6636 C   0  0  0  0  0  0  0  0  0  0  0  0
    3.5762   -5.0175    2.7914 C   0  0  1  0  0  0  0  0  0  0  0  0
    2.7615   -3.7376    2.9416 C   0  0  0  0  0  0  0  0  0  0  0  0
    3.3393   -2.3860    2.5857 C   0  0  0  0  0  0  0  0  0  0  0  0
    3.0995   -2.7506    4.0322 C   0  0  0  0  0  0  0  0  0  0  0  0
    4.6412   -8.9966    6.6717 H   0  0  0  0  0  0  0  0  0  0  0  0
    4.8693   -7.3733    7.3183 H   0  0  0  0  0  0  0  0  0  0  0  0
    6.1182   -8.1195    6.3037 H   0  0  0  0  0  0  0  0  0  0  0  0
    3.4908   -5.6344    5.8528 H   0  0  0  0  0  0  0  0  0  0  0  0
    1.9877   -6.1808    3.7696 H   0  0  0  0  0  0  0  0  0  0  0  0
    2.6514   -8.0879    2.7561 H   0  0  0  0  0  0  0  0  0  0  0  0
    5.5146   -8.2570    3.5804 H   0  0  0  0  0  0  0  0  0  0  0  0
    4.1446   -9.2647    4.0556 H   0  0  0  0  0  0  0  0  0  0  0  0
    5.2535   -7.0490    1.7175 H   0  0  0  0  0  0  0  0  0  0  0  0
    3.9371   -7.7285    0.8202 H   0  0  0  0  0  0  0  0  0  0  0  0
    2.3295   -2.9034    0.0944 H   0  0  0  0  0  0  0  0  0  0  0  0
    2.3296   -4.0150   -2.7295 H   0  0  0  0  0  0  0  0  0  0  0  0
    1.4823   -2.6441   -2.1603 H   0  0  0  0  0  0  0  0  0  0  0  0
    4.1634   -3.3309   -4.2626 H   0  0  0  0  0  0  0  0  0  0  0  0
    4.9450   -1.7729   -4.0166 H   0  0  0  0  0  0  0  0  0  0  0  0
    3.2286   -1.8457   -4.3998 H   0  0  0  0  0  0  0  0  0  0  0  0
    2.7008   -0.7631   -2.0218 H   0  0  0  0  0  0  0  0  0  0  0  0
    6.3598   -5.0912    1.7181 H   0  0  0  0  0  0  0  0  0  0  0  0
    6.6684   -4.0405    0.3703 H   0  0  0  0  0  0  0  0  0  0  0  0
    6.4962   -5.7772    0.0872 H   0  0  0  0  0  0  0  0  0  0  0  0
    4.5939   -4.7886    3.1046 H   0  0  0  0  0  0  0  0  0  0  0  0
    1.7007   -3.8636    2.7309 H   0  0  0  0  0  0  0  0  0  0  0  0
    4.3664   -2.3625    2.2205 H   0  0  0  0  0  0  0  0  0  0  0  0
    2.6730   -1.6485    2.1420 H   0  0  0  0  0  0  0  0  0  0  0  0
    2.2731   -2.2588    4.5410 H   0  0  0  0  0  0  0  0  0  0  0  0
    3.9634   -2.9846    4.6540 H   0  0  0  0  0  0  0  0  0  0  0  0
  1  2  1  0
  1 26  1  0
  1 27  1  0
  1 28  1  0
  2  6  1  0
  2  3  2  0
  3  4  1  0
  3 29  1  0
  4 22  1  0
  4  5  1  0
  4 30  1  1
  5  6  1  0
  5  7  1  0
  5 31  1  6
  6 32  1  0
  6 33  1  0
  8  7  1  1
  7 34  1  0
  7 35  1  0
  8 20  1  0
  8  9  1  0
  8 22  1  0
  9 10  2  0
  9 11  1  0
 11 12  1  0
 12 19  1  0
 12 13  1  0
 12 36  1  1
 13 14  1  0
 13 37  1  0
 13 38  1  0
 14 15  1  0
 14 16  1  1
 14 17  1  0
 15 39  1  0
 15 40  1  0
 15 41  1  0
 16 42  1  0
 17 18  2  0
 17 19  1  0
 19 20  2  0
 20 21  1  0
 21 43  1  0
 21 44  1  0
 21 45  1  0
 22 23  1  0
 22 46  1  1
 23 25  1  0
 23 24  1  0
 23 47  1  0
 24 25  1  0
 24 48  1  0
 24 49  1  0
 25 50  1  0
 25 51  1  0
M  END
>  <i_m_ct_stereo_status>  (232) 
1

>  <s_m_source_file>  (232) 
/var/tmp/pbs.5076255.sched01/tmph8v5ro6p/78zitxkb1g.sdf

>  <i_m_source_file_index>  (232) 
28

>  <i_lp_mmshare_version>  (232) 
48012

>  <i_f3d_flags>  (232) 
0

>  <s_epik_input>  (232) 
W0NIMl0xW0NIMl1bQ0hdMVtDQEhdMltDQEhdKFtDSF09QyhbQ0gzXSlbQ0gyXTMpW0NASF0zW0NIMl1bQ0BAXTI0Qyg9TylPW0NASF01Qyg9QzRbQ0gzXSlDKD1PKVtDQF0oW0NIMl01KShbQ0gzXSlbT0hd

>  <s_epik_cmdline>  (232) 
J2VwaWtfcHl0aG9uJywgJy1waHQnLCAnMi4wJywgJy1waCcsICc3LjAnLCAnLXRuJywgJzgnLCAnLW1hJywgJzIwMCcsICctaW1hZScsICc8aW5maWxlLm1hZT4nLCAnLW9tYWUnLCAnPG91dGZpbGUubWFlPic=

>  <r_lp_tautomer_probability>  (232) 
1

>  <r_epik_Ionization_Penalty>  (232) 
6.7313e-06

>  <r_epik_Ionization_Penalty_Charging>  (232) 
0

>  <r_epik_Ionization_Penalty_Neutral>  (232) 
6.7313e-06

>  <r_epik_State_Penalty>  (232) 
-0

>  <r_epik_Charging_Adjusted_Penalty>  (232) 
0

>  <i_epik_Tot_Q>  (232) 
0

>  <i_epik_Tot_abs_Q>  (232) 
0

>  <s_epik_Chemistry_Notes>  (232) 
This compound has an ester and may undergo hydrolysis at high or low pH.

>  <s_lp_Force_Field>  (232) 
OPLS3e

>  <r_lp_Energy>  (232) 
14.4992

>  <b_lp_Chiralities_Consistent>  (232) 
1

>  <s_lp_Variant>  (232) 
81:0-1

>  <s_i_glide_gridfile>  (232) 
pfpi4k_grid

>  <i_i_glide_lignum>  (232) 
28

>  <i_i_glide_rotatable_bonds>  (232) 
2

>  <r_i_docking_score>  (232) 
-3.30132

>  <r_i_glide_ligand_efficiency>  (232) 
-0.132053

>  <r_i_glide_ligand_efficiency_sa>  (232) 
-0.386124

>  <r_i_glide_ligand_efficiency_ln>  (232) 
-0.782511

>  <r_i_glide_gscore>  (232) 
-3.30132

>  <r_i_glide_lipo>  (232) 
-0.423043

>  <r_i_glide_hbond>  (232) 
-0.0299726

>  <r_i_glide_metal>  (232) 
-0

>  <r_i_glide_rewards>  (232) 
-1.08913

>  <r_i_glide_evdw>  (232) 
-24.3031

>  <r_i_glide_ecoul>  (232) 
-4.41052

>  <r_i_glide_erotb>  (232) 
0.161716

>  <r_i_glide_esite>  (232) 
-0.0441483

>  <r_i_glide_emodel>  (232) 
-33.8418

>  <r_i_glide_energy>  (232) 
-28.7136

>  <r_i_glide_einternal>  (232) 
1.0102

>  <r_i_glide_intrahb_reward>  (232) 
-0

>  <i_i_glide_confnum>  (232) 
2

>  <i_i_glide_posenum>  (232) 
1

>  <r_i_glide_eff_state_penalty>  (232) 
0

>  <ligand_id>  (232) 
81

>  <original_smiles>  (232) 
CC1=CC2C(C1)CC1(C(=O)OC3CC(C)(O)C(=O)C3=C1C)C2C1CC1

>  <smiles>  (232) 
[H]OC1(C([H])([H])[H])C(=O)C2=C(C([H])([H])[H])C3(C(=O)OC2([H])C1([H])[H])C([H])([H])C1([H])C([H])([H])C(C([H])([H])[H])=C([H])C1([H])C3([H])C1([H])C([H])([H])C1([H])[H]

$$$$
81:0:1
     RDKit          3D

 51 55  0  0  1  0  0  0  0  0999 V2000
    7.4158   -2.8933   -0.9263 C   0  0  0  0  0  0  0  0  0  0  0  0
    6.2122   -3.5275   -0.2535 C   0  0  0  0  0  0  0  0  0  0  0  0
    6.1638   -4.6573    0.4554 C   0  0  0  0  0  0  0  0  0  0  0  0
    4.7497   -5.0549    0.8160 C   0  0  2  0  0  0  0  0  0  0  0  0
    3.8908   -3.9078    0.2306 C   0  0  2  0  0  0  0  0  0  0  0  0
    4.8634   -2.8707   -0.3758 C   0  0  0  0  0  0  0  0  0  0  0  0
    3.0130   -3.3984    1.3923 C   0  0  0  0  0  0  0  0  0  0  0  0
    2.9752   -4.5290    2.4622 C   0  0  2  0  0  0  0  0  0  0  0  0
    1.8612   -5.5416    2.0149 C   0  0  0  0  0  0  0  0  0  0  0  0
    1.6622   -5.7894    0.8214 O   0  0  0  0  0  0  0  0  0  0  0  0
    1.0963   -6.1339    2.9625 O   0  0  0  0  0  0  0  0  0  0  0  0
    1.3820   -6.0463    4.3460 C   0  0  2  0  0  0  0  0  0  0  0  0
    0.1461   -6.2489    5.2430 C   0  0  0  0  0  0  0  0  0  0  0  0
    0.4832   -5.4940    6.5396 C   0  0  1  0  0  0  0  0  0  0  0  0
   -0.7574   -4.9963    7.3093 C   0  0  0  0  0  0  0  0  0  0  0  0
    1.2400   -6.3598    7.3647 O   0  0  0  0  0  0  0  0  0  0  0  0
    1.3823   -4.3776    6.0404 C   0  0  0  0  0  0  0  0  0  0  0  0
    1.5532   -3.3476    6.6931 O   0  0  0  0  0  0  0  0  0  0  0  0
    1.9463   -4.7102    4.7196 C   0  0  0  0  0  0  0  0  0  0  0  0
    2.6992   -3.9868    3.8850 C   0  0  0  0  0  0  0  0  0  0  0  0
    3.3079   -2.6338    4.2777 C   0  0  0  0  0  0  0  0  0  0  0  0
    4.4267   -5.0766    2.3289 C   0  0  1  0  0  0  0  0  0  0  0  0
    4.6458   -6.4298    2.9997 C   0  0  0  0  0  0  0  0  0  0  0  0
    4.9162   -6.5543    4.4838 C   0  0  0  0  0  0  0  0  0  0  0  0
    6.0179   -6.8262    3.4842 C   0  0  0  0  0  0  0  0  0  0  0  0
    7.2318   -2.7746   -1.9964 H   0  0  0  0  0  0  0  0  0  0  0  0
    8.3242   -3.4887   -0.8172 H   0  0  0  0  0  0  0  0  0  0  0  0
    7.6008   -1.9028   -0.5112 H   0  0  0  0  0  0  0  0  0  0  0  0
    7.0154   -5.3050    0.6240 H   0  0  0  0  0  0  0  0  0  0  0  0
    4.4934   -6.0134    0.3351 H   0  0  0  0  0  0  0  0  0  0  0  0
    3.2749   -4.3325   -0.5613 H   0  0  0  0  0  0  0  0  0  0  0  0
    4.8898   -1.9261    0.1680 H   0  0  0  0  0  0  0  0  0  0  0  0
    4.6190   -2.6658   -1.4171 H   0  0  0  0  0  0  0  0  0  0  0  0
    3.4425   -2.4786    1.7783 H   0  0  0  0  0  0  0  0  0  0  0  0
    2.0288   -3.1145    1.0186 H   0  0  0  0  0  0  0  0  0  0  0  0
    2.1323   -6.7866    4.6108 H   0  0  0  0  0  0  0  0  0  0  0  0
   -0.7148   -5.7799    4.7632 H   0  0  0  0  0  0  0  0  0  0  0  0
   -0.0970   -7.3103    5.3849 H   0  0  0  0  0  0  0  0  0  0  0  0
   -1.3619   -4.3273    6.6991 H   0  0  0  0  0  0  0  0  0  0  0  0
   -0.4794   -4.4686    8.2163 H   0  0  0  0  0  0  0  0  0  0  0  0
   -1.3904   -5.8258    7.6058 H   0  0  0  0  0  0  0  0  0  0  0  0
    0.7165   -7.1140    7.6006 H   0  0  0  0  0  0  0  0  0  0  0  0
    4.2989   -2.4977    3.8423 H   0  0  0  0  0  0  0  0  0  0  0  0
    3.4585   -2.5656    5.3540 H   0  0  0  0  0  0  0  0  0  0  0  0
    2.6713   -1.8002    3.9745 H   0  0  0  0  0  0  0  0  0  0  0  0
    5.0955   -4.3655    2.8325 H   0  0  0  0  0  0  0  0  0  0  0  0
    4.0552   -7.2328    2.5682 H   0  0  0  0  0  0  0  0  0  0  0  0
    4.9551   -5.6334    5.0602 H   0  0  0  0  0  0  0  0  0  0  0  0
    4.5019   -7.4141    5.0088 H   0  0  0  0  0  0  0  0  0  0  0  0
    6.3215   -7.8627    3.3407 H   0  0  0  0  0  0  0  0  0  0  0  0
    6.8046   -6.0843    3.3675 H   0  0  0  0  0  0  0  0  0  0  0  0
  1  2  1  0
  1 26  1  0
  1 27  1  0
  1 28  1  0
  2  6  1  0
  2  3  2  0
  3  4  1  0
  3 29  1  0
  4 22  1  0
  4  5  1  0
  4 30  1  6
  5  6  1  0
  5  7  1  0
  5 31  1  6
  6 32  1  0
  6 33  1  0
  8  7  1  6
  7 34  1  0
  7 35  1  0
  8 20  1  0
  8  9  1  0
  8 22  1  0
  9 10  2  0
  9 11  1  0
 11 12  1  0
 12 19  1  0
 12 13  1  0
 12 36  1  1
 13 14  1  0
 13 37  1  0
 13 38  1  0
 14 15  1  0
 14 16  1  1
 14 17  1  0
 15 39  1  0
 15 40  1  0
 15 41  1  0
 16 42  1  0
 17 18  2  0
 17 19  1  0
 19 20  2  0
 20 21  1  0
 21 43  1  0
 21 44  1  0
 21 45  1  0
 22 23  1  0
 22 46  1  1
 23 25  1  0
 23 24  1  0
 23 47  1  0
 24 25  1  0
 24 48  1  0
 24 49  1  0
 25 50  1  0
 25 51  1  0
M  END
>  <i_m_ct_stereo_status>  (233) 
1

>  <s_m_source_file>  (233) 
/var/tmp/pbs.5076255.sched01/tmph8v5ro6p/78zitxkb1g.sdf

>  <i_m_source_file_index>  (233) 
28

>  <i_lp_mmshare_version>  (233) 
48012

>  <i_f3d_flags>  (233) 
0

>  <s_epik_input>  (233) 
W0NIMl0xW0NIMl1bQ0hdMVtDQEhdMltDQEhdKFtDSF09QyhbQ0gzXSlbQ0gyXTMpW0NASF0zW0NIMl1bQ0BAXTI0Qyg9TylPW0NASF01Qyg9QzRbQ0gzXSlDKD1PKVtDQF0oW0NIMl01KShbQ0gzXSlbT0hd

>  <s_epik_cmdline>  (233) 
J2VwaWtfcHl0aG9uJywgJy1waHQnLCAnMi4wJywgJy1waCcsICc3LjAnLCAnLXRuJywgJzgnLCAnLW1hJywgJzIwMCcsICctaW1hZScsICc8aW5maWxlLm1hZT4nLCAnLW9tYWUnLCAnPG91dGZpbGUubWFlPic=

>  <r_lp_tautomer_probability>  (233) 
1

>  <r_epik_Ionization_Penalty>  (233) 
6.7313e-06

>  <r_epik_Ionization_Penalty_Charging>  (233) 
0

>  <r_epik_Ionization_Penalty_Neutral>  (233) 
6.7313e-06

>  <r_epik_State_Penalty>  (233) 
-0

>  <r_epik_Charging_Adjusted_Penalty>  (233) 
0

>  <i_epik_Tot_Q>  (233) 
0

>  <i_epik_Tot_abs_Q>  (233) 
0

>  <s_epik_Chemistry_Notes>  (233) 
This compound has an ester and may undergo hydrolysis at high or low pH.

>  <s_lp_Force_Field>  (233) 
OPLS3e

>  <r_lp_Energy>  (233) 
14.4992

>  <b_lp_Chiralities_Consistent>  (233) 
1

>  <s_lp_Variant>  (233) 
81:0-1

>  <s_i_glide_gridfile>  (233) 
pfpi4k_grid

>  <i_i_glide_lignum>  (233) 
28

>  <i_i_glide_rotatable_bonds>  (233) 
2

>  <r_i_docking_score>  (233) 
-2.68147

>  <r_i_glide_ligand_efficiency>  (233) 
-0.107259

>  <r_i_glide_ligand_efficiency_sa>  (233) 
-0.313626

>  <r_i_glide_ligand_efficiency_ln>  (233) 
-0.635588

>  <r_i_glide_gscore>  (233) 
-2.68147

>  <r_i_glide_lipo>  (233) 
-0.311263

>  <r_i_glide_hbond>  (233) 
-0.122944

>  <r_i_glide_metal>  (233) 
-0

>  <r_i_glide_rewards>  (233) 
-1.07435

>  <r_i_glide_evdw>  (233) 
-21.0398

>  <r_i_glide_ecoul>  (233) 
-1.61391

>  <r_i_glide_erotb>  (233) 
0.161716

>  <r_i_glide_esite>  (233) 
-0.0405506

>  <r_i_glide_emodel>  (233) 
-27.4298

>  <r_i_glide_energy>  (233) 
-22.6537

>  <r_i_glide_einternal>  (233) 
0.0733843

>  <r_i_glide_intrahb_reward>  (233) 
-0

>  <i_i_glide_confnum>  (233) 
2

>  <i_i_glide_posenum>  (233) 
4

>  <r_i_glide_eff_state_penalty>  (233) 
0

>  <ligand_id>  (233) 
81

>  <original_smiles>  (233) 
CC1=CC2C(C1)CC1(C(=O)OC3CC(C)(O)C(=O)C3=C1C)C2C1CC1

>  <smiles>  (233) 
[H]OC1(C([H])([H])[H])C(=O)C2=C(C([H])([H])[H])C3(C(=O)OC2([H])C1([H])[H])C([H])([H])C1([H])C([H])([H])C(C([H])([H])[H])=C([H])C1([H])C3([H])C1([H])C([H])([H])C1([H])[H]

$$$$
81:0:2
     RDKit          3D

 51 55  0  0  1  0  0  0  0  0999 V2000
    1.9349  -11.6664    4.4511 C   0  0  0  0  0  0  0  0  0  0  0  0
    2.5675  -10.3452    4.0998 C   0  0  0  0  0  0  0  0  0  0  0  0
    3.6135  -10.1476    3.3022 C   0  0  0  0  0  0  0  0  0  0  0  0
    4.0663   -8.7054    3.3161 C   0  0  2  0  0  0  0  0  0  0  0  0
    3.0792   -8.0052    4.2585 C   0  0  2  0  0  0  0  0  0  0  0  0
    2.0440   -9.0679    4.6936 C   0  0  0  0  0  0  0  0  0  0  0  0
    2.5303   -6.7868    3.4871 C   0  0  0  0  0  0  0  0  0  0  0  0
    3.5396   -6.4819    2.3413 C   0  0  2  0  0  0  0  0  0  0  0  0
    4.6694   -5.5942    2.9774 C   0  0  0  0  0  0  0  0  0  0  0  0
    5.0452   -5.7571    4.1440 O   0  0  0  0  0  0  0  0  0  0  0  0
    5.2380   -4.6312    2.2283 O   0  0  0  0  0  0  0  0  0  0  0  0
    4.9796   -4.4644    0.8426 C   0  0  2  0  0  0  0  0  0  0  0  0
    5.1880   -3.0243    0.3410 C   0  0  0  0  0  0  0  0  0  0  0  0
    4.2771   -2.9023   -0.9046 C   0  0  1  0  0  0  0  0  0  0  0  0
    3.8171   -1.4677   -1.1910 C   0  0  0  0  0  0  0  0  0  0  0  0
    4.9656   -3.3840   -2.0464 O   0  0  0  0  0  0  0  0  0  0  0  0
    3.1265   -3.8568   -0.5648 C   0  0  0  0  0  0  0  0  0  0  0  0
    2.0134   -3.8087   -1.0936 O   0  0  0  0  0  0  0  0  0  0  0  0
    3.5658   -4.8030    0.4785 C   0  0  0  0  0  0  0  0  0  0  0  0
    2.8771   -5.7563    1.1377 C   0  0  0  0  0  0  0  0  0  0  0  0
    1.4566   -6.1824    0.7708 C   0  0  0  0  0  0  0  0  0  0  0  0
    4.0211   -7.9209    1.9782 C   0  0  1  0  0  0  0  0  0  0  0  0
    5.3124   -7.9887    1.1665 C   0  0  0  0  0  0  0  0  0  0  0  0
    6.2619   -9.1689    1.2705 C   0  0  0  0  0  0  0  0  0  0  0  0
    6.6873   -7.8091    1.7768 C   0  0  0  0  0  0  0  0  0  0  0  0
    1.9807  -11.8012    5.5322 H   0  0  0  0  0  0  0  0  0  0  0  0
    2.4744  -12.4950    3.9918 H   0  0  0  0  0  0  0  0  0  0  0  0
    0.8911  -11.6856    4.1371 H   0  0  0  0  0  0  0  0  0  0  0  0
    4.1491  -10.9226    2.7815 H   0  0  0  0  0  0  0  0  0  0  0  0
    5.0425   -8.6672    3.7833 H   0  0  0  0  0  0  0  0  0  0  0  0
    3.6465   -7.6768    5.1334 H   0  0  0  0  0  0  0  0  0  0  0  0
    1.0493   -8.8869    4.2957 H   0  0  0  0  0  0  0  0  0  0  0  0
    1.9924   -9.1498    5.7760 H   0  0  0  0  0  0  0  0  0  0  0  0
    1.5393   -7.0344    3.1223 H   0  0  0  0  0  0  0  0  0  0  0  0
    2.3878   -5.9427    4.1698 H   0  0  0  0  0  0  0  0  0  0  0  0
    5.6300   -5.1326    0.2654 H   0  0  0  0  0  0  0  0  0  0  0  0
    4.8375   -2.3170    1.1010 H   0  0  0  0  0  0  0  0  0  0  0  0
    6.2305   -2.7893    0.1245 H   0  0  0  0  0  0  0  0  0  0  0  0
    3.2609   -1.0481   -0.3558 H   0  0  0  0  0  0  0  0  0  0  0  0
    3.1590   -1.4234   -2.0586 H   0  0  0  0  0  0  0  0  0  0  0  0
    4.6647   -0.8089   -1.3883 H   0  0  0  0  0  0  0  0  0  0  0  0
    5.0514   -4.3189   -1.9681 H   0  0  0  0  0  0  0  0  0  0  0  0
    1.2983   -7.2579    0.8962 H   0  0  0  0  0  0  0  0  0  0  0  0
    1.2388   -5.9726   -0.2780 H   0  0  0  0  0  0  0  0  0  0  0  0
    0.7378   -5.6646    1.4038 H   0  0  0  0  0  0  0  0  0  0  0  0
    3.2568   -8.3771    1.3595 H   0  0  0  0  0  0  0  0  0  0  0  0
    5.1650   -7.5485    0.1806 H   0  0  0  0  0  0  0  0  0  0  0  0
    6.0393   -9.9520    1.9932 H   0  0  0  0  0  0  0  0  0  0  0  0
    6.7306   -9.5105    0.3508 H   0  0  0  0  0  0  0  0  0  0  0  0
    7.4398   -7.2865    1.1907 H   0  0  0  0  0  0  0  0  0  0  0  0
    6.7446   -7.6451    2.8536 H   0  0  0  0  0  0  0  0  0  0  0  0
  1  2  1  0
  1 26  1  0
  1 27  1  0
  1 28  1  0
  2  6  1  0
  2  3  2  0
  3  4  1  0
  3 29  1  0
  4 22  1  0
  4  5  1  0
  4 30  1  1
  5  6  1  0
  5  7  1  0
  5 31  1  1
  6 32  1  0
  6 33  1  0
  8  7  1  1
  7 34  1  0
  7 35  1  0
  8 20  1  0
  8  9  1  0
  8 22  1  0
  9 10  2  0
  9 11  1  0
 11 12  1  0
 12 19  1  0
 12 13  1  0
 12 36  1  6
 13 14  1  0
 13 37  1  0
 13 38  1  0
 14 15  1  0
 14 16  1  6
 14 17  1  0
 15 39  1  0
 15 40  1  0
 15 41  1  0
 16 42  1  0
 17 18  2  0
 17 19  1  0
 19 20  2  0
 20 21  1  0
 21 43  1  0
 21 44  1  0
 21 45  1  0
 22 23  1  0
 22 46  1  6
 23 25  1  0
 23 24  1  0
 23 47  1  0
 24 25  1  0
 24 48  1  0
 24 49  1  0
 25 50  1  0
 25 51  1  0
M  END
>  <i_m_ct_stereo_status>  (234) 
1

>  <s_m_source_file>  (234) 
/var/tmp/pbs.5076255.sched01/tmph8v5ro6p/78zitxkb1g.sdf

>  <i_m_source_file_index>  (234) 
28

>  <i_lp_mmshare_version>  (234) 
48012

>  <i_f3d_flags>  (234) 
0

>  <s_epik_input>  (234) 
W0NIMl0xW0NIMl1bQ0hdMVtDQEhdMltDQEhdKFtDSF09QyhbQ0gzXSlbQ0gyXTMpW0NASF0zW0NIMl1bQ0BAXTI0Qyg9TylPW0NASF01Qyg9QzRbQ0gzXSlDKD1PKVtDQF0oW0NIMl01KShbQ0gzXSlbT0hd

>  <s_epik_cmdline>  (234) 
J2VwaWtfcHl0aG9uJywgJy1waHQnLCAnMi4wJywgJy1waCcsICc3LjAnLCAnLXRuJywgJzgnLCAnLW1hJywgJzIwMCcsICctaW1hZScsICc8aW5maWxlLm1hZT4nLCAnLW9tYWUnLCAnPG91dGZpbGUubWFlPic=

>  <r_lp_tautomer_probability>  (234) 
1

>  <r_epik_Ionization_Penalty>  (234) 
6.7313e-06

>  <r_epik_Ionization_Penalty_Charging>  (234) 
0

>  <r_epik_Ionization_Penalty_Neutral>  (234) 
6.7313e-06

>  <r_epik_State_Penalty>  (234) 
-0

>  <r_epik_Charging_Adjusted_Penalty>  (234) 
0

>  <i_epik_Tot_Q>  (234) 
0

>  <i_epik_Tot_abs_Q>  (234) 
0

>  <s_epik_Chemistry_Notes>  (234) 
This compound has an ester and may undergo hydrolysis at high or low pH.

>  <s_lp_Force_Field>  (234) 
OPLS3e

>  <r_lp_Energy>  (234) 
14.4992

>  <b_lp_Chiralities_Consistent>  (234) 
1

>  <s_lp_Variant>  (234) 
81:0-1

>  <s_i_glide_gridfile>  (234) 
pfpi4k_grid

>  <i_i_glide_lignum>  (234) 
28

>  <i_i_glide_rotatable_bonds>  (234) 
2

>  <r_i_docking_score>  (234) 
-2.65792

>  <r_i_glide_ligand_efficiency>  (234) 
-0.106317

>  <r_i_glide_ligand_efficiency_sa>  (234) 
-0.310872

>  <r_i_glide_ligand_efficiency_ln>  (234) 
-0.630006

>  <r_i_glide_gscore>  (234) 
-2.65792

>  <r_i_glide_lipo>  (234) 
-0.327653

>  <r_i_glide_hbond>  (234) 
0

>  <r_i_glide_metal>  (234) 
-0

>  <r_i_glide_rewards>  (234) 
-1.07435

>  <r_i_glide_evdw>  (234) 
-25.3678

>  <r_i_glide_ecoul>  (234) 
-0.911313

>  <r_i_glide_erotb>  (234) 
0.161716

>  <r_i_glide_esite>  (234) 
-0.0125451

>  <r_i_glide_emodel>  (234) 
-27.2933

>  <r_i_glide_energy>  (234) 
-26.2791

>  <r_i_glide_einternal>  (234) 
6.5264

>  <r_i_glide_intrahb_reward>  (234) 
-0

>  <i_i_glide_confnum>  (234) 
2

>  <i_i_glide_posenum>  (234) 
13

>  <r_i_glide_eff_state_penalty>  (234) 
0

>  <ligand_id>  (234) 
81

>  <original_smiles>  (234) 
CC1=CC2C(C1)CC1(C(=O)OC3CC(C)(O)C(=O)C3=C1C)C2C1CC1

>  <smiles>  (234) 
[H]OC1(C([H])([H])[H])C(=O)C2=C(C([H])([H])[H])C3(C(=O)OC2([H])C1([H])[H])C([H])([H])C1([H])C([H])([H])C(C([H])([H])[H])=C([H])C1([H])C3([H])C1([H])C([H])([H])C1([H])[H]

$$$$
82:0:0
     RDKit          3D

 52 56  0  0  1  0  0  0  0  0999 V2000
    3.7101   -7.7506    2.7383 C   0  0  0  0  0  0  0  0  0  0  0  0
    2.9951   -6.3885    2.5352 C   0  0  2  0  0  0  0  0  0  0  0  0
    2.3077   -6.0668    3.9136 C   0  0  0  0  0  0  0  0  0  0  0  0
    1.2092   -7.0601    4.3738 C   0  0  0  0  0  0  0  0  0  0  0  0
    0.2170   -7.3665    3.2531 C   0  0  0  0  0  0  0  0  0  0  0  0
   -0.9987   -7.3205    3.4280 O   0  0  0  0  0  0  0  0  0  0  0  0
    0.8217   -7.7015    1.8942 C   0  0  0  0  0  0  0  0  0  0  0  0
    1.8404   -6.6171    1.5418 C   0  0  0  0  0  0  0  0  0  0  0  0
    1.6350   -5.8574    0.4623 C   0  0  0  0  0  0  0  0  0  0  0  0
    2.4889   -4.6828    0.0792 C   0  0  0  0  0  0  0  0  0  0  0  0
    3.2525   -4.0547    1.2634 C   0  0  2  0  0  0  0  0  0  0  0  0
    2.2470   -3.4817    2.0867 O   0  0  0  0  0  0  0  0  0  0  0  0
    4.0416   -2.7934    0.7466 C   0  0  1  0  0  0  0  0  0  0  0  0
    4.7592   -1.9658    1.8535 C   0  0  0  0  0  0  0  0  0  0  0  0
    6.1812   -1.8019    1.2666 C   0  0  2  0  0  0  0  0  0  0  0  0
    6.0179   -0.8779    0.1890 O   0  0  0  0  0  0  0  0  0  0  0  0
    5.4226   -1.4994   -0.8237 C   0  0  0  0  0  0  0  0  0  0  0  0
    5.1549   -1.0533   -1.9348 O   0  0  0  0  0  0  0  0  0  0  0  0
    5.1784   -2.9276   -0.3276 C   0  0  2  0  0  0  0  0  0  0  0  0
    5.0092   -3.7824   -1.4406 O   0  0  0  0  0  0  0  0  0  0  0  0
    6.4503   -3.1294    0.5055 C   0  0  1  0  0  0  0  0  0  0  0  0
    7.8039   -3.0979   -0.2790 C   0  0  0  0  0  0  0  0  0  0  0  0
    6.4666   -4.3776    1.4418 C   0  0  0  0  0  0  0  0  0  0  0  0
    5.3709   -5.4957    1.3571 C   0  0  1  0  0  0  0  0  0  0  0  0
    6.0824   -6.5813    1.9175 O   0  0  0  0  0  0  0  0  0  0  0  0
    4.0023   -5.1787    2.0936 C   0  0  2  0  0  0  0  0  0  0  0  0
    4.4239   -4.6578    3.2464 F   0  0  0  0  0  0  0  0  0  0  0  0
    4.5040   -7.6766    3.4791 H   0  0  0  0  0  0  0  0  0  0  0  0
    4.1223   -8.1252    1.8011 H   0  0  0  0  0  0  0  0  0  0  0  0
    3.0555   -8.5394    3.1035 H   0  0  0  0  0  0  0  0  0  0  0  0
    3.0573   -6.0102    4.7041 H   0  0  0  0  0  0  0  0  0  0  0  0
    1.8414   -5.0842    3.8846 H   0  0  0  0  0  0  0  0  0  0  0  0
    1.6488   -7.9986    4.7100 H   0  0  0  0  0  0  0  0  0  0  0  0
    0.6701   -6.6574    5.2314 H   0  0  0  0  0  0  0  0  0  0  0  0
    1.2808   -8.6871    1.9190 H   0  0  0  0  0  0  0  0  0  0  0  0
    0.0271   -7.7435    1.1509 H   0  0  0  0  0  0  0  0  0  0  0  0
    0.8132   -6.0725   -0.1988 H   0  0  0  0  0  0  0  0  0  0  0  0
    3.1529   -5.0705   -0.6807 H   0  0  0  0  0  0  0  0  0  0  0  0
    1.8580   -3.9426   -0.4165 H   0  0  0  0  0  0  0  0  0  0  0  0
    1.9054   -2.7191    1.6414 H   0  0  0  0  0  0  0  0  0  0  0  0
    3.2875   -2.1374    0.2992 H   0  0  0  0  0  0  0  0  0  0  0  0
    4.2848   -0.9951    2.0088 H   0  0  0  0  0  0  0  0  0  0  0  0
    4.7973   -2.4593    2.8178 H   0  0  0  0  0  0  0  0  0  0  0  0
    6.9479   -1.4984    1.9831 H   0  0  0  0  0  0  0  0  0  0  0  0
    4.7899   -4.6549   -1.1551 H   0  0  0  0  0  0  0  0  0  0  0  0
    7.9136   -3.9801   -0.9101 H   0  0  0  0  0  0  0  0  0  0  0  0
    8.6484   -3.0865    0.4112 H   0  0  0  0  0  0  0  0  0  0  0  0
    7.9396   -2.2419   -0.9371 H   0  0  0  0  0  0  0  0  0  0  0  0
    7.4262   -4.8665    1.2548 H   0  0  0  0  0  0  0  0  0  0  0  0
    6.5729   -4.0443    2.4751 H   0  0  0  0  0  0  0  0  0  0  0  0
    5.1856   -5.7770    0.3228 H   0  0  0  0  0  0  0  0  0  0  0  0
    6.2708   -6.3800    2.8236 H   0  0  0  0  0  0  0  0  0  0  0  0
  2  1  1  1
  1 28  1  0
  1 29  1  0
  1 30  1  0
  2  8  1  0
  2 26  1  0
  2  3  1  0
  3  4  1  0
  3 31  1  0
  3 32  1  0
  4  5  1  0
  4 33  1  0
  4 34  1  0
  5  6  2  0
  5  7  1  0
  7  8  1  0
  7 35  1  0
  7 36  1  0
  8  9  2  0
  9 10  1  0
  9 37  1  0
 10 11  1  0
 10 38  1  0
 10 39  1  0
 11 26  1  0
 11 12  1  1
 11 13  1  0
 12 40  1  0
 13 19  1  0
 13 14  1  0
 13 41  1  6
 14 15  1  0
 14 42  1  0
 14 43  1  0
 15 21  1  0
 15 16  1  0
 15 44  1  1
 16 17  1  0
 17 18  2  0
 17 19  1  0
 19 20  1  6
 19 21  1  0
 20 45  1  0
 21 22  1  6
 21 23  1  0
 22 46  1  0
 22 47  1  0
 22 48  1  0
 23 24  1  0
 23 49  1  0
 23 50  1  0
 24 25  1  0
 24 26  1  0
 24 51  1  6
 25 52  1  0
 26 27  1  1
M  END
>  <i_m_ct_stereo_status>  (235) 
1

>  <s_m_source_file>  (235) 
/var/tmp/pbs.5076255.sched01/tmph8v5ro6p/78zitxkb1g.sdf

>  <i_m_source_file_index>  (235) 
29

>  <i_lp_mmshare_version>  (235) 
48012

>  <i_f3d_flags>  (235) 
0

>  <s_epik_input>  (235) 
W0NIMl0xW0NIMl1DKD1PKVtDSDJdQyhbQ0BdMTJbQ0gzXSk9W0NIXVtDSDJdW0NAXTMoW09IXSlbQ0BASF00W0NAXTUoW09IXSlbQ0BAXShbQ0gzXSkoW0NASF0oW0NIMl00KU9DNT1PKVtDSDJdW0NAQEhdKFtPSF0pW0NAXTIzRg==

>  <s_epik_cmdline>  (235) 
J2VwaWtfcHl0aG9uJywgJy1waHQnLCAnMi4wJywgJy1waCcsICc3LjAnLCAnLXRuJywgJzgnLCAnLW1hJywgJzIwMCcsICctaW1hZScsICc8aW5maWxlLm1hZT4nLCAnLW9tYWUnLCAnPG91dGZpbGUubWFlPic=

>  <r_lp_tautomer_probability>  (235) 
1

>  <r_epik_Ionization_Penalty>  (235) 
2.37004e-06

>  <r_epik_Ionization_Penalty_Charging>  (235) 
0

>  <r_epik_Ionization_Penalty_Neutral>  (235) 
2.37004e-06

>  <r_epik_State_Penalty>  (235) 
-0

>  <r_epik_Charging_Adjusted_Penalty>  (235) 
0

>  <i_epik_Tot_Q>  (235) 
0

>  <i_epik_Tot_abs_Q>  (235) 
0

>  <s_epik_Chemistry_Notes>  (235) 
This compound has an ester and may undergo hydrolysis at high or low pH.

>  <s_lp_Force_Field>  (235) 
OPLS3e

>  <r_lp_Energy>  (235) 
80.8208

>  <b_lp_Chiralities_Consistent>  (235) 
1

>  <s_lp_Variant>  (235) 
82:0-1

>  <s_i_glide_gridfile>  (235) 
pfpi4k_grid

>  <i_i_glide_lignum>  (235) 
29

>  <i_i_glide_rotatable_bonds>  (235) 
3

>  <r_i_docking_score>  (235) 
-3.28112

>  <r_i_glide_ligand_efficiency>  (235) 
-0.121523

>  <r_i_glide_ligand_efficiency_sa>  (235) 
-0.364569

>  <r_i_glide_ligand_efficiency_ln>  (235) 
-0.76379

>  <r_i_glide_gscore>  (235) 
-3.28112

>  <r_i_glide_lipo>  (235) 
-0.603951

>  <r_i_glide_hbond>  (235) 
-0.0103347

>  <r_i_glide_metal>  (235) 
-0

>  <r_i_glide_rewards>  (235) 
-0.819633

>  <r_i_glide_evdw>  (235) 
-28.664

>  <r_i_glide_ecoul>  (235) 
-2.18972

>  <r_i_glide_erotb>  (235) 
0

>  <r_i_glide_esite>  (235) 
-0.0855422

>  <r_i_glide_emodel>  (235) 
-37.1915

>  <r_i_glide_energy>  (235) 
-30.8537

>  <r_i_glide_einternal>  (235) 
0.239243

>  <r_i_glide_intrahb_reward>  (235) 
-0

>  <i_i_glide_confnum>  (235) 
1

>  <i_i_glide_posenum>  (235) 
10

>  <r_i_glide_eff_state_penalty>  (235) 
0

>  <ligand_id>  (235) 
82

>  <original_smiles>  (235) 
CC12CCC(=O)CC1=CCC1(O)C3CC4OC(=O)C3(O)C4(C)CC(O)C21F

>  <smiles>  (235) 
[H]OC1([H])C([H])([H])C2(C([H])([H])[H])C3([H])OC(=O)C2(O[H])C([H])(C3([H])[H])C2(O[H])C([H])([H])C([H])=C3C([H])([H])C(=O)C([H])([H])C([H])([H])C3(C([H])([H])[H])C12F

$$$$
82:0:1
     RDKit          3D

 52 56  0  0  1  0  0  0  0  0999 V2000
    3.7767   -7.6731    2.8057 C   0  0  0  0  0  0  0  0  0  0  0  0
    3.0403   -6.3243    2.5729 C   0  0  2  0  0  0  0  0  0  0  0  0
    2.3433   -5.9880    3.9436 C   0  0  0  0  0  0  0  0  0  0  0  0
    1.2595   -6.9888    4.4239 C   0  0  0  0  0  0  0  0  0  0  0  0
    0.2746   -7.3337    3.3078 C   0  0  0  0  0  0  0  0  0  0  0  0
   -0.9442   -7.3069    3.4800 O   0  0  0  0  0  0  0  0  0  0  0  0
    0.8880   -7.6834    1.9573 C   0  0  0  0  0  0  0  0  0  0  0  0
    1.8907   -6.5921    1.5812 C   0  0  0  0  0  0  0  0  0  0  0  0
    1.6781   -5.8585    0.4818 C   0  0  0  0  0  0  0  0  0  0  0  0
    2.5146   -4.6776    0.0796 C   0  0  0  0  0  0  0  0  0  0  0  0
    3.2603   -4.0134    1.2541 C   0  0  2  0  0  0  0  0  0  0  0  0
    2.2454   -3.4381    2.0641 O   0  0  0  0  0  0  0  0  0  0  0  0
    4.0343   -2.7518    0.7154 C   0  0  1  0  0  0  0  0  0  0  0  0
    4.7383   -1.8897    1.8067 C   0  0  0  0  0  0  0  0  0  0  0  0
    6.1588   -1.7174    1.2192 C   0  0  2  0  0  0  0  0  0  0  0  0
    5.9904   -0.8213    0.1222 O   0  0  0  0  0  0  0  0  0  0  0  0
    5.4069   -1.4706   -0.8799 C   0  0  0  0  0  0  0  0  0  0  0  0
    5.1230   -1.0510   -1.9964 O   0  0  0  0  0  0  0  0  0  0  0  0
    5.1776   -2.8911   -0.3523 C   0  0  2  0  0  0  0  0  0  0  0  0
    5.0163   -3.7696   -1.4510 O   0  0  0  0  0  0  0  0  0  0  0  0
    6.4492   -3.0580    0.4867 C   0  0  1  0  0  0  0  0  0  0  0  0
    7.8045   -3.0225   -0.2952 C   0  0  0  0  0  0  0  0  0  0  0  0
    6.4816   -4.2859    1.4477 C   0  0  0  0  0  0  0  0  0  0  0  0
    5.4014   -5.4186    1.3797 C   0  0  1  0  0  0  0  0  0  0  0  0
    6.1320   -6.4791    1.9598 O   0  0  0  0  0  0  0  0  0  0  0  0
    4.0262   -5.1070    2.1105 C   0  0  2  0  0  0  0  0  0  0  0  0
    4.4299   -4.5516    3.2545 F   0  0  0  0  0  0  0  0  0  0  0  0
    4.5686   -7.5716    3.5461 H   0  0  0  0  0  0  0  0  0  0  0  0
    4.1816   -8.0711    1.8755 H   0  0  0  0  0  0  0  0  0  0  0  0
    3.1332   -8.4612    3.1930 H   0  0  0  0  0  0  0  0  0  0  0  0
    3.0889   -5.9023    4.7366 H   0  0  0  0  0  0  0  0  0  0  0  0
    1.8611   -5.0139    3.8953 H   0  0  0  0  0  0  0  0  0  0  0  0
    1.7127   -7.9137    4.7806 H   0  0  0  0  0  0  0  0  0  0  0  0
    0.7115   -6.5761    5.2710 H   0  0  0  0  0  0  0  0  0  0  0  0
    1.3639   -8.6620    2.0032 H   0  0  0  0  0  0  0  0  0  0  0  0
    0.0964   -7.7555    1.2117 H   0  0  0  0  0  0  0  0  0  0  0  0
    0.8583   -6.0984   -0.1728 H   0  0  0  0  0  0  0  0  0  0  0  0
    3.1887   -5.0738   -0.6692 H   0  0  0  0  0  0  0  0  0  0  0  0
    1.8749   -3.9568   -0.4320 H   0  0  0  0  0  0  0  0  0  0  0  0
    1.8887   -2.6952    1.5984 H   0  0  0  0  0  0  0  0  0  0  0  0
    3.2727   -2.1148    0.2527 H   0  0  0  0  0  0  0  0  0  0  0  0
    4.2473   -0.9247    1.9417 H   0  0  0  0  0  0  0  0  0  0  0  0
    4.7806   -2.3627    2.7824 H   0  0  0  0  0  0  0  0  0  0  0  0
    6.9180   -1.3911    1.9332 H   0  0  0  0  0  0  0  0  0  0  0  0
    4.8152   -4.6401   -1.1450 H   0  0  0  0  0  0  0  0  0  0  0  0
    7.9274   -3.9108   -0.9132 H   0  0  0  0  0  0  0  0  0  0  0  0
    8.6475   -2.9822    0.3976 H   0  0  0  0  0  0  0  0  0  0  0  0
    7.9301   -2.1751   -0.9673 H   0  0  0  0  0  0  0  0  0  0  0  0
    7.4498   -4.7641    1.2798 H   0  0  0  0  0  0  0  0  0  0  0  0
    6.5741   -3.9344    2.4739 H   0  0  0  0  0  0  0  0  0  0  0  0
    5.2226   -5.7222    0.3496 H   0  0  0  0  0  0  0  0  0  0  0  0
    5.5976   -7.2585    1.9555 H   0  0  0  0  0  0  0  0  0  0  0  0
  2  1  1  1
  1 28  1  0
  1 29  1  0
  1 30  1  0
  2  8  1  0
  2 26  1  0
  2  3  1  0
  3  4  1  0
  3 31  1  0
  3 32  1  0
  4  5  1  0
  4 33  1  0
  4 34  1  0
  5  6  2  0
  5  7  1  0
  7  8  1  0
  7 35  1  0
  7 36  1  0
  8  9  2  0
  9 10  1  0
  9 37  1  0
 10 11  1  0
 10 38  1  0
 10 39  1  0
 11 26  1  0
 11 12  1  1
 11 13  1  0
 12 40  1  0
 13 19  1  0
 13 14  1  0
 13 41  1  6
 14 15  1  0
 14 42  1  0
 14 43  1  0
 15 21  1  0
 15 16  1  0
 15 44  1  1
 16 17  1  0
 17 18  2  0
 17 19  1  0
 19 20  1  6
 19 21  1  0
 20 45  1  0
 21 22  1  6
 21 23  1  0
 22 46  1  0
 22 47  1  0
 22 48  1  0
 23 24  1  0
 23 49  1  0
 23 50  1  0
 24 25  1  0
 24 26  1  0
 24 51  1  6
 25 52  1  0
 26 27  1  1
M  END
>  <i_m_ct_stereo_status>  (236) 
1

>  <s_m_source_file>  (236) 
/var/tmp/pbs.5076255.sched01/tmph8v5ro6p/78zitxkb1g.sdf

>  <i_m_source_file_index>  (236) 
29

>  <i_lp_mmshare_version>  (236) 
48012

>  <i_f3d_flags>  (236) 
0

>  <s_epik_input>  (236) 
W0NIMl0xW0NIMl1DKD1PKVtDSDJdQyhbQ0BdMTJbQ0gzXSk9W0NIXVtDSDJdW0NAXTMoW09IXSlbQ0BASF00W0NAXTUoW09IXSlbQ0BAXShbQ0gzXSkoW0NASF0oW0NIMl00KU9DNT1PKVtDSDJdW0NAQEhdKFtPSF0pW0NAXTIzRg==

>  <s_epik_cmdline>  (236) 
J2VwaWtfcHl0aG9uJywgJy1waHQnLCAnMi4wJywgJy1waCcsICc3LjAnLCAnLXRuJywgJzgnLCAnLW1hJywgJzIwMCcsICctaW1hZScsICc8aW5maWxlLm1hZT4nLCAnLW9tYWUnLCAnPG91dGZpbGUubWFlPic=

>  <r_lp_tautomer_probability>  (236) 
1

>  <r_epik_Ionization_Penalty>  (236) 
2.37004e-06

>  <r_epik_Ionization_Penalty_Charging>  (236) 
0

>  <r_epik_Ionization_Penalty_Neutral>  (236) 
2.37004e-06

>  <r_epik_State_Penalty>  (236) 
-0

>  <r_epik_Charging_Adjusted_Penalty>  (236) 
0

>  <i_epik_Tot_Q>  (236) 
0

>  <i_epik_Tot_abs_Q>  (236) 
0

>  <s_epik_Chemistry_Notes>  (236) 
This compound has an ester and may undergo hydrolysis at high or low pH.

>  <s_lp_Force_Field>  (236) 
OPLS3e

>  <r_lp_Energy>  (236) 
80.8208

>  <b_lp_Chiralities_Consistent>  (236) 
1

>  <s_lp_Variant>  (236) 
82:0-1

>  <s_i_glide_gridfile>  (236) 
pfpi4k_grid

>  <i_i_glide_lignum>  (236) 
29

>  <i_i_glide_rotatable_bonds>  (236) 
3

>  <r_i_docking_score>  (236) 
-3.20852

>  <r_i_glide_ligand_efficiency>  (236) 
-0.118834

>  <r_i_glide_ligand_efficiency_sa>  (236) 
-0.356502

>  <r_i_glide_ligand_efficiency_ln>  (236) 
-0.746891

>  <r_i_glide_gscore>  (236) 
-3.20852

>  <r_i_glide_lipo>  (236) 
-0.57978

>  <r_i_glide_hbond>  (236) 
-0.00175014

>  <r_i_glide_metal>  (236) 
-0

>  <r_i_glide_rewards>  (236) 
-0.820329

>  <r_i_glide_evdw>  (236) 
-28.7582

>  <r_i_glide_ecoul>  (236) 
-1.89045

>  <r_i_glide_erotb>  (236) 
0

>  <r_i_glide_esite>  (236) 
-0.0851842

>  <r_i_glide_emodel>  (236) 
-36.714

>  <r_i_glide_energy>  (236) 
-30.6487

>  <r_i_glide_einternal>  (236) 
0.54094

>  <r_i_glide_intrahb_reward>  (236) 
-0

>  <i_i_glide_confnum>  (236) 
2

>  <i_i_glide_posenum>  (236) 
1

>  <r_i_glide_eff_state_penalty>  (236) 
0

>  <ligand_id>  (236) 
82

>  <original_smiles>  (236) 
CC12CCC(=O)CC1=CCC1(O)C3CC4OC(=O)C3(O)C4(C)CC(O)C21F

>  <smiles>  (236) 
[H]OC1([H])C([H])([H])C2(C([H])([H])[H])C3([H])OC(=O)C2(O[H])C([H])(C3([H])[H])C2(O[H])C([H])([H])C([H])=C3C([H])([H])C(=O)C([H])([H])C([H])([H])C3(C([H])([H])[H])C12F

$$$$
82:0:2
     RDKit          3D

 52 56  0  0  1  0  0  0  0  0999 V2000
    4.0306   -7.5777    2.8035 C   0  0  0  0  0  0  0  0  0  0  0  0
    3.2590   -6.2475    2.5835 C   0  0  2  0  0  0  0  0  0  0  0  0
    2.6464   -5.8862    3.9875 C   0  0  0  0  0  0  0  0  0  0  0  0
    1.6132   -6.8912    4.5607 C   0  0  0  0  0  0  0  0  0  0  0  0
    0.5657   -7.2810    3.5188 C   0  0  0  0  0  0  0  0  0  0  0  0
   -0.6393   -7.2772    3.7739 O   0  0  0  0  0  0  0  0  0  0  0  0
    1.0953   -7.6560    2.1398 C   0  0  0  0  0  0  0  0  0  0  0  0
    2.0528   -6.5576    1.6738 C   0  0  0  0  0  0  0  0  0  0  0  0
    1.7591   -5.8569    0.5724 C   0  0  0  0  0  0  0  0  0  0  0  0
    2.5489   -4.6760    0.0794 C   0  0  0  0  0  0  0  0  0  0  0  0
    3.3564   -3.9712    1.1927 C   0  0  2  0  0  0  0  0  0  0  0  0
    2.3840   -3.3903    2.0499 O   0  0  0  0  0  0  0  0  0  0  0  0
    4.0713   -2.7123    0.5754 C   0  0  1  0  0  0  0  0  0  0  0  0
    4.8274   -1.8127    1.6010 C   0  0  0  0  0  0  0  0  0  0  0  0
    6.2033   -1.6359    0.9197 C   0  0  2  0  0  0  0  0  0  0  0  0
    5.9382   -0.7681   -0.1800 O   0  0  0  0  0  0  0  0  0  0  0  0
    5.3151   -1.4525   -1.1346 C   0  0  0  0  0  0  0  0  0  0  0  0
    4.9788   -1.0635   -2.2499 O   0  0  0  0  0  0  0  0  0  0  0  0
    5.1447   -2.8621   -0.5613 C   0  0  2  0  0  0  0  0  0  0  0  0
    4.9410   -3.7726   -1.6252 O   0  0  0  0  0  0  0  0  0  0  0  0
    6.4688   -2.9871    0.1969 C   0  0  1  0  0  0  0  0  0  0  0  0
    7.7721   -2.9511   -0.6672 C   0  0  0  0  0  0  0  0  0  0  0  0
    6.5852   -4.1900    1.1779 C   0  0  0  0  0  0  0  0  0  0  0  0
    5.5265   -5.3439    1.2171 C   0  0  1  0  0  0  0  0  0  0  0  0
    6.3058   -6.3733    1.7961 O   0  0  0  0  0  0  0  0  0  0  0  0
    4.1943   -5.0294    2.0251 C   0  0  2  0  0  0  0  0  0  0  0  0
    4.6602   -4.4362    3.1260 F   0  0  0  0  0  0  0  0  0  0  0  0
    4.8691   -7.4422    3.4848 H   0  0  0  0  0  0  0  0  0  0  0  0
    4.3969   -7.9821    1.8599 H   0  0  0  0  0  0  0  0  0  0  0  0
    3.4304   -8.3701    3.2472 H   0  0  0  0  0  0  0  0  0  0  0  0
    3.4402   -5.7698    4.7277 H   0  0  0  0  0  0  0  0  0  0  0  0
    2.1457   -4.9215    3.9463 H   0  0  0  0  0  0  0  0  0  0  0  0
    2.1042   -7.7991    4.9103 H   0  0  0  0  0  0  0  0  0  0  0  0
    1.1140   -6.4660    5.4310 H   0  0  0  0  0  0  0  0  0  0  0  0
    1.5900   -8.6252    2.1816 H   0  0  0  0  0  0  0  0  0  0  0  0
    0.2589   -7.7606    1.4490 H   0  0  0  0  0  0  0  0  0  0  0  0
    0.9027   -6.1313   -0.0183 H   0  0  0  0  0  0  0  0  0  0  0  0
    3.1816   -5.0805   -0.6978 H   0  0  0  0  0  0  0  0  0  0  0  0
    1.8646   -3.9772   -0.4020 H   0  0  0  0  0  0  0  0  0  0  0  0
    1.9923   -2.6564    1.5960 H   0  0  0  0  0  0  0  0  0  0  0  0
    3.2703   -2.0981    0.1493 H   0  0  0  0  0  0  0  0  0  0  0  0
    4.3308   -0.8509    1.7427 H   0  0  0  0  0  0  0  0  0  0  0  0
    4.9388   -2.2567    2.5842 H   0  0  0  0  0  0  0  0  0  0  0  0
    7.0034   -1.2804    1.5757 H   0  0  0  0  0  0  0  0  0  0  0  0
    4.7501   -4.6332   -1.2853 H   0  0  0  0  0  0  0  0  0  0  0  0
    7.8729   -3.8526   -1.2674 H   0  0  0  0  0  0  0  0  0  0  0  0
    8.6584   -2.8779   -0.0343 H   0  0  0  0  0  0  0  0  0  0  0  0
    7.8407   -2.1293   -1.3745 H   0  0  0  0  0  0  0  0  0  0  0  0
    7.5572   -4.6464    0.9724 H   0  0  0  0  0  0  0  0  0  0  0  0
    6.7142   -3.7952    2.1802 H   0  0  0  0  0  0  0  0  0  0  0  0
    5.2871   -5.6795    0.2093 H   0  0  0  0  0  0  0  0  0  0  0  0
    7.0840   -6.5104    1.2754 H   0  0  0  0  0  0  0  0  0  0  0  0
  2  1  1  1
  1 28  1  0
  1 29  1  0
  1 30  1  0
  2  8  1  0
  2 26  1  0
  2  3  1  0
  3  4  1  0
  3 31  1  0
  3 32  1  0
  4  5  1  0
  4 33  1  0
  4 34  1  0
  5  6  2  0
  5  7  1  0
  7  8  1  0
  7 35  1  0
  7 36  1  0
  8  9  2  0
  9 10  1  0
  9 37  1  0
 10 11  1  0
 10 38  1  0
 10 39  1  0
 11 26  1  0
 11 12  1  1
 11 13  1  0
 12 40  1  0
 13 19  1  0
 13 14  1  0
 13 41  1  6
 14 15  1  0
 14 42  1  0
 14 43  1  0
 15 21  1  0
 15 16  1  0
 15 44  1  1
 16 17  1  0
 17 18  2  0
 17 19  1  0
 19 20  1  6
 19 21  1  0
 20 45  1  0
 21 22  1  6
 21 23  1  0
 22 46  1  0
 22 47  1  0
 22 48  1  0
 23 24  1  0
 23 49  1  0
 23 50  1  0
 24 25  1  0
 24 26  1  0
 24 51  1  6
 25 52  1  0
 26 27  1  1
M  END
>  <i_m_ct_stereo_status>  (237) 
1

>  <s_m_source_file>  (237) 
/var/tmp/pbs.5076255.sched01/tmph8v5ro6p/78zitxkb1g.sdf

>  <i_m_source_file_index>  (237) 
29

>  <i_lp_mmshare_version>  (237) 
48012

>  <i_f3d_flags>  (237) 
0

>  <s_epik_input>  (237) 
W0NIMl0xW0NIMl1DKD1PKVtDSDJdQyhbQ0BdMTJbQ0gzXSk9W0NIXVtDSDJdW0NAXTMoW09IXSlbQ0BASF00W0NAXTUoW09IXSlbQ0BAXShbQ0gzXSkoW0NASF0oW0NIMl00KU9DNT1PKVtDSDJdW0NAQEhdKFtPSF0pW0NAXTIzRg==

>  <s_epik_cmdline>  (237) 
J2VwaWtfcHl0aG9uJywgJy1waHQnLCAnMi4wJywgJy1waCcsICc3LjAnLCAnLXRuJywgJzgnLCAnLW1hJywgJzIwMCcsICctaW1hZScsICc8aW5maWxlLm1hZT4nLCAnLW9tYWUnLCAnPG91dGZpbGUubWFlPic=

>  <r_lp_tautomer_probability>  (237) 
1

>  <r_epik_Ionization_Penalty>  (237) 
2.37004e-06

>  <r_epik_Ionization_Penalty_Charging>  (237) 
0

>  <r_epik_Ionization_Penalty_Neutral>  (237) 
2.37004e-06

>  <r_epik_State_Penalty>  (237) 
-0

>  <r_epik_Charging_Adjusted_Penalty>  (237) 
0

>  <i_epik_Tot_Q>  (237) 
0

>  <i_epik_Tot_abs_Q>  (237) 
0

>  <s_epik_Chemistry_Notes>  (237) 
This compound has an ester and may undergo hydrolysis at high or low pH.

>  <s_lp_Force_Field>  (237) 
OPLS3e

>  <r_lp_Energy>  (237) 
80.8208

>  <b_lp_Chiralities_Consistent>  (237) 
1

>  <s_lp_Variant>  (237) 
82:0-1

>  <s_i_glide_gridfile>  (237) 
pfpi4k_grid

>  <i_i_glide_lignum>  (237) 
29

>  <i_i_glide_rotatable_bonds>  (237) 
3

>  <r_i_docking_score>  (237) 
-3.07926

>  <r_i_glide_ligand_efficiency>  (237) 
-0.114047

>  <r_i_glide_ligand_efficiency_sa>  (237) 
-0.34214

>  <r_i_glide_ligand_efficiency_ln>  (237) 
-0.716801

>  <r_i_glide_gscore>  (237) 
-3.07926

>  <r_i_glide_lipo>  (237) 
-0.474314

>  <r_i_glide_hbond>  (237) 
-0.0100699

>  <r_i_glide_metal>  (237) 
-0

>  <r_i_glide_rewards>  (237) 
-0.826466

>  <r_i_glide_evdw>  (237) 
-28.8329

>  <r_i_glide_ecoul>  (237) 
-1.66138

>  <r_i_glide_erotb>  (237) 
0

>  <r_i_glide_esite>  (237) 
-0.0775587

>  <r_i_glide_emodel>  (237) 
-36.2634

>  <r_i_glide_energy>  (237) 
-30.4943

>  <r_i_glide_einternal>  (237) 
0.58032

>  <r_i_glide_intrahb_reward>  (237) 
-0

>  <i_i_glide_confnum>  (237) 
2

>  <i_i_glide_posenum>  (237) 
4

>  <r_i_glide_eff_state_penalty>  (237) 
0

>  <ligand_id>  (237) 
82

>  <original_smiles>  (237) 
CC12CCC(=O)CC1=CCC1(O)C3CC4OC(=O)C3(O)C4(C)CC(O)C21F

>  <smiles>  (237) 
[H]OC1([H])C([H])([H])C2(C([H])([H])[H])C3([H])OC(=O)C2(O[H])C([H])(C3([H])[H])C2(O[H])C([H])([H])C([H])=C3C([H])([H])C(=O)C([H])([H])C([H])([H])C3(C([H])([H])[H])C12F

$$$$
83:0:0
     RDKit          3D

 65 70  0  0  1  0  0  0  0  0999 V2000
    3.8968   -0.7535   -4.0205 C   0  0  0  0  0  0  0  0  0  0  0  0
    4.6153   -1.9085   -3.5785 O   0  0  0  0  0  0  0  0  0  0  0  0
    4.4603   -2.2600   -2.2532 C   0  0  0  0  0  0  0  0  0  0  0  0
    5.1292   -3.4052   -1.7549 C   0  0  0  0  0  0  0  0  0  0  0  0
    4.9765   -3.8034   -0.4024 C   0  0  0  0  0  0  0  0  0  0  0  0
    4.1502   -3.0666    0.4836 C   0  0  0  0  0  0  0  0  0  0  0  0
    4.0017   -3.4502    1.9036 C   0  0  0  0  0  0  0  0  0  0  0  0
    3.7722   -2.6767    2.9933 C   0  0  0  0  0  0  0  0  0  0  0  0
    3.7426   -1.2116    3.0062 C   0  0  0  0  0  0  0  0  0  0  0  0
    4.6291   -0.4836    2.5635 O   0  0  0  0  0  0  0  0  0  0  0  0
    2.6324   -0.7445    3.6112 N   0  0  0  0  0  0  0  0  0  0  0  0
    2.2117    0.6633    3.9313 C   0  0  2  0  0  0  0  0  0  0  0  0
    3.2152    1.1841    4.9920 C   0  0  2  0  0  0  0  0  0  0  0  0
    2.6669    0.4359    6.2135 C   0  0  0  0  0  0  0  0  0  0  0  0
    1.3978    0.0320    6.0405 C   0  0  0  0  0  0  0  0  0  0  0  0
    0.8927    0.6710    4.7756 C   0  0  1  0  0  0  0  0  0  0  0  0
    0.2079    2.0088    5.2763 C   0  0  0  0  0  0  0  0  0  0  0  0
   -0.3374    3.0100    4.2249 C   0  0  0  0  0  0  0  0  0  0  0  0
   -0.5960    2.4207    2.8913 N   0  0  2  0  0  0  0  0  0  0  0  0
   -2.0460    2.2471    2.6416 C   0  0  0  0  0  0  0  0  0  0  0  0
    0.1939    1.1861    2.6427 C   0  0  2  0  0  0  0  0  0  0  0  0
   -0.0874    0.1141    3.7558 C   0  0  0  0  0  0  0  0  0  0  0  0
    1.7641    1.4405    2.6660 C   0  0  2  0  0  0  0  0  0  0  0  0
    2.2015    0.8897    1.4348 O   0  0  0  0  0  0  0  0  0  0  0  0
    2.3774    2.8660    2.6307 C   0  0  0  0  0  0  0  0  0  0  0  0
    2.8456    3.4873    3.9418 C   0  0  0  0  0  0  0  0  0  0  0  0
    2.8529    4.8911    4.0257 C   0  0  0  0  0  0  0  0  0  0  0  0
    3.2421    5.5320    5.2185 C   0  0  0  0  0  0  0  0  0  0  0  0
    3.6445    4.7581    6.3304 C   0  0  0  0  0  0  0  0  0  0  0  0
    4.0198    5.3868    7.4793 O   0  0  0  0  0  0  0  0  0  0  0  0
    3.6562    3.3536    6.2467 C   0  0  0  0  0  0  0  0  0  0  0  0
    3.2519    2.7036    5.0592 C   0  0  0  0  0  0  0  0  0  0  0  0
    3.4831   -1.9454   -0.0327 C   0  0  0  0  0  0  0  0  0  0  0  0
    3.6424   -1.5348   -1.3530 C   0  0  0  0  0  0  0  0  0  0  0  0
    4.0894   -0.5217   -5.0686 H   0  0  0  0  0  0  0  0  0  0  0  0
    4.1784    0.1316   -3.4436 H   0  0  0  0  0  0  0  0  0  0  0  0
    2.8185   -0.9041   -3.9138 H   0  0  0  0  0  0  0  0  0  0  0  0
    5.7662   -3.9836   -2.4133 H   0  0  0  0  0  0  0  0  0  0  0  0
    5.4901   -4.6834   -0.0398 H   0  0  0  0  0  0  0  0  0  0  0  0
    4.0488   -4.5180    2.0772 H   0  0  0  0  0  0  0  0  0  0  0  0
    3.6239   -3.1860    3.9369 H   0  0  0  0  0  0  0  0  0  0  0  0
    2.0133   -1.4550    3.9665 H   0  0  0  0  0  0  0  0  0  0  0  0
    4.2306    0.8401    4.7936 H   0  0  0  0  0  0  0  0  0  0  0  0
    3.2795    0.1912    7.0655 H   0  0  0  0  0  0  0  0  0  0  0  0
    0.7953   -0.5407    6.7290 H   0  0  0  0  0  0  0  0  0  0  0  0
   -0.6462    1.7019    5.8872 H   0  0  0  0  0  0  0  0  0  0  0  0
    0.8325    2.5557    5.9839 H   0  0  0  0  0  0  0  0  0  0  0  0
   -1.2413    3.4746    4.6280 H   0  0  0  0  0  0  0  0  0  0  0  0
    0.3400    3.8486    4.1121 H   0  0  0  0  0  0  0  0  0  0  0  0
   -2.5144    1.6948    3.4605 H   0  0  0  0  0  0  0  0  0  0  0  0
   -2.2446    1.7282    1.7004 H   0  0  0  0  0  0  0  0  0  0  0  0
   -2.5541    3.2151    2.6147 H   0  0  0  0  0  0  0  0  0  0  0  0
   -0.1217    0.7958    1.6732 H   0  0  0  0  0  0  0  0  0  0  0  0
    0.1492   -0.8927    3.4214 H   0  0  0  0  0  0  0  0  0  0  0  0
   -1.1210    0.0944    4.1204 H   0  0  0  0  0  0  0  0  0  0  0  0
    1.5937    0.2380    1.1175 H   0  0  0  0  0  0  0  0  0  0  0  0
    3.3202    2.7804    2.1014 H   0  0  0  0  0  0  0  0  0  0  0  0
    1.8139    3.5643    2.0250 H   0  0  0  0  0  0  0  0  0  0  0  0
    2.5428    5.4845    3.1741 H   0  0  0  0  0  0  0  0  0  0  0  0
    3.2253    6.6068    5.2797 H   0  0  0  0  0  0  0  0  0  0  0  0
    4.2484    4.7868    8.1714 H   0  0  0  0  0  0  0  0  0  0  0  0
    3.9571    2.7662    7.1041 H   0  0  0  0  0  0  0  0  0  0  0  0
    2.7943   -1.3779    0.5623 H   0  0  0  0  0  0  0  0  0  0  0  0
    3.0747   -0.6616   -1.6265 H   0  0  0  0  0  0  0  0  0  0  0  0
   -0.2838    3.1085    2.2030 H   0  0  0  0  0  0  0  0  0  0  0  0
  1  2  1  0
  1 35  1  0
  1 36  1  0
  1 37  1  0
  2  3  1  0
  3 34  2  0
  3  4  1  0
  4  5  2  0
  4 38  1  0
  5  6  1  0
  5 39  1  0
  6  7  1  0
  6 33  2  0
  7  8  2  3
  7 40  1  0
  8  9  1  0
  8 41  1  0
  9 10  2  0
  9 11  1  0
 12 11  1  6
 11 42  1  0
 12 16  1  0
 12 23  1  0
 12 13  1  0
 13 32  1  0
 13 14  1  0
 13 43  1  6
 14 15  2  0
 14 44  1  0
 15 16  1  0
 15 45  1  0
 16 22  1  0
 16 17  1  1
 17 18  1  0
 17 46  1  0
 17 47  1  0
 18 19  1  0
 18 48  1  0
 18 49  1  0
 19 20  1  0
 19 21  1  0
 19 65  1  6
 20 50  1  0
 20 51  1  0
 20 52  1  0
 21 22  1  0
 21 23  1  0
 21 53  1  6
 22 54  1  0
 22 55  1  0
 23 24  1  6
 23 25  1  0
 24 56  1  0
 25 26  1  0
 25 57  1  0
 25 58  1  0
 26 32  2  0
 26 27  1  0
 27 28  2  0
 27 59  1  0
 28 29  1  0
 28 60  1  0
 29 30  1  0
 29 31  2  0
 30 61  1  0
 31 32  1  0
 31 62  1  0
 33 34  1  0
 33 63  1  0
 34 64  1  0
M  CHG  1  19   1
M  END
>  <i_m_ct_stereo_status>  (238) 
1

>  <s_m_source_file>  (238) 
/var/tmp/pbs.5076255.sched01/tmph8v5ro6p/78zitxkb1g.sdf

>  <i_m_source_file_index>  (238) 
30

>  <i_lp_mmshare_version>  (238) 
48012

>  <i_f3d_flags>  (238) 
0

>  <s_epik_input>  (238) 
W0NIM11PYzFbY0hdW2NIXWMoW2NIXVtjSF0xKS9bQ0hdPVtDSF0vQyg9TylbTkhdW0NAQF0yKFtDQEBdMzQ1KVtDQEhdKFtDSF09W0NIXTMpYzZjKFtjSF1bY0hdYyhbT0hdKVtjSF02KVtDSDJdW0NAXTIoW09IXSlbQ0BASF0oW0NIMl01KU4oW0NIM10pW0NIMl1bQ0gyXTQ=

>  <s_epik_cmdline>  (238) 
J2VwaWtfcHl0aG9uJywgJy1waHQnLCAnMi4wJywgJy1waCcsICc3LjAnLCAnLXRuJywgJzgnLCAnLW1hJywgJzIwMCcsICctaW1hZScsICc8aW5maWxlLm1hZT4nLCAnLW9tYWUnLCAnPG91dGZpbGUubWFlPic=

>  <r_lp_tautomer_probability>  (238) 
1

>  <r_epik_Ionization_Penalty>  (238) 
0.0165881

>  <r_epik_Ionization_Penalty_Charging>  (238) 
0.0162032

>  <r_epik_Ionization_Penalty_Neutral>  (238) 
0.000384953

>  <r_epik_State_Penalty>  (238) 
0.0127764

>  <r_epik_Charging_Adjusted_Penalty>  (238) 
0.0289796

>  <i_epik_Tot_Q>  (238) 
1

>  <i_epik_Tot_abs_Q>  (238) 
1

>  <s_lp_Force_Field>  (238) 
OPLS3e

>  <r_lp_Energy>  (238) 
115.85

>  <b_lp_Chiralities_Consistent>  (238) 
1

>  <s_lp_Variant>  (238) 
83:0-1

>  <s_i_glide_gridfile>  (238) 
pfpi4k_grid

>  <i_i_glide_lignum>  (238) 
30

>  <i_i_glide_rotatable_bonds>  (238) 
7

>  <r_i_docking_score>  (238) 
-3.12438

>  <r_i_glide_ligand_efficiency>  (238) 
-0.0918934

>  <r_i_glide_ligand_efficiency_sa>  (238) 
-0.297699

>  <r_i_glide_ligand_efficiency_ln>  (238) 
-0.690262

>  <r_i_glide_gscore>  (238) 
-3.12438

>  <r_i_glide_lipo>  (238) 
-0.392426

>  <r_i_glide_hbond>  (238) 
-0.2

>  <r_i_glide_metal>  (238) 
-0

>  <r_i_glide_rewards>  (238) 
-0.279141

>  <r_i_glide_evdw>  (238) 
-27.7185

>  <r_i_glide_ecoul>  (238) 
-7.75529

>  <r_i_glide_erotb>  (238) 
0.381103

>  <r_i_glide_esite>  (238) 
-0.0846933

>  <r_i_glide_emodel>  (238) 
-39.6854

>  <r_i_glide_energy>  (238) 
-35.4738

>  <r_i_glide_einternal>  (238) 
9.17814

>  <r_i_glide_intrahb_reward>  (238) 
-0

>  <i_i_glide_confnum>  (238) 
4

>  <i_i_glide_posenum>  (238) 
3

>  <r_i_glide_eff_state_penalty>  (238) 
0

>  <ligand_id>  (238) 
83

>  <original_smiles>  (238) 
COc1ccc(C=CC(=O)NC23C4C=CC25CCN(C)C(C5)C3(O)Cc2ccc(O)cc24)cc1

>  <smiles>  (238) 
[H]Oc1c([H])c([H])c2c(c1[H])C1([H])C([H])=C([H])C34C([H])([H])C([H])([H])[N+]([H])(C([H])([H])[H])C([H])(C3([H])[H])C(O[H])(C2([H])[H])C14N([H])C(=O)C([H])=C([H])c1c([H])c([H])c(OC([H])([H])[H])c([H])c1[H]

$$$$
83:0:1
     RDKit          3D

 65 70  0  0  1  0  0  0  0  0999 V2000
   -0.0999    1.1634    2.2050 C   0  0  0  0  0  0  0  0  0  0  0  0
    0.2460   -0.0063    2.9274 O   0  0  0  0  0  0  0  0  0  0  0  0
    1.5055   -0.5384    2.7522 C   0  0  0  0  0  0  0  0  0  0  0  0
    2.5204    0.0354    1.9460 C   0  0  0  0  0  0  0  0  0  0  0  0
    3.7838   -0.5911    1.8359 C   0  0  0  0  0  0  0  0  0  0  0  0
    4.0563   -1.7956    2.5298 C   0  0  0  0  0  0  0  0  0  0  0  0
    5.3751   -2.4601    2.3995 C   0  0  0  0  0  0  0  0  0  0  0  0
    5.6782   -3.7842    2.3265 C   0  0  0  0  0  0  0  0  0  0  0  0
    4.7038   -4.8728    2.2373 C   0  0  0  0  0  0  0  0  0  0  0  0
    3.5971   -4.8095    1.7042 O   0  0  0  0  0  0  0  0  0  0  0  0
    5.1580   -6.0028    2.8184 N   0  0  0  0  0  0  0  0  0  0  0  0
    4.4468   -7.2965    3.0755 C   0  0  2  0  0  0  0  0  0  0  0  0
    3.2182   -6.9752    3.9572 C   0  0  2  0  0  0  0  0  0  0  0  0
    3.9412   -6.7899    5.2951 C   0  0  0  0  0  0  0  0  0  0  0  0
    5.1553   -7.3657    5.3050 C   0  0  0  0  0  0  0  0  0  0  0  0
    5.2686   -8.1950    4.0597 C   0  0  1  0  0  0  0  0  0  0  0  0
    4.7829   -9.6261    4.5179 C   0  0  0  0  0  0  0  0  0  0  0  0
    4.6571  -10.7472    3.4586 C   0  0  0  0  0  0  0  0  0  0  0  0
    5.4423  -10.5144    2.2251 N   0  0  2  0  0  0  0  0  0  0  0  0
    6.6444  -11.3799    2.1594 C   0  0  0  0  0  0  0  0  0  0  0  0
    5.7290   -9.0699    1.9884 C   0  0  2  0  0  0  0  0  0  0  0  0
    6.5005   -8.4677    3.2173 C   0  0  0  0  0  0  0  0  0  0  0  0
    4.4185   -8.1804    1.8099 C   0  0  2  0  0  0  0  0  0  0  0  0
    4.6891   -7.4835    0.6056 O   0  0  0  0  0  0  0  0  0  0  0  0
    3.0209   -8.8095    1.5464 C   0  0  0  0  0  0  0  0  0  0  0  0
    2.0807   -8.9144    2.7413 C   0  0  0  0  0  0  0  0  0  0  0  0
    1.1041   -9.9256    2.7075 C   0  0  0  0  0  0  0  0  0  0  0  0
    0.2336  -10.1020    3.7890 C   0  0  0  0  0  0  0  0  0  0  0  0
    0.3107   -9.2715    4.9227 C   0  0  0  0  0  0  0  0  0  0  0  0
   -0.5596   -9.4526    5.9556 O   0  0  0  0  0  0  0  0  0  0  0  0
    1.2567   -8.2326    4.9584 C   0  0  0  0  0  0  0  0  0  0  0  0
    2.1498   -8.0540    3.8732 C   0  0  0  0  0  0  0  0  0  0  0  0
    3.0411   -2.3475    3.3386 C   0  0  0  0  0  0  0  0  0  0  0  0
    1.7802   -1.7344    3.4431 C   0  0  0  0  0  0  0  0  0  0  0  0
   -1.1294    1.4372    2.4474 H   0  0  0  0  0  0  0  0  0  0  0  0
   -0.0431    0.9894    1.1325 H   0  0  0  0  0  0  0  0  0  0  0  0
    0.5433    2.0047    2.4686 H   0  0  0  0  0  0  0  0  0  0  0  0
    2.3539    0.9508    1.3984 H   0  0  0  0  0  0  0  0  0  0  0  0
    4.5445   -0.1397    1.2167 H   0  0  0  0  0  0  0  0  0  0  0  0
    6.2115   -1.7706    2.4073 H   0  0  0  0  0  0  0  0  0  0  0  0
    6.7265   -4.0489    2.3036 H   0  0  0  0  0  0  0  0  0  0  0  0
    6.0804   -5.9431    3.2151 H   0  0  0  0  0  0  0  0  0  0  0  0
    2.7320   -6.0395    3.6931 H   0  0  0  0  0  0  0  0  0  0  0  0
    3.5385   -6.1802    6.0881 H   0  0  0  0  0  0  0  0  0  0  0  0
    5.8732   -7.3462    6.1106 H   0  0  0  0  0  0  0  0  0  0  0  0
    5.5127   -9.9787    5.2469 H   0  0  0  0  0  0  0  0  0  0  0  0
    3.8587   -9.5968    5.0921 H   0  0  0  0  0  0  0  0  0  0  0  0
    4.9294  -11.7013    3.9128 H   0  0  0  0  0  0  0  0  0  0  0  0
    3.6205  -10.9041    3.1807 H   0  0  0  0  0  0  0  0  0  0  0  0
    7.2979  -11.2530    3.0284 H   0  0  0  0  0  0  0  0  0  0  0  0
    7.2323  -11.1796    1.2624 H   0  0  0  0  0  0  0  0  0  0  0  0
    6.3513  -12.4330    2.1315 H   0  0  0  0  0  0  0  0  0  0  0  0
    6.3624   -9.0052    1.0999 H   0  0  0  0  0  0  0  0  0  0  0  0
    7.0698   -7.5796    2.9503 H   0  0  0  0  0  0  0  0  0  0  0  0
    7.2007   -9.1538    3.7001 H   0  0  0  0  0  0  0  0  0  0  0  0
    3.8747   -7.3468    0.1471 H   0  0  0  0  0  0  0  0  0  0  0  0
    2.4541   -8.1192    0.9191 H   0  0  0  0  0  0  0  0  0  0  0  0
    3.0787   -9.7367    0.9692 H   0  0  0  0  0  0  0  0  0  0  0  0
    1.0366  -10.5885    1.8586 H   0  0  0  0  0  0  0  0  0  0  0  0
   -0.4802  -10.9030    3.7208 H   0  0  0  0  0  0  0  0  0  0  0  0
   -1.2286  -10.1138    5.6719 H   0  0  0  0  0  0  0  0  0  0  0  0
    1.3067   -7.5892    5.8262 H   0  0  0  0  0  0  0  0  0  0  0  0
    3.2192   -3.2506    3.9005 H   0  0  0  0  0  0  0  0  0  0  0  0
    1.0199   -2.1894    4.0583 H   0  0  0  0  0  0  0  0  0  0  0  0
    4.8583  -10.8678    1.4612 H   0  0  0  0  0  0  0  0  0  0  0  0
  1  2  1  0
  1 35  1  0
  1 36  1  0
  1 37  1  0
  2  3  1  0
  3 34  2  0
  3  4  1  0
  4  5  2  0
  4 38  1  0
  5  6  1  0
  5 39  1  0
  6  7  1  0
  6 33  2  0
  7  8  2  3
  7 40  1  0
  8  9  1  0
  8 41  1  0
  9 10  2  0
  9 11  1  0
 12 11  1  6
 11 42  1  0
 12 16  1  0
 12 23  1  0
 12 13  1  0
 13 32  1  0
 13 14  1  0
 13 43  1  6
 14 15  2  0
 14 44  1  0
 15 16  1  0
 15 45  1  0
 16 22  1  0
 16 17  1  1
 17 18  1  0
 17 46  1  0
 17 47  1  0
 18 19  1  0
 18 48  1  0
 18 49  1  0
 19 20  1  0
 19 21  1  0
 19 65  1  6
 20 50  1  0
 20 51  1  0
 20 52  1  0
 21 22  1  0
 21 23  1  0
 21 53  1  6
 22 54  1  0
 22 55  1  0
 23 24  1  6
 23 25  1  0
 24 56  1  0
 25 26  1  0
 25 57  1  0
 25 58  1  0
 26 32  2  0
 26 27  1  0
 27 28  2  0
 27 59  1  0
 28 29  1  0
 28 60  1  0
 29 30  1  0
 29 31  2  0
 30 61  1  0
 31 32  1  0
 31 62  1  0
 33 34  1  0
 33 63  1  0
 34 64  1  0
M  CHG  1  19   1
M  END
>  <i_m_ct_stereo_status>  (239) 
1

>  <s_m_source_file>  (239) 
/var/tmp/pbs.5076255.sched01/tmph8v5ro6p/78zitxkb1g.sdf

>  <i_m_source_file_index>  (239) 
30

>  <i_lp_mmshare_version>  (239) 
48012

>  <i_f3d_flags>  (239) 
0

>  <s_epik_input>  (239) 
W0NIM11PYzFbY0hdW2NIXWMoW2NIXVtjSF0xKS9bQ0hdPVtDSF0vQyg9TylbTkhdW0NAQF0yKFtDQEBdMzQ1KVtDQEhdKFtDSF09W0NIXTMpYzZjKFtjSF1bY0hdYyhbT0hdKVtjSF02KVtDSDJdW0NAXTIoW09IXSlbQ0BASF0oW0NIMl01KU4oW0NIM10pW0NIMl1bQ0gyXTQ=

>  <s_epik_cmdline>  (239) 
J2VwaWtfcHl0aG9uJywgJy1waHQnLCAnMi4wJywgJy1waCcsICc3LjAnLCAnLXRuJywgJzgnLCAnLW1hJywgJzIwMCcsICctaW1hZScsICc8aW5maWxlLm1hZT4nLCAnLW9tYWUnLCAnPG91dGZpbGUubWFlPic=

>  <r_lp_tautomer_probability>  (239) 
1

>  <r_epik_Ionization_Penalty>  (239) 
0.0165881

>  <r_epik_Ionization_Penalty_Charging>  (239) 
0.0162032

>  <r_epik_Ionization_Penalty_Neutral>  (239) 
0.000384953

>  <r_epik_State_Penalty>  (239) 
0.0127764

>  <r_epik_Charging_Adjusted_Penalty>  (239) 
0.0289796

>  <i_epik_Tot_Q>  (239) 
1

>  <i_epik_Tot_abs_Q>  (239) 
1

>  <s_lp_Force_Field>  (239) 
OPLS3e

>  <r_lp_Energy>  (239) 
115.85

>  <b_lp_Chiralities_Consistent>  (239) 
1

>  <s_lp_Variant>  (239) 
83:0-1

>  <s_i_glide_gridfile>  (239) 
pfpi4k_grid

>  <i_i_glide_lignum>  (239) 
30

>  <i_i_glide_rotatable_bonds>  (239) 
7

>  <r_i_docking_score>  (239) 
-3.01021

>  <r_i_glide_ligand_efficiency>  (239) 
-0.0885355

>  <r_i_glide_ligand_efficiency_sa>  (239) 
-0.286821

>  <r_i_glide_ligand_efficiency_ln>  (239) 
-0.665039

>  <r_i_glide_gscore>  (239) 
-3.01021

>  <r_i_glide_lipo>  (239) 
-0.236843

>  <r_i_glide_hbond>  (239) 
-0.323282

>  <r_i_glide_metal>  (239) 
-0

>  <r_i_glide_rewards>  (239) 
-0.291214

>  <r_i_glide_evdw>  (239) 
-20.9932

>  <r_i_glide_ecoul>  (239) 
-9.43603

>  <r_i_glide_erotb>  (239) 
0.381103

>  <r_i_glide_esite>  (239) 
-0.0749097

>  <r_i_glide_emodel>  (239) 
-37.1385

>  <r_i_glide_energy>  (239) 
-30.4292

>  <r_i_glide_einternal>  (239) 
3.80541

>  <r_i_glide_intrahb_reward>  (239) 
-0

>  <i_i_glide_confnum>  (239) 
2

>  <i_i_glide_posenum>  (239) 
21

>  <r_i_glide_eff_state_penalty>  (239) 
0

>  <ligand_id>  (239) 
83

>  <original_smiles>  (239) 
COc1ccc(C=CC(=O)NC23C4C=CC25CCN(C)C(C5)C3(O)Cc2ccc(O)cc24)cc1

>  <smiles>  (239) 
[H]Oc1c([H])c([H])c2c(c1[H])C1([H])C([H])=C([H])C34C([H])([H])C([H])([H])[N+]([H])(C([H])([H])[H])C([H])(C3([H])[H])C(O[H])(C2([H])[H])C14N([H])C(=O)C([H])=C([H])c1c([H])c([H])c(OC([H])([H])[H])c([H])c1[H]

$$$$
83:0:2
     RDKit          3D

 65 70  0  0  1  0  0  0  0  0999 V2000
    0.8595  -11.4431    4.2023 C   0  0  0  0  0  0  0  0  0  0  0  0
    1.6829  -10.3220    3.9535 O   0  0  0  0  0  0  0  0  0  0  0  0
    1.5644   -9.2278    4.7800 C   0  0  0  0  0  0  0  0  0  0  0  0
    0.6522   -9.1075    5.8593 C   0  0  0  0  0  0  0  0  0  0  0  0
    0.6239   -7.9224    6.6332 C   0  0  0  0  0  0  0  0  0  0  0  0
    1.5135   -6.8525    6.3567 C   0  0  0  0  0  0  0  0  0  0  0  0
    1.4487   -5.5939    7.1325 C   0  0  0  0  0  0  0  0  0  0  0  0
    1.7003   -4.3072    6.7794 C   0  0  0  0  0  0  0  0  0  0  0  0
    1.9939   -3.8175    5.4355 C   0  0  0  0  0  0  0  0  0  0  0  0
    1.8569   -4.4466    4.3906 O   0  0  0  0  0  0  0  0  0  0  0  0
    2.4163   -2.5337    5.4444 N   0  0  0  0  0  0  0  0  0  0  0  0
    2.8732   -1.6958    4.2811 C   0  0  2  0  0  0  0  0  0  0  0  0
    4.1831   -2.3289    3.7490 C   0  0  2  0  0  0  0  0  0  0  0  0
    5.1163   -1.8297    4.8580 C   0  0  0  0  0  0  0  0  0  0  0  0
    4.6179   -0.7734    5.5140 C   0  0  0  0  0  0  0  0  0  0  0  0
    3.3939   -0.3107    4.7737 C   0  0  1  0  0  0  0  0  0  0  0  0
    3.9359    0.7943    3.7867 C   0  0  0  0  0  0  0  0  0  0  0  0
    2.9666    1.4245    2.7567 C   0  0  0  0  0  0  0  0  0  0  0  0
    1.5313    1.2803    3.1060 N   0  0  2  0  0  0  0  0  0  0  0  0
    0.9330    2.5581    3.5814 C   0  0  0  0  0  0  0  0  0  0  0  0
    1.2675    0.1247    4.0112 C   0  0  2  0  0  0  0  0  0  0  0  0
    2.1045    0.2710    5.3286 C   0  0  0  0  0  0  0  0  0  0  0  0
    1.6786   -1.2750    3.3931 C   0  0  2  0  0  0  0  0  0  0  0  0
    0.4984   -2.0226    3.6326 O   0  0  0  0  0  0  0  0  0  0  0  0
    1.9789   -1.4736    1.8770 C   0  0  0  0  0  0  0  0  0  0  0  0
    3.4458   -1.4996    1.4417 C   0  0  0  0  0  0  0  0  0  0  0  0
    3.7650   -1.0805    0.1303 C   0  0  0  0  0  0  0  0  0  0  0  0
    5.0962   -1.0576   -0.3184 C   0  0  0  0  0  0  0  0  0  0  0  0
    6.1239   -1.4786    0.5397 C   0  0  0  0  0  0  0  0  0  0  0  0
    7.4160   -1.4658    0.1015 O   0  0  0  0  0  0  0  0  0  0  0  0
    5.8182   -1.9125    1.8434 C   0  0  0  0  0  0  0  0  0  0  0  0
    4.4825   -1.9137    2.3095 C   0  0  0  0  0  0  0  0  0  0  0  0
    2.4616   -7.0228    5.3273 C   0  0  0  0  0  0  0  0  0  0  0  0
    2.4494   -8.1656    4.5200 C   0  0  0  0  0  0  0  0  0  0  0  0
    1.0902  -12.2182    3.4714 H   0  0  0  0  0  0  0  0  0  0  0  0
   -0.1817  -11.1631    4.0793 H   0  0  0  0  0  0  0  0  0  0  0  0
    1.0237  -11.8484    5.2015 H   0  0  0  0  0  0  0  0  0  0  0  0
   -0.0259   -9.9150    6.1085 H   0  0  0  0  0  0  0  0  0  0  0  0
   -0.0876   -7.8493    7.4434 H   0  0  0  0  0  0  0  0  0  0  0  0
    1.1880   -5.7376    8.1696 H   0  0  0  0  0  0  0  0  0  0  0  0
    1.6600   -3.5884    7.5840 H   0  0  0  0  0  0  0  0  0  0  0  0
    2.4542   -2.0674    6.3416 H   0  0  0  0  0  0  0  0  0  0  0  0
    4.1646   -3.4174    3.7687 H   0  0  0  0  0  0  0  0  0  0  0  0
    6.0078   -2.3654    5.1384 H   0  0  0  0  0  0  0  0  0  0  0  0
    5.0447   -0.2644    6.3642 H   0  0  0  0  0  0  0  0  0  0  0  0
    4.2844    1.6113    4.4236 H   0  0  0  0  0  0  0  0  0  0  0  0
    4.8386    0.4742    3.2651 H   0  0  0  0  0  0  0  0  0  0  0  0
    3.2104    2.4783    2.6396 H   0  0  0  0  0  0  0  0  0  0  0  0
    3.1276    1.0077    1.7710 H   0  0  0  0  0  0  0  0  0  0  0  0
    1.4725    2.9549    4.4437 H   0  0  0  0  0  0  0  0  0  0  0  0
   -0.1131    2.4239    3.8560 H   0  0  0  0  0  0  0  0  0  0  0  0
    0.9820    3.3088    2.7926 H   0  0  0  0  0  0  0  0  0  0  0  0
    0.2040    0.1479    4.2485 H   0  0  0  0  0  0  0  0  0  0  0  0
    1.6669   -0.2969    6.1476 H   0  0  0  0  0  0  0  0  0  0  0  0
    2.2203    1.2963    5.6836 H   0  0  0  0  0  0  0  0  0  0  0  0
   -0.1084   -1.8700    2.9251 H   0  0  0  0  0  0  0  0  0  0  0  0
    1.6584   -2.4738    1.5865 H   0  0  0  0  0  0  0  0  0  0  0  0
    1.3891   -0.7811    1.2814 H   0  0  0  0  0  0  0  0  0  0  0  0
    2.9887   -0.7572   -0.5388 H   0  0  0  0  0  0  0  0  0  0  0  0
    5.3154   -0.7235   -1.3219 H   0  0  0  0  0  0  0  0  0  0  0  0
    8.0290   -1.7441    0.7658 H   0  0  0  0  0  0  0  0  0  0  0  0
    6.6067   -2.2354    2.4949 H   0  0  0  0  0  0  0  0  0  0  0  0
    3.2032   -6.2630    5.1257 H   0  0  0  0  0  0  0  0  0  0  0  0
    3.1417   -8.2351    3.6957 H   0  0  0  0  0  0  0  0  0  0  0  0
    1.0580    1.0852    2.2292 H   0  0  0  0  0  0  0  0  0  0  0  0
  1  2  1  0
  1 35  1  0
  1 36  1  0
  1 37  1  0
  2  3  1  0
  3 34  2  0
  3  4  1  0
  4  5  2  0
  4 38  1  0
  5  6  1  0
  5 39  1  0
  6  7  1  0
  6 33  2  0
  7  8  2  3
  7 40  1  0
  8  9  1  0
  8 41  1  0
  9 10  2  0
  9 11  1  0
 12 11  1  1
 11 42  1  0
 12 16  1  0
 12 23  1  0
 12 13  1  0
 13 32  1  0
 13 14  1  0
 13 43  1  6
 14 15  2  0
 14 44  1  0
 15 16  1  0
 15 45  1  0
 16 22  1  0
 16 17  1  6
 17 18  1  0
 17 46  1  0
 17 47  1  0
 18 19  1  0
 18 48  1  0
 18 49  1  0
 19 20  1  0
 19 21  1  0
 19 65  1  6
 20 50  1  0
 20 51  1  0
 20 52  1  0
 21 22  1  0
 21 23  1  0
 21 53  1  1
 22 54  1  0
 22 55  1  0
 23 24  1  1
 23 25  1  0
 24 56  1  0
 25 26  1  0
 25 57  1  0
 25 58  1  0
 26 32  2  0
 26 27  1  0
 27 28  2  0
 27 59  1  0
 28 29  1  0
 28 60  1  0
 29 30  1  0
 29 31  2  0
 30 61  1  0
 31 32  1  0
 31 62  1  0
 33 34  1  0
 33 63  1  0
 34 64  1  0
M  CHG  1  19   1
M  END
>  <i_m_ct_stereo_status>  (240) 
1

>  <s_m_source_file>  (240) 
/var/tmp/pbs.5076255.sched01/tmph8v5ro6p/78zitxkb1g.sdf

>  <i_m_source_file_index>  (240) 
30

>  <i_lp_mmshare_version>  (240) 
48012

>  <i_f3d_flags>  (240) 
0

>  <s_epik_input>  (240) 
W0NIM11PYzFbY0hdW2NIXWMoW2NIXVtjSF0xKS9bQ0hdPVtDSF0vQyg9TylbTkhdW0NAQF0yKFtDQEBdMzQ1KVtDQEhdKFtDSF09W0NIXTMpYzZjKFtjSF1bY0hdYyhbT0hdKVtjSF02KVtDSDJdW0NAXTIoW09IXSlbQ0BASF0oW0NIMl01KU4oW0NIM10pW0NIMl1bQ0gyXTQ=

>  <s_epik_cmdline>  (240) 
J2VwaWtfcHl0aG9uJywgJy1waHQnLCAnMi4wJywgJy1waCcsICc3LjAnLCAnLXRuJywgJzgnLCAnLW1hJywgJzIwMCcsICctaW1hZScsICc8aW5maWxlLm1hZT4nLCAnLW9tYWUnLCAnPG91dGZpbGUubWFlPic=

>  <r_lp_tautomer_probability>  (240) 
1

>  <r_epik_Ionization_Penalty>  (240) 
0.0165881

>  <r_epik_Ionization_Penalty_Charging>  (240) 
0.0162032

>  <r_epik_Ionization_Penalty_Neutral>  (240) 
0.000384953

>  <r_epik_State_Penalty>  (240) 
0.0127764

>  <r_epik_Charging_Adjusted_Penalty>  (240) 
0.0289796

>  <i_epik_Tot_Q>  (240) 
1

>  <i_epik_Tot_abs_Q>  (240) 
1

>  <s_lp_Force_Field>  (240) 
OPLS3e

>  <r_lp_Energy>  (240) 
115.85

>  <b_lp_Chiralities_Consistent>  (240) 
1

>  <s_lp_Variant>  (240) 
83:0-1

>  <s_i_glide_gridfile>  (240) 
pfpi4k_grid

>  <i_i_glide_lignum>  (240) 
30

>  <i_i_glide_rotatable_bonds>  (240) 
7

>  <r_i_docking_score>  (240) 
-2.62224

>  <r_i_glide_ligand_efficiency>  (240) 
-0.0771248

>  <r_i_glide_ligand_efficiency_sa>  (240) 
-0.249854

>  <r_i_glide_ligand_efficiency_ln>  (240) 
-0.579327

>  <r_i_glide_gscore>  (240) 
-2.62224

>  <r_i_glide_lipo>  (240) 
-0.368148

>  <r_i_glide_hbond>  (240) 
-0.0979789

>  <r_i_glide_metal>  (240) 
-0

>  <r_i_glide_rewards>  (240) 
-0.275749

>  <r_i_glide_evdw>  (240) 
-22.3828

>  <r_i_glide_ecoul>  (240) 
-7.50806

>  <r_i_glide_erotb>  (240) 
0.381103

>  <r_i_glide_esite>  (240) 
-0.0161229

>  <r_i_glide_emodel>  (240) 
-36.8092

>  <r_i_glide_energy>  (240) 
-29.8908

>  <r_i_glide_einternal>  (240) 
0.842658

>  <r_i_glide_intrahb_reward>  (240) 
-0

>  <i_i_glide_confnum>  (240) 
3

>  <i_i_glide_posenum>  (240) 
5

>  <r_i_glide_eff_state_penalty>  (240) 
0

>  <ligand_id>  (240) 
83

>  <original_smiles>  (240) 
COc1ccc(C=CC(=O)NC23C4C=CC25CCN(C)C(C5)C3(O)Cc2ccc(O)cc24)cc1

>  <smiles>  (240) 
[H]Oc1c([H])c([H])c2c(c1[H])C1([H])C([H])=C([H])C34C([H])([H])C([H])([H])[N+]([H])(C([H])([H])[H])C([H])(C3([H])[H])C(O[H])(C2([H])[H])C14N([H])C(=O)C([H])=C([H])c1c([H])c([H])c(OC([H])([H])[H])c([H])c1[H]

$$$$
83:1:0
     RDKit          3D

 64 69  0  0  1  0  0  0  0  0999 V2000
    3.4490   -0.6106   -4.6036 C   0  0  0  0  0  0  0  0  0  0  0  0
    4.0174   -1.8619   -4.2255 O   0  0  0  0  0  0  0  0  0  0  0  0
    4.5065   -1.9739   -2.9341 C   0  0  0  0  0  0  0  0  0  0  0  0
    5.1254   -3.1688   -2.5303 C   0  0  0  0  0  0  0  0  0  0  0  0
    5.6409   -3.3043   -1.2218 C   0  0  0  0  0  0  0  0  0  0  0  0
    5.5298   -2.2433   -0.2915 C   0  0  0  0  0  0  0  0  0  0  0  0
    6.0301   -2.3661    1.0876 C   0  0  0  0  0  0  0  0  0  0  0  0
    5.4810   -1.9398    2.2505 C   0  0  0  0  0  0  0  0  0  0  0  0
    4.1510   -1.3674    2.4248 C   0  0  0  0  0  0  0  0  0  0  0  0
    3.2313   -1.4497    1.6203 O   0  0  0  0  0  0  0  0  0  0  0  0
    3.9963   -0.8051    3.6433 N   0  0  0  0  0  0  0  0  0  0  0  0
    2.7502   -0.2169    4.2492 C   0  0  2  0  0  0  0  0  0  0  0  0
    2.3452    1.0029    3.3878 C   0  0  2  0  0  0  0  0  0  0  0  0
    3.3966    1.9878    3.9076 C   0  0  0  0  0  0  0  0  0  0  0  0
    3.9061    1.6251    5.0879 C   0  0  0  0  0  0  0  0  0  0  0  0
    3.0742    0.4840    5.6066 C   0  0  1  0  0  0  0  0  0  0  0  0
    1.9738    1.1780    6.4957 C   0  0  0  0  0  0  0  0  0  0  0  0
    0.8550    0.2928    7.0972 C   0  0  0  0  0  0  0  0  0  0  0  0
    1.1515   -1.1438    7.1778 N   0  0  0  0  0  0  0  0  0  0  0  0
    1.3795   -1.5984    8.5455 C   0  0  0  0  0  0  0  0  0  0  0  0
    2.1886   -1.5502    6.2251 C   0  0  2  0  0  0  0  0  0  0  0  0
    3.5043   -0.7165    6.4362 C   0  0  0  0  0  0  0  0  0  0  0  0
    1.7775   -1.3346    4.7042 C   0  0  2  0  0  0  0  0  0  0  0  0
    2.0450   -2.5971    4.1136 O   0  0  0  0  0  0  0  0  0  0  0  0
    0.3030   -1.0373    4.2939 C   0  0  0  0  0  0  0  0  0  0  0  0
   -0.0627    0.4220    4.0130 C   0  0  0  0  0  0  0  0  0  0  0  0
   -1.3890    0.8225    4.2309 C   0  0  0  0  0  0  0  0  0  0  0  0
   -1.7952    2.1524    4.0080 C   0  0  0  0  0  0  0  0  0  0  0  0
   -0.8590    3.0998    3.5358 C   0  0  0  0  0  0  0  0  0  0  0  0
   -1.2393    4.3782    3.2781 O   0  0  0  0  0  0  0  0  0  0  0  0
    0.4681    2.7026    3.3102 C   0  0  0  0  0  0  0  0  0  0  0  0
    0.8843    1.3755    3.5640 C   0  0  0  0  0  0  0  0  0  0  0  0
    4.9368   -1.0510   -0.7070 C   0  0  0  0  0  0  0  0  0  0  0  0
    4.4115   -0.9181   -2.0005 C   0  0  0  0  0  0  0  0  0  0  0  0
    3.0850   -0.6023   -5.6347 H   0  0  0  0  0  0  0  0  0  0  0  0
    4.2014    0.1775   -4.5233 H   0  0  0  0  0  0  0  0  0  0  0  0
    2.6030   -0.3678   -3.9577 H   0  0  0  0  0  0  0  0  0  0  0  0
    5.2071   -3.9917   -3.2301 H   0  0  0  0  0  0  0  0  0  0  0  0
    6.1084   -4.2355   -0.9236 H   0  0  0  0  0  0  0  0  0  0  0  0
    6.9970   -2.8388    1.1769 H   0  0  0  0  0  0  0  0  0  0  0  0
    6.0851   -2.0644    3.1349 H   0  0  0  0  0  0  0  0  0  0  0  0
    4.7772   -0.8570    4.2751 H   0  0  0  0  0  0  0  0  0  0  0  0
    2.5038    0.8639    2.3190 H   0  0  0  0  0  0  0  0  0  0  0  0
    3.7290    2.8246    3.3077 H   0  0  0  0  0  0  0  0  0  0  0  0
    4.6826    2.1224    5.6513 H   0  0  0  0  0  0  0  0  0  0  0  0
    2.4949    1.6345    7.3394 H   0  0  0  0  0  0  0  0  0  0  0  0
    1.5117    2.0185    5.9873 H   0  0  0  0  0  0  0  0  0  0  0  0
    0.5987    0.6845    8.0857 H   0  0  0  0  0  0  0  0  0  0  0  0
   -0.0593    0.4274    6.5226 H   0  0  0  0  0  0  0  0  0  0  0  0
    1.5614   -2.6727    8.5731 H   0  0  0  0  0  0  0  0  0  0  0  0
    0.5070   -1.4003    9.1706 H   0  0  0  0  0  0  0  0  0  0  0  0
    2.2313   -1.0925    8.9982 H   0  0  0  0  0  0  0  0  0  0  0  0
    2.4067   -2.6068    6.4030 H   0  0  0  0  0  0  0  0  0  0  0  0
    4.3874   -1.2348    6.0608 H   0  0  0  0  0  0  0  0  0  0  0  0
    3.7106   -0.4600    7.4816 H   0  0  0  0  0  0  0  0  0  0  0  0
    1.9560   -2.4939    3.1706 H   0  0  0  0  0  0  0  0  0  0  0  0
    0.1228   -1.5161    3.3320 H   0  0  0  0  0  0  0  0  0  0  0  0
   -0.4014   -1.5061    4.9800 H   0  0  0  0  0  0  0  0  0  0  0  0
   -2.1228    0.1080    4.5685 H   0  0  0  0  0  0  0  0  0  0  0  0
   -2.8215    2.4404    4.1640 H   0  0  0  0  0  0  0  0  0  0  0  0
   -0.7061    4.7071    2.5695 H   0  0  0  0  0  0  0  0  0  0  0  0
    1.1805    3.4316    2.9436 H   0  0  0  0  0  0  0  0  0  0  0  0
    4.8620   -0.2044   -0.0477 H   0  0  0  0  0  0  0  0  0  0  0  0
    3.9449    0.0172   -2.2498 H   0  0  0  0  0  0  0  0  0  0  0  0
  1  2  1  0
  1 35  1  0
  1 36  1  0
  1 37  1  0
  2  3  1  0
  3 34  2  0
  3  4  1  0
  4  5  2  0
  4 38  1  0
  5  6  1  0
  5 39  1  0
  6  7  1  0
  6 33  2  0
  7  8  2  3
  7 40  1  0
  8  9  1  0
  8 41  1  0
  9 10  2  0
  9 11  1  0
 12 11  1  6
 11 42  1  0
 12 16  1  0
 12 23  1  0
 12 13  1  0
 13 32  1  0
 13 14  1  0
 13 43  1  6
 14 15  2  0
 14 44  1  0
 15 16  1  0
 15 45  1  0
 16 22  1  0
 16 17  1  1
 17 18  1  0
 17 46  1  0
 17 47  1  0
 18 19  1  0
 18 48  1  0
 18 49  1  0
 19 20  1  0
 19 21  1  0
 20 50  1  0
 20 51  1  0
 20 52  1  0
 21 22  1  0
 21 23  1  0
 21 53  1  6
 22 54  1  0
 22 55  1  0
 23 24  1  6
 23 25  1  0
 24 56  1  0
 25 26  1  0
 25 57  1  0
 25 58  1  0
 26 32  2  0
 26 27  1  0
 27 28  2  0
 27 59  1  0
 28 29  1  0
 28 60  1  0
 29 30  1  0
 29 31  2  0
 30 61  1  0
 31 32  1  0
 31 62  1  0
 33 34  1  0
 33 63  1  0
 34 64  1  0
M  END
>  <i_m_ct_stereo_status>  (241) 
1

>  <s_m_source_file>  (241) 
/var/tmp/pbs.5076255.sched01/tmph8v5ro6p/78zitxkb1g.sdf

>  <i_m_source_file_index>  (241) 
31

>  <i_lp_mmshare_version>  (241) 
48012

>  <i_f3d_flags>  (241) 
0

>  <s_epik_input>  (241) 
W0NIM11PYzFbY0hdW2NIXWMoW2NIXVtjSF0xKS9bQ0hdPVtDSF0vQyg9TylbTkhdW0NAQF0yKFtDQEBdMzQ1KVtDQEhdKFtDSF09W0NIXTMpYzZjKFtjSF1bY0hdYyhbT0hdKVtjSF02KVtDSDJdW0NAXTIoW09IXSlbQ0BASF0oW0NIMl01KU4oW0NIM10pW0NIMl1bQ0gyXTQ=

>  <s_epik_cmdline>  (241) 
J2VwaWtfcHl0aG9uJywgJy1waHQnLCAnMi4wJywgJy1waCcsICc3LjAnLCAnLXRuJywgJzgnLCAnLW1hJywgJzIwMCcsICctaW1hZScsICc8aW5maWxlLm1hZT4nLCAnLW9tYWUnLCAnPG91dGZpbGUubWFlPic=

>  <r_lp_tautomer_probability>  (241) 
1

>  <r_epik_Ionization_Penalty>  (241) 
2.14068

>  <r_epik_Ionization_Penalty_Charging>  (241) 
0

>  <r_epik_Ionization_Penalty_Neutral>  (241) 
2.14068

>  <r_epik_State_Penalty>  (241) 
2.27958

>  <r_epik_Charging_Adjusted_Penalty>  (241) 
2.27958

>  <i_epik_Tot_Q>  (241) 
0

>  <i_epik_Tot_abs_Q>  (241) 
0

>  <s_lp_Force_Field>  (241) 
OPLS3e

>  <r_lp_Energy>  (241) 
107.107

>  <b_lp_Chiralities_Consistent>  (241) 
1

>  <s_lp_Variant>  (241) 
83:0-2

>  <s_i_glide_gridfile>  (241) 
pfpi4k_grid

>  <i_i_glide_lignum>  (241) 
31

>  <i_i_glide_rotatable_bonds>  (241) 
7

>  <r_i_docking_score>  (241) 
-4.05752

>  <r_i_glide_ligand_efficiency>  (241) 
-0.119339

>  <r_i_glide_ligand_efficiency_sa>  (241) 
-0.386612

>  <r_i_glide_ligand_efficiency_ln>  (241) 
-0.896421

>  <r_i_glide_gscore>  (241) 
-4.05752

>  <r_i_glide_lipo>  (241) 
-0.747814

>  <r_i_glide_hbond>  (241) 
-0.470822

>  <r_i_glide_metal>  (241) 
-0

>  <r_i_glide_rewards>  (241) 
-0.790931

>  <r_i_glide_evdw>  (241) 
-31.0395

>  <r_i_glide_ecoul>  (241) 
-5.85741

>  <r_i_glide_erotb>  (241) 
0.38263

>  <r_i_glide_esite>  (241) 
0

>  <r_i_glide_emodel>  (241) 
-48.0202

>  <r_i_glide_energy>  (241) 
-36.8969

>  <r_i_glide_einternal>  (241) 
5.49278

>  <r_i_glide_intrahb_reward>  (241) 
-0.5

>  <i_i_glide_confnum>  (241) 
3

>  <i_i_glide_posenum>  (241) 
13

>  <r_i_glide_eff_state_penalty>  (241) 
0

>  <ligand_id>  (241) 
83

>  <original_smiles>  (241) 
COc1ccc(C=CC(=O)NC23C4C=CC25CCN(C)C(C5)C3(O)Cc2ccc(O)cc24)cc1

>  <smiles>  (241) 
[H]Oc1c([H])c([H])c2c(c1[H])C1([H])C([H])=C([H])C34C([H])([H])C([H])([H])N(C([H])([H])[H])C([H])(C3([H])[H])C(O[H])(C2([H])[H])C14N([H])C(=O)C([H])=C([H])c1c([H])c([H])c(OC([H])([H])[H])c([H])c1[H]

$$$$
83:1:1
     RDKit          3D

 64 69  0  0  1  0  0  0  0  0999 V2000
    8.1111   -3.1807   -1.5446 C   0  0  0  0  0  0  0  0  0  0  0  0
    7.6075   -2.2105   -0.6487 O   0  0  0  0  0  0  0  0  0  0  0  0
    6.4688   -2.5189    0.0618 C   0  0  0  0  0  0  0  0  0  0  0  0
    5.5803   -3.5768   -0.2454 C   0  0  0  0  0  0  0  0  0  0  0  0
    4.4310   -3.7806    0.5553 C   0  0  0  0  0  0  0  0  0  0  0  0
    4.1643   -2.9474    1.6719 C   0  0  0  0  0  0  0  0  0  0  0  0
    2.9387   -3.1433    2.4755 C   0  0  0  0  0  0  0  0  0  0  0  0
    2.1809   -2.2686    3.1777 C   0  0  0  0  0  0  0  0  0  0  0  0
    2.3397   -0.8214    3.1998 C   0  0  0  0  0  0  0  0  0  0  0  0
    2.9640   -0.1623    2.3756 O   0  0  0  0  0  0  0  0  0  0  0  0
    1.6885   -0.2512    4.2395 N   0  0  0  0  0  0  0  0  0  0  0  0
    1.5956    1.2038    4.6064 C   0  0  2  0  0  0  0  0  0  0  0  0
    3.0266    1.6948    4.9546 C   0  0  2  0  0  0  0  0  0  0  0  0
    3.1420    1.0676    6.3482 C   0  0  0  0  0  0  0  0  0  0  0  0
    1.9400    0.7774    6.8806 C   0  0  0  0  0  0  0  0  0  0  0  0
    0.8903    1.3836    5.9918 C   0  0  1  0  0  0  0  0  0  0  0  0
    0.6110    2.8037    6.6239 C   0  0  0  0  0  0  0  0  0  0  0  0
   -0.3485    3.7596    5.8719 C   0  0  0  0  0  0  0  0  0  0  0  0
   -1.2554    3.1297    4.9125 N   0  0  0  0  0  0  0  0  0  0  0  0
   -2.6409    3.1076    5.3566 C   0  0  0  0  0  0  0  0  0  0  0  0
   -0.7500    1.8370    4.4459 C   0  0  2  0  0  0  0  0  0  0  0  0
   -0.4931    0.8593    5.6519 C   0  0  0  0  0  0  0  0  0  0  0  0
    0.6252    1.9430    3.6553 C   0  0  2  0  0  0  0  0  0  0  0  0
    0.3240    1.2486    2.4542 O   0  0  0  0  0  0  0  0  0  0  0  0
    1.2062    3.3045    3.1631 C   0  0  0  0  0  0  0  0  0  0  0  0
    2.2906    3.9556    4.0167 C   0  0  0  0  0  0  0  0  0  0  0  0
    2.4011    5.3592    3.9735 C   0  0  0  0  0  0  0  0  0  0  0  0
    3.3728    6.0242    4.7432 C   0  0  0  0  0  0  0  0  0  0  0  0
    4.2563    5.2818    5.5538 C   0  0  0  0  0  0  0  0  0  0  0  0
    5.2096    5.9232    6.2879 O   0  0  0  0  0  0  0  0  0  0  0  0
    4.1542    3.8787    5.6059 C   0  0  0  0  0  0  0  0  0  0  0  0
    3.1686    3.2071    4.8489 C   0  0  0  0  0  0  0  0  0  0  0  0
    5.0994   -1.9453    1.9992 C   0  0  0  0  0  0  0  0  0  0  0  0
    6.2015   -1.6968    1.1687 C   0  0  0  0  0  0  0  0  0  0  0  0
    9.0049   -2.7818   -2.0092 H   0  0  0  0  0  0  0  0  0  0  0  0
    7.3942   -3.3897   -2.3410 H   0  0  0  0  0  0  0  0  0  0  0  0
    8.3772   -4.1003   -1.0175 H   0  0  0  0  0  0  0  0  0  0  0  0
    5.7564   -4.2450   -1.0792 H   0  0  0  0  0  0  0  0  0  0  0  0
    3.7546   -4.5813    0.2897 H   0  0  0  0  0  0  0  0  0  0  0  0
    2.6128   -4.1639    2.5374 H   0  0  0  0  0  0  0  0  0  0  0  0
    1.3750   -2.6897    3.7553 H   0  0  0  0  0  0  0  0  0  0  0  0
    1.1739   -0.8679    4.8597 H   0  0  0  0  0  0  0  0  0  0  0  0
    3.7946    1.2654    4.3150 H   0  0  0  0  0  0  0  0  0  0  0  0
    4.0964    0.8154    6.7868 H   0  0  0  0  0  0  0  0  0  0  0  0
    1.7466    0.2944    7.8261 H   0  0  0  0  0  0  0  0  0  0  0  0
    0.1750    2.6252    7.6088 H   0  0  0  0  0  0  0  0  0  0  0  0
    1.5331    3.3385    6.8462 H   0  0  0  0  0  0  0  0  0  0  0  0
   -0.9137    4.3296    6.6074 H   0  0  0  0  0  0  0  0  0  0  0  0
    0.2323    4.5163    5.3521 H   0  0  0  0  0  0  0  0  0  0  0  0
   -3.2808    2.6776    4.5876 H   0  0  0  0  0  0  0  0  0  0  0  0
   -2.9840    4.1248    5.5458 H   0  0  0  0  0  0  0  0  0  0  0  0
   -2.7614    2.5352    6.2735 H   0  0  0  0  0  0  0  0  0  0  0  0
   -1.5114    1.3943    3.7980 H   0  0  0  0  0  0  0  0  0  0  0  0
   -0.5225   -0.1860    5.3526 H   0  0  0  0  0  0  0  0  0  0  0  0
   -1.2010    0.9738    6.4698 H   0  0  0  0  0  0  0  0  0  0  0  0
    0.0213    1.8768    1.8130 H   0  0  0  0  0  0  0  0  0  0  0  0
    1.7347    3.1300    2.2269 H   0  0  0  0  0  0  0  0  0  0  0  0
    0.4099    4.0034    2.9140 H   0  0  0  0  0  0  0  0  0  0  0  0
    1.7236    5.9331    3.3554 H   0  0  0  0  0  0  0  0  0  0  0  0
    3.4304    7.1007    4.7057 H   0  0  0  0  0  0  0  0  0  0  0  0
    5.1860    6.8581    6.1678 H   0  0  0  0  0  0  0  0  0  0  0  0
    4.8290    3.3198    6.2336 H   0  0  0  0  0  0  0  0  0  0  0  0
    4.9559   -1.3289    2.8755 H   0  0  0  0  0  0  0  0  0  0  0  0
    6.8620   -0.8795    1.4021 H   0  0  0  0  0  0  0  0  0  0  0  0
  1  2  1  0
  1 35  1  0
  1 36  1  0
  1 37  1  0
  2  3  1  0
  3 34  2  0
  3  4  1  0
  4  5  2  0
  4 38  1  0
  5  6  1  0
  5 39  1  0
  6  7  1  0
  6 33  2  0
  7  8  2  3
  7 40  1  0
  8  9  1  0
  8 41  1  0
  9 10  2  0
  9 11  1  0
 12 11  1  6
 11 42  1  0
 12 16  1  0
 12 23  1  0
 12 13  1  0
 13 32  1  0
 13 14  1  0
 13 43  1  6
 14 15  2  0
 14 44  1  0
 15 16  1  0
 15 45  1  0
 16 22  1  0
 16 17  1  1
 17 18  1  0
 17 46  1  0
 17 47  1  0
 18 19  1  0
 18 48  1  0
 18 49  1  0
 19 20  1  0
 19 21  1  0
 20 50  1  0
 20 51  1  0
 20 52  1  0
 21 22  1  0
 21 23  1  0
 21 53  1  6
 22 54  1  0
 22 55  1  0
 23 24  1  6
 23 25  1  0
 24 56  1  0
 25 26  1  0
 25 57  1  0
 25 58  1  0
 26 32  2  0
 26 27  1  0
 27 28  2  0
 27 59  1  0
 28 29  1  0
 28 60  1  0
 29 30  1  0
 29 31  2  0
 30 61  1  0
 31 32  1  0
 31 62  1  0
 33 34  1  0
 33 63  1  0
 34 64  1  0
M  END
>  <i_m_ct_stereo_status>  (242) 
1

>  <s_m_source_file>  (242) 
/var/tmp/pbs.5076255.sched01/tmph8v5ro6p/78zitxkb1g.sdf

>  <i_m_source_file_index>  (242) 
31

>  <i_lp_mmshare_version>  (242) 
48012

>  <i_f3d_flags>  (242) 
0

>  <s_epik_input>  (242) 
W0NIM11PYzFbY0hdW2NIXWMoW2NIXVtjSF0xKS9bQ0hdPVtDSF0vQyg9TylbTkhdW0NAQF0yKFtDQEBdMzQ1KVtDQEhdKFtDSF09W0NIXTMpYzZjKFtjSF1bY0hdYyhbT0hdKVtjSF02KVtDSDJdW0NAXTIoW09IXSlbQ0BASF0oW0NIMl01KU4oW0NIM10pW0NIMl1bQ0gyXTQ=

>  <s_epik_cmdline>  (242) 
J2VwaWtfcHl0aG9uJywgJy1waHQnLCAnMi4wJywgJy1waCcsICc3LjAnLCAnLXRuJywgJzgnLCAnLW1hJywgJzIwMCcsICctaW1hZScsICc8aW5maWxlLm1hZT4nLCAnLW9tYWUnLCAnPG91dGZpbGUubWFlPic=

>  <r_lp_tautomer_probability>  (242) 
1

>  <r_epik_Ionization_Penalty>  (242) 
2.14068

>  <r_epik_Ionization_Penalty_Charging>  (242) 
0

>  <r_epik_Ionization_Penalty_Neutral>  (242) 
2.14068

>  <r_epik_State_Penalty>  (242) 
2.27958

>  <r_epik_Charging_Adjusted_Penalty>  (242) 
2.27958

>  <i_epik_Tot_Q>  (242) 
0

>  <i_epik_Tot_abs_Q>  (242) 
0

>  <s_lp_Force_Field>  (242) 
OPLS3e

>  <r_lp_Energy>  (242) 
107.107

>  <b_lp_Chiralities_Consistent>  (242) 
1

>  <s_lp_Variant>  (242) 
83:0-2

>  <s_i_glide_gridfile>  (242) 
pfpi4k_grid

>  <i_i_glide_lignum>  (242) 
31

>  <i_i_glide_rotatable_bonds>  (242) 
7

>  <r_i_docking_score>  (242) 
-2.09498

>  <r_i_glide_ligand_efficiency>  (242) 
-0.061617

>  <r_i_glide_ligand_efficiency_sa>  (242) 
-0.199615

>  <r_i_glide_ligand_efficiency_ln>  (242) 
-0.462839

>  <r_i_glide_gscore>  (242) 
-2.09498

>  <r_i_glide_lipo>  (242) 
-0.352919

>  <r_i_glide_hbond>  (242) 
-0.16

>  <r_i_glide_metal>  (242) 
-0

>  <r_i_glide_rewards>  (242) 
-0.282622

>  <r_i_glide_evdw>  (242) 
-26.7417

>  <r_i_glide_ecoul>  (242) 
-2.26417

>  <r_i_glide_erotb>  (242) 
0.38263

>  <r_i_glide_esite>  (242) 
-0.005356

>  <r_i_glide_emodel>  (242) 
-32.6791

>  <r_i_glide_energy>  (242) 
-29.0059

>  <r_i_glide_einternal>  (242) 
1.65127

>  <r_i_glide_intrahb_reward>  (242) 
-0

>  <i_i_glide_confnum>  (242) 
5

>  <i_i_glide_posenum>  (242) 
5

>  <r_i_glide_eff_state_penalty>  (242) 
0

>  <ligand_id>  (242) 
83

>  <original_smiles>  (242) 
COc1ccc(C=CC(=O)NC23C4C=CC25CCN(C)C(C5)C3(O)Cc2ccc(O)cc24)cc1

>  <smiles>  (242) 
[H]Oc1c([H])c([H])c2c(c1[H])C1([H])C([H])=C([H])C34C([H])([H])C([H])([H])N(C([H])([H])[H])C([H])(C3([H])[H])C(O[H])(C2([H])[H])C14N([H])C(=O)C([H])=C([H])c1c([H])c([H])c(OC([H])([H])[H])c([H])c1[H]

$$$$
83:1:2
     RDKit          3D

 64 69  0  0  1  0  0  0  0  0999 V2000
    2.4348    2.4342    3.1750 C   0  0  0  0  0  0  0  0  0  0  0  0
    3.0980    1.3299    3.7658 O   0  0  0  0  0  0  0  0  0  0  0  0
    3.3857    0.2398    2.9746 C   0  0  0  0  0  0  0  0  0  0  0  0
    3.0910    0.1259    1.5909 C   0  0  0  0  0  0  0  0  0  0  0  0
    3.4238   -1.0547    0.8908 C   0  0  0  0  0  0  0  0  0  0  0  0
    4.0802   -2.1282    1.5456 C   0  0  0  0  0  0  0  0  0  0  0  0
    4.3761   -3.3787    0.8266 C   0  0  0  0  0  0  0  0  0  0  0  0
    4.2784   -4.6809    1.2022 C   0  0  0  0  0  0  0  0  0  0  0  0
    3.7272   -5.1697    2.4560 C   0  0  0  0  0  0  0  0  0  0  0  0
    3.4814   -4.5230    3.4611 O   0  0  0  0  0  0  0  0  0  0  0  0
    3.3943   -6.4790    2.3868 N   0  0  0  0  0  0  0  0  0  0  0  0
    2.6916   -7.2870    3.4394 C   0  0  2  0  0  0  0  0  0  0  0  0
    3.6460   -7.3945    4.6522 C   0  0  2  0  0  0  0  0  0  0  0  0
    4.6116   -8.4355    4.0762 C   0  0  0  0  0  0  0  0  0  0  0  0
    4.0693   -9.1295    3.0671 C   0  0  0  0  0  0  0  0  0  0  0  0
    2.6059   -8.7818    3.0045 C   0  0  1  0  0  0  0  0  0  0  0  0
    1.9049   -9.8829    3.8821 C   0  0  0  0  0  0  0  0  0  0  0  0
    0.3831   -9.7434    4.1388 C   0  0  0  0  0  0  0  0  0  0  0  0
   -0.3494   -8.8832    3.2031 N   0  0  0  0  0  0  0  0  0  0  0  0
   -1.2032   -9.6390    2.2977 C   0  0  0  0  0  0  0  0  0  0  0  0
    0.5242   -7.9228    2.5367 C   0  0  2  0  0  0  0  0  0  0  0  0
    1.7032   -8.6458    1.7920 C   0  0  0  0  0  0  0  0  0  0  0  0
    1.1955   -6.8961    3.5369 C   0  0  2  0  0  0  0  0  0  0  0  0
    0.8816   -5.6389    2.9532 O   0  0  0  0  0  0  0  0  0  0  0  0
    0.7125   -6.7453    5.0163 C   0  0  0  0  0  0  0  0  0  0  0  0
    1.5347   -7.4494    6.0994 C   0  0  0  0  0  0  0  0  0  0  0  0
    0.8718   -7.8406    7.2793 C   0  0  0  0  0  0  0  0  0  0  0  0
    1.5652   -8.5128    8.2996 C   0  0  0  0  0  0  0  0  0  0  0  0
    2.9401   -8.7843    8.1574 C   0  0  0  0  0  0  0  0  0  0  0  0
    3.6066   -9.4250    9.1601 O   0  0  0  0  0  0  0  0  0  0  0  0
    3.6167   -8.3944    6.9832 C   0  0  0  0  0  0  0  0  0  0  0  0
    2.9174   -7.7398    5.9438 C   0  0  0  0  0  0  0  0  0  0  0  0
    4.4520   -1.9576    2.8923 C   0  0  0  0  0  0  0  0  0  0  0  0
    4.0538   -0.8250    3.6113 C   0  0  0  0  0  0  0  0  0  0  0  0
    2.3137    3.2111    3.9312 H   0  0  0  0  0  0  0  0  0  0  0  0
    1.4472    2.1358    2.8208 H   0  0  0  0  0  0  0  0  0  0  0  0
    3.0131    2.8569    2.3514 H   0  0  0  0  0  0  0  0  0  0  0  0
    2.6109    0.9359    1.0566 H   0  0  0  0  0  0  0  0  0  0  0  0
    3.1627   -1.1218   -0.1570 H   0  0  0  0  0  0  0  0  0  0  0  0
    4.7625   -3.2328   -0.1691 H   0  0  0  0  0  0  0  0  0  0  0  0
    4.6271   -5.4044    0.4814 H   0  0  0  0  0  0  0  0  0  0  0  0
    3.5608   -6.9649    1.5231 H   0  0  0  0  0  0  0  0  0  0  0  0
    4.2073   -6.4831    4.8551 H   0  0  0  0  0  0  0  0  0  0  0  0
    5.6408   -8.4965    4.4009 H   0  0  0  0  0  0  0  0  0  0  0  0
    4.5480   -9.8806    2.4559 H   0  0  0  0  0  0  0  0  0  0  0  0
    2.0560  -10.8344    3.3647 H   0  0  0  0  0  0  0  0  0  0  0  0
    2.4069  -10.0267    4.8372 H   0  0  0  0  0  0  0  0  0  0  0  0
   -0.0483  -10.7436    4.1519 H   0  0  0  0  0  0  0  0  0  0  0  0
    0.2135   -9.3833    5.1517 H   0  0  0  0  0  0  0  0  0  0  0  0
   -1.7689   -8.9785    1.6409 H   0  0  0  0  0  0  0  0  0  0  0  0
   -1.9192  -10.2154    2.8750 H   0  0  0  0  0  0  0  0  0  0  0  0
   -0.6356  -10.3433    1.6900 H   0  0  0  0  0  0  0  0  0  0  0  0
   -0.0752   -7.3875    1.8008 H   0  0  0  0  0  0  0  0  0  0  0  0
    2.1065   -8.0430    0.9801 H   0  0  0  0  0  0  0  0  0  0  0  0
    1.4420   -9.6150    1.3664 H   0  0  0  0  0  0  0  0  0  0  0  0
    1.3863   -4.9821    3.4191 H   0  0  0  0  0  0  0  0  0  0  0  0
    0.8195   -5.7018    5.3039 H   0  0  0  0  0  0  0  0  0  0  0  0
   -0.3552   -6.9545    5.1144 H   0  0  0  0  0  0  0  0  0  0  0  0
   -0.1844   -7.6480    7.3923 H   0  0  0  0  0  0  0  0  0  0  0  0
    1.0442   -8.8317    9.1913 H   0  0  0  0  0  0  0  0  0  0  0  0
    4.4793   -9.6853    8.9086 H   0  0  0  0  0  0  0  0  0  0  0  0
    4.6676   -8.6139    6.8679 H   0  0  0  0  0  0  0  0  0  0  0  0
    5.0211   -2.7195    3.4047 H   0  0  0  0  0  0  0  0  0  0  0  0
    4.2715   -0.7605    4.6672 H   0  0  0  0  0  0  0  0  0  0  0  0
  1  2  1  0
  1 35  1  0
  1 36  1  0
  1 37  1  0
  2  3  1  0
  3 34  2  0
  3  4  1  0
  4  5  2  0
  4 38  1  0
  5  6  1  0
  5 39  1  0
  6  7  1  0
  6 33  2  0
  7  8  2  3
  7 40  1  0
  8  9  1  0
  8 41  1  0
  9 10  2  0
  9 11  1  0
 12 11  1  6
 11 42  1  0
 12 16  1  0
 12 23  1  0
 12 13  1  0
 13 32  1  0
 13 14  1  0
 13 43  1  1
 14 15  2  0
 14 44  1  0
 15 16  1  0
 15 45  1  0
 16 22  1  0
 16 17  1  1
 17 18  1  0
 17 46  1  0
 17 47  1  0
 18 19  1  0
 18 48  1  0
 18 49  1  0
 19 20  1  0
 19 21  1  0
 20 50  1  0
 20 51  1  0
 20 52  1  0
 21 22  1  0
 21 23  1  0
 21 53  1  6
 22 54  1  0
 22 55  1  0
 23 24  1  6
 23 25  1  0
 24 56  1  0
 25 26  1  0
 25 57  1  0
 25 58  1  0
 26 32  2  0
 26 27  1  0
 27 28  2  0
 27 59  1  0
 28 29  1  0
 28 60  1  0
 29 30  1  0
 29 31  2  0
 30 61  1  0
 31 32  1  0
 31 62  1  0
 33 34  1  0
 33 63  1  0
 34 64  1  0
M  END
>  <i_m_ct_stereo_status>  (243) 
1

>  <s_m_source_file>  (243) 
/var/tmp/pbs.5076255.sched01/tmph8v5ro6p/78zitxkb1g.sdf

>  <i_m_source_file_index>  (243) 
31

>  <i_lp_mmshare_version>  (243) 
48012

>  <i_f3d_flags>  (243) 
0

>  <s_epik_input>  (243) 
W0NIM11PYzFbY0hdW2NIXWMoW2NIXVtjSF0xKS9bQ0hdPVtDSF0vQyg9TylbTkhdW0NAQF0yKFtDQEBdMzQ1KVtDQEhdKFtDSF09W0NIXTMpYzZjKFtjSF1bY0hdYyhbT0hdKVtjSF02KVtDSDJdW0NAXTIoW09IXSlbQ0BASF0oW0NIMl01KU4oW0NIM10pW0NIMl1bQ0gyXTQ=

>  <s_epik_cmdline>  (243) 
J2VwaWtfcHl0aG9uJywgJy1waHQnLCAnMi4wJywgJy1waCcsICc3LjAnLCAnLXRuJywgJzgnLCAnLW1hJywgJzIwMCcsICctaW1hZScsICc8aW5maWxlLm1hZT4nLCAnLW9tYWUnLCAnPG91dGZpbGUubWFlPic=

>  <r_lp_tautomer_probability>  (243) 
1

>  <r_epik_Ionization_Penalty>  (243) 
2.14068

>  <r_epik_Ionization_Penalty_Charging>  (243) 
0

>  <r_epik_Ionization_Penalty_Neutral>  (243) 
2.14068

>  <r_epik_State_Penalty>  (243) 
2.27958

>  <r_epik_Charging_Adjusted_Penalty>  (243) 
2.27958

>  <i_epik_Tot_Q>  (243) 
0

>  <i_epik_Tot_abs_Q>  (243) 
0

>  <s_lp_Force_Field>  (243) 
OPLS3e

>  <r_lp_Energy>  (243) 
107.107

>  <b_lp_Chiralities_Consistent>  (243) 
1

>  <s_lp_Variant>  (243) 
83:0-2

>  <s_i_glide_gridfile>  (243) 
pfpi4k_grid

>  <i_i_glide_lignum>  (243) 
31

>  <i_i_glide_rotatable_bonds>  (243) 
7

>  <r_i_docking_score>  (243) 
-2.08757

>  <r_i_glide_ligand_efficiency>  (243) 
-0.061399

>  <r_i_glide_ligand_efficiency_sa>  (243) 
-0.198909

>  <r_i_glide_ligand_efficiency_ln>  (243) 
-0.461202

>  <r_i_glide_gscore>  (243) 
-2.08757

>  <r_i_glide_lipo>  (243) 
-0.318294

>  <r_i_glide_hbond>  (243) 
0

>  <r_i_glide_metal>  (243) 
-0

>  <r_i_glide_rewards>  (243) 
-0.782622

>  <r_i_glide_evdw>  (243) 
-24.01

>  <r_i_glide_ecoul>  (243) 
-1.12519

>  <r_i_glide_erotb>  (243) 
0.38263

>  <r_i_glide_esite>  (243) 
0

>  <r_i_glide_emodel>  (243) 
-33.6333

>  <r_i_glide_energy>  (243) 
-25.1352

>  <r_i_glide_einternal>  (243) 
1.92566

>  <r_i_glide_intrahb_reward>  (243) 
-0.5

>  <i_i_glide_confnum>  (243) 
3

>  <i_i_glide_posenum>  (243) 
10

>  <r_i_glide_eff_state_penalty>  (243) 
0

>  <ligand_id>  (243) 
83

>  <original_smiles>  (243) 
COc1ccc(C=CC(=O)NC23C4C=CC25CCN(C)C(C5)C3(O)Cc2ccc(O)cc24)cc1

>  <smiles>  (243) 
[H]Oc1c([H])c([H])c2c(c1[H])C1([H])C([H])=C([H])C34C([H])([H])C([H])([H])N(C([H])([H])[H])C([H])(C3([H])[H])C(O[H])(C2([H])[H])C14N([H])C(=O)C([H])=C([H])c1c([H])c([H])c(OC([H])([H])[H])c([H])c1[H]

$$$$
85:0:0
     RDKit          3D

 12 13  0  0  1  0  0  0  0  0999 V2000
   -8.0255   -4.2424   -5.3825 C   0  0  0  0  0  0  0  0  0  0  0  0
   -8.6249   -5.0553   -6.3612 C   0  0  0  0  0  0  0  0  0  0  0  0
   -8.1026   -6.2348   -6.7652 N   0  0  0  0  0  0  0  0  0  0  0  0
   -6.9562   -6.6722   -6.1973 C   0  0  0  0  0  0  0  0  0  0  0  0
   -6.3311   -7.8210   -6.4914 N   0  0  0  0  0  0  0  0  0  0  0  0
   -4.9675   -7.8605   -5.5066 S   0  0  0  0  0  0  0  0  0  0  0  0
   -5.1463   -6.3902   -4.7221 N   0  0  0  0  0  0  0  0  0  0  0  0
   -6.2906   -5.9102   -5.2149 C   0  0  0  0  0  0  0  0  0  0  0  0
   -6.8225   -4.6774   -4.7952 C   0  0  0  0  0  0  0  0  0  0  0  0
   -8.4736   -3.2988   -5.1017 H   0  0  0  0  0  0  0  0  0  0  0  0
   -9.5453   -4.7508   -6.8368 H   0  0  0  0  0  0  0  0  0  0  0  0
   -6.3235   -4.0772   -4.0488 H   0  0  0  0  0  0  0  0  0  0  0  0
  1  9  2  0
  1  2  1  0
  1 10  1  0
  2  3  2  0
  2 11  1  0
  3  4  1  0
  4  8  1  0
  4  5  2  0
  5  6  1  0
  6  7  1  0
  7  8  2  0
  8  9  1  0
  9 12  1  0
M  END
>  <i_m_ct_stereo_status>  (244) 
1

>  <s_m_source_file>  (244) 
/var/tmp/pbs.5076255.sched01/tmph8v5ro6p/78zitxkb1g.sdf

>  <i_m_source_file_index>  (244) 
33

>  <i_lp_mmshare_version>  (244) 
48012

>  <i_f3d_flags>  (244) 
0

>  <s_epik_input>  (244) 
bjFbY0hdW2NIXVtjSF1jKGMxMiluc24y

>  <s_epik_cmdline>  (244) 
J2VwaWtfcHl0aG9uJywgJy1waHQnLCAnMi4wJywgJy1waCcsICc3LjAnLCAnLXRuJywgJzgnLCAnLW1hJywgJzIwMCcsICctaW1hZScsICc8aW5maWxlLm1hZT4nLCAnLW9tYWUnLCAnPG91dGZpbGUubWFlPic=

>  <r_lp_tautomer_probability>  (244) 
1

>  <r_epik_Ionization_Penalty>  (244) 
1.02883e-08

>  <r_epik_Ionization_Penalty_Charging>  (244) 
0

>  <r_epik_Ionization_Penalty_Neutral>  (244) 
1.02883e-08

>  <r_epik_State_Penalty>  (244) 
-0

>  <r_epik_Charging_Adjusted_Penalty>  (244) 
0

>  <i_epik_Tot_Q>  (244) 
0

>  <i_epik_Tot_abs_Q>  (244) 
0

>  <s_lp_Force_Field>  (244) 
OPLS3e

>  <r_lp_Energy>  (244) 
11.1044

>  <b_lp_Chiralities_Consistent>  (244) 
1

>  <s_lp_Variant>  (244) 
85:0-1

>  <s_i_glide_gridfile>  (244) 
pfpi4k_grid

>  <i_i_glide_lignum>  (244) 
33

>  <i_i_glide_rotatable_bonds>  (244) 
0

>  <r_i_docking_score>  (244) 
-6.90747

>  <r_i_glide_ligand_efficiency>  (244) 
-0.767497

>  <r_i_glide_ligand_efficiency_sa>  (244) 
-1.59646

>  <r_i_glide_ligand_efficiency_ln>  (244) 
-2.16046

>  <r_i_glide_gscore>  (244) 
-6.90747

>  <r_i_glide_lipo>  (244) 
-1.58649

>  <r_i_glide_hbond>  (244) 
-0.255829

>  <r_i_glide_metal>  (244) 
-0

>  <r_i_glide_rewards>  (244) 
-3.77101

>  <r_i_glide_evdw>  (244) 
-21.2329

>  <r_i_glide_ecoul>  (244) 
-1.55

>  <r_i_glide_erotb>  (244) 
0

>  <r_i_glide_esite>  (244) 
0

>  <r_i_glide_emodel>  (244) 
-32.4941

>  <r_i_glide_energy>  (244) 
-22.7829

>  <r_i_glide_einternal>  (244) 
0

>  <r_i_glide_intrahb_reward>  (244) 
-0

>  <i_i_glide_confnum>  (244) 
2

>  <i_i_glide_posenum>  (244) 
11

>  <r_i_glide_eff_state_penalty>  (244) 
0

>  <ligand_id>  (244) 
85

>  <original_smiles>  (244) 
c1cnc2nsnc2c1

>  <smiles>  (244) 
[H]c1nc2nsnc2c([H])c1[H]

$$$$
85:0:1
     RDKit          3D

 12 13  0  0  1  0  0  0  0  0999 V2000
   -0.4703   -9.3708    2.8792 C   0  0  0  0  0  0  0  0  0  0  0  0
   -1.1772   -8.1902    2.5849 C   0  0  0  0  0  0  0  0  0  0  0  0
   -0.5933   -7.0726    2.0934 N   0  0  0  0  0  0  0  0  0  0  0  0
    0.7378   -7.0935    1.8559 C   0  0  0  0  0  0  0  0  0  0  0  0
    1.4369   -6.0678    1.3561 N   0  0  0  0  0  0  0  0  0  0  0  0
    3.0307   -6.6063    1.2814 S   0  0  0  0  0  0  0  0  0  0  0  0
    2.8291   -8.1628    1.8732 N   0  0  0  0  0  0  0  0  0  0  0  0
    1.5202   -8.2332    2.1270 C   0  0  0  0  0  0  0  0  0  0  0  0
    0.9177   -9.3944    2.6490 C   0  0  0  0  0  0  0  0  0  0  0  0
   -0.9791  -10.2372    3.2804 H   0  0  0  0  0  0  0  0  0  0  0  0
   -2.2427   -8.1376    2.7551 H   0  0  0  0  0  0  0  0  0  0  0  0
    1.4983  -10.2800    2.8645 H   0  0  0  0  0  0  0  0  0  0  0  0
  1  9  2  0
  1  2  1  0
  1 10  1  0
  2  3  2  0
  2 11  1  0
  3  4  1  0
  4  8  1  0
  4  5  2  0
  5  6  1  0
  6  7  1  0
  7  8  2  0
  8  9  1  0
  9 12  1  0
M  END
>  <i_m_ct_stereo_status>  (245) 
1

>  <s_m_source_file>  (245) 
/var/tmp/pbs.5076255.sched01/tmph8v5ro6p/78zitxkb1g.sdf

>  <i_m_source_file_index>  (245) 
33

>  <i_lp_mmshare_version>  (245) 
48012

>  <i_f3d_flags>  (245) 
0

>  <s_epik_input>  (245) 
bjFbY0hdW2NIXVtjSF1jKGMxMiluc24y

>  <s_epik_cmdline>  (245) 
J2VwaWtfcHl0aG9uJywgJy1waHQnLCAnMi4wJywgJy1waCcsICc3LjAnLCAnLXRuJywgJzgnLCAnLW1hJywgJzIwMCcsICctaW1hZScsICc8aW5maWxlLm1hZT4nLCAnLW9tYWUnLCAnPG91dGZpbGUubWFlPic=

>  <r_lp_tautomer_probability>  (245) 
1

>  <r_epik_Ionization_Penalty>  (245) 
1.02883e-08

>  <r_epik_Ionization_Penalty_Charging>  (245) 
0

>  <r_epik_Ionization_Penalty_Neutral>  (245) 
1.02883e-08

>  <r_epik_State_Penalty>  (245) 
-0

>  <r_epik_Charging_Adjusted_Penalty>  (245) 
0

>  <i_epik_Tot_Q>  (245) 
0

>  <i_epik_Tot_abs_Q>  (245) 
0

>  <s_lp_Force_Field>  (245) 
OPLS3e

>  <r_lp_Energy>  (245) 
11.1044

>  <b_lp_Chiralities_Consistent>  (245) 
1

>  <s_lp_Variant>  (245) 
85:0-1

>  <s_i_glide_gridfile>  (245) 
pfpi4k_grid

>  <i_i_glide_lignum>  (245) 
33

>  <i_i_glide_rotatable_bonds>  (245) 
0

>  <r_i_docking_score>  (245) 
-3.94127

>  <r_i_glide_ligand_efficiency>  (245) 
-0.437919

>  <r_i_glide_ligand_efficiency_sa>  (245) 
-0.910908

>  <r_i_glide_ligand_efficiency_ln>  (245) 
-1.23272

>  <r_i_glide_gscore>  (245) 
-3.94127

>  <r_i_glide_lipo>  (245) 
-0.064327

>  <r_i_glide_hbond>  (245) 
-0.234406

>  <r_i_glide_metal>  (245) 
-0

>  <r_i_glide_rewards>  (245) 
-2.25

>  <r_i_glide_evdw>  (245) 
-15.0993

>  <r_i_glide_ecoul>  (245) 
-3.81529

>  <r_i_glide_erotb>  (245) 
0

>  <r_i_glide_esite>  (245) 
-0.0652796

>  <r_i_glide_emodel>  (245) 
-24.4558

>  <r_i_glide_energy>  (245) 
-18.9146

>  <r_i_glide_einternal>  (245) 
0

>  <r_i_glide_intrahb_reward>  (245) 
-0

>  <i_i_glide_confnum>  (245) 
1

>  <i_i_glide_posenum>  (245) 
3

>  <r_i_glide_eff_state_penalty>  (245) 
0

>  <ligand_id>  (245) 
85

>  <original_smiles>  (245) 
c1cnc2nsnc2c1

>  <smiles>  (245) 
[H]c1nc2nsnc2c([H])c1[H]

$$$$
85:0:2
     RDKit          3D

 12 13  0  0  1  0  0  0  0  0999 V2000
    3.0648   -7.3239    1.6158 C   0  0  0  0  0  0  0  0  0  0  0  0
    2.2265   -6.2469    1.2704 C   0  0  0  0  0  0  0  0  0  0  0  0
    0.8846   -6.2641    1.4431 N   0  0  0  0  0  0  0  0  0  0  0  0
    0.3181   -7.3641    1.9875 C   0  0  0  0  0  0  0  0  0  0  0  0
   -0.9875   -7.4985    2.2429 N   0  0  0  0  0  0  0  0  0  0  0  0
   -1.1579   -9.0482    2.8794 S   0  0  0  0  0  0  0  0  0  0  0  0
    0.4456   -9.5342    2.8795 N   0  0  0  0  0  0  0  0  0  0  0  0
    1.0833   -8.4841    2.3565 C   0  0  0  0  0  0  0  0  0  0  0  0
    2.4778   -8.4791    2.1662 C   0  0  0  0  0  0  0  0  0  0  0  0
    4.1312   -7.2713    1.4481 H   0  0  0  0  0  0  0  0  0  0  0  0
    2.6409   -5.3475    0.8394 H   0  0  0  0  0  0  0  0  0  0  0  0
    3.0820   -9.3338    2.4381 H   0  0  0  0  0  0  0  0  0  0  0  0
  1  9  2  0
  1  2  1  0
  1 10  1  0
  2  3  2  0
  2 11  1  0
  3  4  1  0
  4  8  1  0
  4  5  2  0
  5  6  1  0
  6  7  1  0
  7  8  2  0
  8  9  1  0
  9 12  1  0
M  END
>  <i_m_ct_stereo_status>  (246) 
1

>  <s_m_source_file>  (246) 
/var/tmp/pbs.5076255.sched01/tmph8v5ro6p/78zitxkb1g.sdf

>  <i_m_source_file_index>  (246) 
33

>  <i_lp_mmshare_version>  (246) 
48012

>  <i_f3d_flags>  (246) 
0

>  <s_epik_input>  (246) 
bjFbY0hdW2NIXVtjSF1jKGMxMiluc24y

>  <s_epik_cmdline>  (246) 
J2VwaWtfcHl0aG9uJywgJy1waHQnLCAnMi4wJywgJy1waCcsICc3LjAnLCAnLXRuJywgJzgnLCAnLW1hJywgJzIwMCcsICctaW1hZScsICc8aW5maWxlLm1hZT4nLCAnLW9tYWUnLCAnPG91dGZpbGUubWFlPic=

>  <r_lp_tautomer_probability>  (246) 
1

>  <r_epik_Ionization_Penalty>  (246) 
1.02883e-08

>  <r_epik_Ionization_Penalty_Charging>  (246) 
0

>  <r_epik_Ionization_Penalty_Neutral>  (246) 
1.02883e-08

>  <r_epik_State_Penalty>  (246) 
-0

>  <r_epik_Charging_Adjusted_Penalty>  (246) 
0

>  <i_epik_Tot_Q>  (246) 
0

>  <i_epik_Tot_abs_Q>  (246) 
0

>  <s_lp_Force_Field>  (246) 
OPLS3e

>  <r_lp_Energy>  (246) 
11.1044

>  <b_lp_Chiralities_Consistent>  (246) 
1

>  <s_lp_Variant>  (246) 
85:0-1

>  <s_i_glide_gridfile>  (246) 
pfpi4k_grid

>  <i_i_glide_lignum>  (246) 
33

>  <i_i_glide_rotatable_bonds>  (246) 
0

>  <r_i_docking_score>  (246) 
-3.87879

>  <r_i_glide_ligand_efficiency>  (246) 
-0.430976

>  <r_i_glide_ligand_efficiency_sa>  (246) 
-0.896467

>  <r_i_glide_ligand_efficiency_ln>  (246) 
-1.21317

>  <r_i_glide_gscore>  (246) 
-3.87879

>  <r_i_glide_lipo>  (246) 
-0.0500827

>  <r_i_glide_hbond>  (246) 
-0.187944

>  <r_i_glide_metal>  (246) 
-0

>  <r_i_glide_rewards>  (246) 
-2.25

>  <r_i_glide_evdw>  (246) 
-15.7889

>  <r_i_glide_ecoul>  (246) 
-3.56448

>  <r_i_glide_erotb>  (246) 
0

>  <r_i_glide_esite>  (246) 
-0.066641

>  <r_i_glide_emodel>  (246) 
-24.8062

>  <r_i_glide_energy>  (246) 
-19.3534

>  <r_i_glide_einternal>  (246) 
0

>  <r_i_glide_intrahb_reward>  (246) 
-0

>  <i_i_glide_confnum>  (246) 
1

>  <i_i_glide_posenum>  (246) 
2

>  <r_i_glide_eff_state_penalty>  (246) 
0

>  <ligand_id>  (246) 
85

>  <original_smiles>  (246) 
c1cnc2nsnc2c1

>  <smiles>  (246) 
[H]c1nc2nsnc2c([H])c1[H]

$$$$
86:0:0
     RDKit          3D

 41 43  0  0  1  0  0  0  0  0999 V2000
    2.7159  -11.1031    4.0256 C   0  0  0  0  0  0  0  0  0  0  0  0
    1.7465  -10.2954    3.3053 N   0  0  0  0  0  0  0  0  0  0  0  0
    0.3516  -10.2475    3.7508 C   0  0  0  0  0  0  0  0  0  0  0  0
   -0.2045   -9.1156    2.9923 N   0  0  0  0  0  0  0  0  0  0  0  0
   -1.4907   -8.5707    3.3922 C   0  0  0  0  0  0  0  0  0  0  0  0
    0.8578   -8.4442    2.4206 C   0  0  0  0  0  0  0  0  0  0  0  0
    1.9761   -9.1305    2.6104 C   0  0  0  0  0  0  0  0  0  0  0  0
    3.2475   -8.6855    2.2955 N   0  0  0  0  0  0  0  0  0  0  0  0
    3.3127   -7.5070    1.7654 C   0  0  0  0  0  0  0  0  0  0  0  0
    2.1670   -6.6824    1.5019 N   0  0  0  0  0  0  0  0  0  0  0  0
    0.9065   -7.1045    1.8245 C   0  0  0  0  0  0  0  0  0  0  0  0
   -0.0930   -6.3912    1.6514 O   0  0  0  0  0  0  0  0  0  0  0  0
    2.2999   -5.3883    1.0206 N   0  0  0  0  0  0  0  0  0  0  0  0
    3.3744   -4.9430    0.4536 C   0  0  0  0  0  0  0  0  0  0  0  0
    3.4207   -3.4733    0.0351 C   0  0  0  0  0  0  0  0  0  0  0  0
    2.5668   -3.2436   -1.2288 C   0  0  0  0  0  0  0  0  0  0  0  0
    4.8621   -3.0083   -0.2617 C   0  0  0  0  0  0  0  0  0  0  0  0
    2.8721   -2.6008    1.1887 C   0  0  0  0  0  0  0  0  0  0  0  0
    4.5122   -5.9156    0.1984 C   0  0  0  0  0  0  0  0  0  0  0  0
    4.6394   -6.8765    1.3828 C   0  0  0  0  0  0  0  0  0  0  0  0
    3.6306  -11.2166    3.4423 H   0  0  0  0  0  0  0  0  0  0  0  0
    2.3116  -12.0974    4.2353 H   0  0  0  0  0  0  0  0  0  0  0  0
    2.9541  -10.6139    4.9711 H   0  0  0  0  0  0  0  0  0  0  0  0
   -0.1662  -11.1946    3.5793 H   0  0  0  0  0  0  0  0  0  0  0  0
    0.3193  -10.0188    4.8207 H   0  0  0  0  0  0  0  0  0  0  0  0
   -1.9287   -7.9502    2.6116 H   0  0  0  0  0  0  0  0  0  0  0  0
   -1.3661   -7.9716    4.2936 H   0  0  0  0  0  0  0  0  0  0  0  0
   -2.1947   -9.3749    3.6056 H   0  0  0  0  0  0  0  0  0  0  0  0
    2.6329   -2.2047   -1.5530 H   0  0  0  0  0  0  0  0  0  0  0  0
    1.5127   -3.4549   -1.0611 H   0  0  0  0  0  0  0  0  0  0  0  0
    2.8949   -3.8523   -2.0675 H   0  0  0  0  0  0  0  0  0  0  0  0
    5.2900   -3.5390   -1.1169 H   0  0  0  0  0  0  0  0  0  0  0  0
    5.5122   -3.1577    0.6052 H   0  0  0  0  0  0  0  0  0  0  0  0
    4.8887   -1.9428   -0.5078 H   0  0  0  0  0  0  0  0  0  0  0  0
    2.9410   -1.5370    0.9524 H   0  0  0  0  0  0  0  0  0  0  0  0
    3.4288   -2.7750    2.1121 H   0  0  0  0  0  0  0  0  0  0  0  0
    1.8214   -2.8061    1.4005 H   0  0  0  0  0  0  0  0  0  0  0  0
    4.3170   -6.4730   -0.7172 H   0  0  0  0  0  0  0  0  0  0  0  0
    5.4862   -5.4486    0.0858 H   0  0  0  0  0  0  0  0  0  0  0  0
    5.0404   -6.3492    2.2565 H   0  0  0  0  0  0  0  0  0  0  0  0
    5.3474   -7.6688    1.1323 H   0  0  0  0  0  0  0  0  0  0  0  0
  1  2  1  0
  1 21  1  0
  1 22  1  0
  1 23  1  0
  2  7  1  0
  2  3  1  0
  3  4  1  0
  3 24  1  0
  3 25  1  0
  4  5  1  0
  4  6  1  0
  5 26  1  0
  5 27  1  0
  5 28  1  0
  6 11  1  0
  6  7  2  0
  7  8  1  0
  8  9  2  0
  9 20  1  0
  9 10  1  0
 10 11  1  0
 10 13  1  0
 11 12  2  0
 13 14  2  0
 14 15  1  0
 14 19  1  0
 15 16  1  0
 15 17  1  0
 15 18  1  0
 16 29  1  0
 16 30  1  0
 16 31  1  0
 17 32  1  0
 17 33  1  0
 17 34  1  0
 18 35  1  0
 18 36  1  0
 18 37  1  0
 19 20  1  0
 19 38  1  0
 19 39  1  0
 20 40  1  0
 20 41  1  0
M  END
>  <i_m_ct_stereo_status>  (247) 
1

>  <s_m_source_file>  (247) 
/var/tmp/pbs.5076255.sched01/tmph8v5ro6p/78zitxkb1g.sdf

>  <i_m_source_file_index>  (247) 
34

>  <i_lp_mmshare_version>  (247) 
48012

>  <i_f3d_flags>  (247) 
0

>  <s_epik_input>  (247) 
W0NIM11OMVtDSDJdTihbQ0gzXSljKGMxMiluYzNuKGMyPU8pTj1DKEMoW0NIM10pKFtDSDNdKVtDSDNdKVtDSDJdW0NIMl0z

>  <s_epik_cmdline>  (247) 
J2VwaWtfcHl0aG9uJywgJy1waHQnLCAnMi4wJywgJy1waCcsICc3LjAnLCAnLXRuJywgJzgnLCAnLW1hJywgJzIwMCcsICctaW1hZScsICc8aW5maWxlLm1hZT4nLCAnLW9tYWUnLCAnPG91dGZpbGUubWFlPic=

>  <r_lp_tautomer_probability>  (247) 
1

>  <r_epik_Ionization_Penalty>  (247) 
0.000196305

>  <r_epik_Ionization_Penalty_Charging>  (247) 
5.37545e-08

>  <r_epik_Ionization_Penalty_Neutral>  (247) 
0.000196251

>  <r_epik_State_Penalty>  (247) 
-0

>  <r_epik_Charging_Adjusted_Penalty>  (247) 
5.37545e-08

>  <i_epik_Tot_Q>  (247) 
0

>  <i_epik_Tot_abs_Q>  (247) 
0

>  <s_epik_Chemistry_Notes>  (247) 
This compound has an imine and may undergo hydrolysis. This compound contains an acetal/aminal-like group ( X-CH(R)-Y where X, Y are N, S, or O) that may be acid/base labile, releasing an aldehyde.

>  <s_lp_Force_Field>  (247) 
OPLS3e

>  <r_lp_Energy>  (247) 
43.5534

>  <b_lp_Chiralities_Consistent>  (247) 
1

>  <s_lp_Variant>  (247) 
86:0-1

>  <s_i_glide_gridfile>  (247) 
pfpi4k_grid

>  <i_i_glide_lignum>  (247) 
34

>  <i_i_glide_rotatable_bonds>  (247) 
1

>  <r_i_docking_score>  (247) 
-4.29551

>  <r_i_glide_ligand_efficiency>  (247) 
-0.214776

>  <r_i_glide_ligand_efficiency_sa>  (247) 
-0.582991

>  <r_i_glide_ligand_efficiency_ln>  (247) 
-1.07503

>  <r_i_glide_gscore>  (247) 
-4.29551

>  <r_i_glide_lipo>  (247) 
-0.222883

>  <r_i_glide_hbond>  (247) 
-0.303277

>  <r_i_glide_metal>  (247) 
-0

>  <r_i_glide_rewards>  (247) 
-1.67959

>  <r_i_glide_evdw>  (247) 
-25.2419

>  <r_i_glide_ecoul>  (247) 
-4.80388

>  <r_i_glide_erotb>  (247) 
0

>  <r_i_glide_esite>  (247) 
-0.107088

>  <r_i_glide_emodel>  (247) 
-38.2627

>  <r_i_glide_energy>  (247) 
-30.0458

>  <r_i_glide_einternal>  (247) 
1.42096

>  <r_i_glide_intrahb_reward>  (247) 
-0

>  <i_i_glide_confnum>  (247) 
1

>  <i_i_glide_posenum>  (247) 
6

>  <r_i_glide_eff_state_penalty>  (247) 
0

>  <ligand_id>  (247) 
86

>  <original_smiles>  (247) 
CN1CN(C)c2c1nc1n(c2=O)N=C(C(C)(C)C)CC1

>  <smiles>  (247) 
[H]C([H])([H])N1c2nc3n(c(=O)c2N(C([H])([H])[H])C1([H])[H])N=C(C(C([H])([H])[H])(C([H])([H])[H])C([H])([H])[H])C([H])([H])C3([H])[H]

$$$$
86:0:1
     RDKit          3D

 41 43  0  0  1  0  0  0  0  0999 V2000
    2.3219  -11.2505    4.0951 C   0  0  0  0  0  0  0  0  0  0  0  0
    1.4633  -10.3298    3.3706 N   0  0  0  0  0  0  0  0  0  0  0  0
    0.0870  -10.0959    3.8186 C   0  0  0  0  0  0  0  0  0  0  0  0
   -0.3185   -8.9058    3.0503 N   0  0  0  0  0  0  0  0  0  0  0  0
   -1.5290   -8.2050    3.4473 C   0  0  0  0  0  0  0  0  0  0  0  0
    0.8211   -8.3904    2.4600 C   0  0  0  0  0  0  0  0  0  0  0  0
    1.8393   -9.2139    2.6574 C   0  0  0  0  0  0  0  0  0  0  0  0
    3.1673   -8.9308    2.3484 N   0  0  0  0  0  0  0  0  0  0  0  0
    3.3802   -7.7656    1.8209 C   0  0  0  0  0  0  0  0  0  0  0  0
    2.3490   -6.8039    1.5640 N   0  0  0  0  0  0  0  0  0  0  0  0
    1.0397   -7.0778    1.8564 C   0  0  0  0  0  0  0  0  0  0  0  0
    0.1328   -6.2601    1.6629 O   0  0  0  0  0  0  0  0  0  0  0  0
    2.6385   -5.5318    1.1079 N   0  0  0  0  0  0  0  0  0  0  0  0
    3.7427   -5.2223    0.5106 C   0  0  0  0  0  0  0  0  0  0  0  0
    3.9892   -3.7835    0.0716 C   0  0  0  0  0  0  0  0  0  0  0  0
    4.5351   -3.7305   -1.3721 C   0  0  0  0  0  0  0  0  0  0  0  0
    5.0156   -3.1363    1.0181 C   0  0  0  0  0  0  0  0  0  0  0  0
    2.6824   -2.9548    0.1350 C   0  0  0  0  0  0  0  0  0  0  0  0
    4.7686   -6.3065    0.2641 C   0  0  0  0  0  0  0  0  0  0  0  0
    4.7773   -7.2941    1.4397 C   0  0  0  0  0  0  0  0  0  0  0  0
    3.2149  -11.4784    3.5087 H   0  0  0  0  0  0  0  0  0  0  0  0
    1.7927  -12.1822    4.3034 H   0  0  0  0  0  0  0  0  0  0  0  0
    2.6201  -10.7917    5.0383 H   0  0  0  0  0  0  0  0  0  0  0  0
   -0.5619  -10.9578    3.6536 H   0  0  0  0  0  0  0  0  0  0  0  0
    0.0831   -9.8643    4.8833 H   0  0  0  0  0  0  0  0  0  0  0  0
   -1.8903   -7.5386    2.6615 H   0  0  0  0  0  0  0  0  0  0  0  0
   -1.3344   -7.6162    4.3455 H   0  0  0  0  0  0  0  0  0  0  0  0
   -2.3265   -8.9175    3.6693 H   0  0  0  0  0  0  0  0  0  0  0  0
    4.7734   -2.7033   -1.6587 H   0  0  0  0  0  0  0  0  0  0  0  0
    3.8038   -4.1050   -2.0868 H   0  0  0  0  0  0  0  0  0  0  0  0
    5.4486   -4.3122   -1.5026 H   0  0  0  0  0  0  0  0  0  0  0  0
    5.9854   -3.6435    0.9846 H   0  0  0  0  0  0  0  0  0  0  0  0
    4.6610   -3.1400    2.0536 H   0  0  0  0  0  0  0  0  0  0  0  0
    5.1782   -2.0950    0.7316 H   0  0  0  0  0  0  0  0  0  0  0  0
    2.8553   -1.9085   -0.1172 H   0  0  0  0  0  0  0  0  0  0  0  0
    2.2458   -2.9540    1.1331 H   0  0  0  0  0  0  0  0  0  0  0  0
    1.9312   -3.3387   -0.5548 H   0  0  0  0  0  0  0  0  0  0  0  0
    4.5192   -6.8404   -0.6528 H   0  0  0  0  0  0  0  0  0  0  0  0
    5.7750   -5.9081    0.1500 H   0  0  0  0  0  0  0  0  0  0  0  0
    5.2351   -6.8305    2.3194 H   0  0  0  0  0  0  0  0  0  0  0  0
    5.3718   -8.1738    1.1827 H   0  0  0  0  0  0  0  0  0  0  0  0
  1  2  1  0
  1 21  1  0
  1 22  1  0
  1 23  1  0
  2  7  1  0
  2  3  1  0
  3  4  1  0
  3 24  1  0
  3 25  1  0
  4  5  1  0
  4  6  1  0
  5 26  1  0
  5 27  1  0
  5 28  1  0
  6 11  1  0
  6  7  2  0
  7  8  1  0
  8  9  2  0
  9 20  1  0
  9 10  1  0
 10 11  1  0
 10 13  1  0
 11 12  2  0
 13 14  2  0
 14 15  1  0
 14 19  1  0
 15 16  1  0
 15 17  1  0
 15 18  1  0
 16 29  1  0
 16 30  1  0
 16 31  1  0
 17 32  1  0
 17 33  1  0
 17 34  1  0
 18 35  1  0
 18 36  1  0
 18 37  1  0
 19 20  1  0
 19 38  1  0
 19 39  1  0
 20 40  1  0
 20 41  1  0
M  END
>  <i_m_ct_stereo_status>  (248) 
1

>  <s_m_source_file>  (248) 
/var/tmp/pbs.5076255.sched01/tmph8v5ro6p/78zitxkb1g.sdf

>  <i_m_source_file_index>  (248) 
34

>  <i_lp_mmshare_version>  (248) 
48012

>  <i_f3d_flags>  (248) 
0

>  <s_epik_input>  (248) 
W0NIM11OMVtDSDJdTihbQ0gzXSljKGMxMiluYzNuKGMyPU8pTj1DKEMoW0NIM10pKFtDSDNdKVtDSDNdKVtDSDJdW0NIMl0z

>  <s_epik_cmdline>  (248) 
J2VwaWtfcHl0aG9uJywgJy1waHQnLCAnMi4wJywgJy1waCcsICc3LjAnLCAnLXRuJywgJzgnLCAnLW1hJywgJzIwMCcsICctaW1hZScsICc8aW5maWxlLm1hZT4nLCAnLW9tYWUnLCAnPG91dGZpbGUubWFlPic=

>  <r_lp_tautomer_probability>  (248) 
1

>  <r_epik_Ionization_Penalty>  (248) 
0.000196305

>  <r_epik_Ionization_Penalty_Charging>  (248) 
5.37545e-08

>  <r_epik_Ionization_Penalty_Neutral>  (248) 
0.000196251

>  <r_epik_State_Penalty>  (248) 
-0

>  <r_epik_Charging_Adjusted_Penalty>  (248) 
5.37545e-08

>  <i_epik_Tot_Q>  (248) 
0

>  <i_epik_Tot_abs_Q>  (248) 
0

>  <s_epik_Chemistry_Notes>  (248) 
This compound has an imine and may undergo hydrolysis. This compound contains an acetal/aminal-like group ( X-CH(R)-Y where X, Y are N, S, or O) that may be acid/base labile, releasing an aldehyde.

>  <s_lp_Force_Field>  (248) 
OPLS3e

>  <r_lp_Energy>  (248) 
43.5534

>  <b_lp_Chiralities_Consistent>  (248) 
1

>  <s_lp_Variant>  (248) 
86:0-1

>  <s_i_glide_gridfile>  (248) 
pfpi4k_grid

>  <i_i_glide_lignum>  (248) 
34

>  <i_i_glide_rotatable_bonds>  (248) 
1

>  <r_i_docking_score>  (248) 
-4.25265

>  <r_i_glide_ligand_efficiency>  (248) 
-0.212633

>  <r_i_glide_ligand_efficiency_sa>  (248) 
-0.577174

>  <r_i_glide_ligand_efficiency_ln>  (248) 
-1.0643

>  <r_i_glide_gscore>  (248) 
-4.25265

>  <r_i_glide_lipo>  (248) 
-0.285631

>  <r_i_glide_hbond>  (248) 
-0.283549

>  <r_i_glide_metal>  (248) 
-0

>  <r_i_glide_rewards>  (248) 
-1.68173

>  <r_i_glide_evdw>  (248) 
-24.5822

>  <r_i_glide_ecoul>  (248) 
-4.41323

>  <r_i_glide_erotb>  (248) 
0

>  <r_i_glide_esite>  (248) 
-0.110649

>  <r_i_glide_emodel>  (248) 
-37.3733

>  <r_i_glide_energy>  (248) 
-28.9954

>  <r_i_glide_einternal>  (248) 
0.874122

>  <r_i_glide_intrahb_reward>  (248) 
-0

>  <i_i_glide_confnum>  (248) 
1

>  <i_i_glide_posenum>  (248) 
34

>  <r_i_glide_eff_state_penalty>  (248) 
0

>  <ligand_id>  (248) 
86

>  <original_smiles>  (248) 
CN1CN(C)c2c1nc1n(c2=O)N=C(C(C)(C)C)CC1

>  <smiles>  (248) 
[H]C([H])([H])N1c2nc3n(c(=O)c2N(C([H])([H])[H])C1([H])[H])N=C(C(C([H])([H])[H])(C([H])([H])[H])C([H])([H])[H])C([H])([H])C3([H])[H]

$$$$
86:0:2
     RDKit          3D

 41 43  0  0  1  0  0  0  0  0999 V2000
   -0.0707   -7.4553    1.2824 C   0  0  0  0  0  0  0  0  0  0  0  0
    1.3041   -7.5859    1.7241 N   0  0  0  0  0  0  0  0  0  0  0  0
    1.9293   -8.9110    1.8508 C   0  0  0  0  0  0  0  0  0  0  0  0
    3.3553   -8.5946    1.9975 N   0  0  0  0  0  0  0  0  0  0  0  0
    4.3227   -9.6686    1.8193 C   0  0  0  0  0  0  0  0  0  0  0  0
    3.5150   -7.2617    1.6884 C   0  0  0  0  0  0  0  0  0  0  0  0
    2.3293   -6.6911    1.5288 C   0  0  0  0  0  0  0  0  0  0  0  0
    2.1248   -5.4033    1.0609 N   0  0  0  0  0  0  0  0  0  0  0  0
    3.1939   -4.7251    0.7838 C   0  0  0  0  0  0  0  0  0  0  0  0
    4.5242   -5.2417    0.9266 N   0  0  0  0  0  0  0  0  0  0  0  0
    4.7411   -6.5206    1.3635 C   0  0  0  0  0  0  0  0  0  0  0  0
    5.8763   -7.0040    1.4443 O   0  0  0  0  0  0  0  0  0  0  0  0
    5.6325   -4.5168    0.5317 N   0  0  0  0  0  0  0  0  0  0  0  0
    5.6304   -3.2374    0.3803 C   0  0  0  0  0  0  0  0  0  0  0  0
    6.8918   -2.5460   -0.1327 C   0  0  0  0  0  0  0  0  0  0  0  0
    8.1522   -3.3949    0.1737 C   0  0  0  0  0  0  0  0  0  0  0  0
    7.0905   -1.1533    0.5088 C   0  0  0  0  0  0  0  0  0  0  0  0
    6.7519   -2.3925   -1.6568 C   0  0  0  0  0  0  0  0  0  0  0  0
    4.3625   -2.4665    0.6872 C   0  0  0  0  0  0  0  0  0  0  0  0
    3.1375   -3.2942    0.2744 C   0  0  0  0  0  0  0  0  0  0  0  0
   -0.4454   -6.4488    1.4712 H   0  0  0  0  0  0  0  0  0  0  0  0
   -0.7093   -8.1780    1.8005 H   0  0  0  0  0  0  0  0  0  0  0  0
   -0.1205   -7.6426    0.2114 H   0  0  0  0  0  0  0  0  0  0  0  0
    1.5297   -9.4991    2.6862 H   0  0  0  0  0  0  0  0  0  0  0  0
    1.8155   -9.4737    0.9224 H   0  0  0  0  0  0  0  0  0  0  0  0
    5.2961   -9.4043    2.2301 H   0  0  0  0  0  0  0  0  0  0  0  0
    4.4388   -9.8708    0.7577 H   0  0  0  0  0  0  0  0  0  0  0  0
    3.9878  -10.5797    2.3176 H   0  0  0  0  0  0  0  0  0  0  0  0
    9.0647   -2.8998   -0.1644 H   0  0  0  0  0  0  0  0  0  0  0  0
    8.1215   -4.3628   -0.3229 H   0  0  0  0  0  0  0  0  0  0  0  0
    8.2596   -3.5860    1.2441 H   0  0  0  0  0  0  0  0  0  0  0  0
    7.2065   -1.2131    1.5930 H   0  0  0  0  0  0  0  0  0  0  0  0
    6.2729   -0.4587    0.2977 H   0  0  0  0  0  0  0  0  0  0  0  0
    8.0052   -0.7018    0.1232 H   0  0  0  0  0  0  0  0  0  0  0  0
    7.6327   -1.9171   -2.0890 H   0  0  0  0  0  0  0  0  0  0  0  0
    5.8717   -1.8001   -1.9208 H   0  0  0  0  0  0  0  0  0  0  0  0
    6.6571   -3.3643   -2.1458 H   0  0  0  0  0  0  0  0  0  0  0  0
    4.3154   -2.2428    1.7550 H   0  0  0  0  0  0  0  0  0  0  0  0
    4.3131   -1.5193    0.1522 H   0  0  0  0  0  0  0  0  0  0  0  0
    3.0489   -3.3232   -0.8170 H   0  0  0  0  0  0  0  0  0  0  0  0
    2.2348   -2.8216    0.6617 H   0  0  0  0  0  0  0  0  0  0  0  0
  1  2  1  0
  1 21  1  0
  1 22  1  0
  1 23  1  0
  2  7  1  0
  2  3  1  0
  3  4  1  0
  3 24  1  0
  3 25  1  0
  4  5  1  0
  4  6  1  0
  5 26  1  0
  5 27  1  0
  5 28  1  0
  6 11  1  0
  6  7  2  0
  7  8  1  0
  8  9  2  0
  9 20  1  0
  9 10  1  0
 10 11  1  0
 10 13  1  0
 11 12  2  0
 13 14  2  0
 14 15  1  0
 14 19  1  0
 15 16  1  0
 15 17  1  0
 15 18  1  0
 16 29  1  0
 16 30  1  0
 16 31  1  0
 17 32  1  0
 17 33  1  0
 17 34  1  0
 18 35  1  0
 18 36  1  0
 18 37  1  0
 19 20  1  0
 19 38  1  0
 19 39  1  0
 20 40  1  0
 20 41  1  0
M  END
>  <i_m_ct_stereo_status>  (249) 
1

>  <s_m_source_file>  (249) 
/var/tmp/pbs.5076255.sched01/tmph8v5ro6p/78zitxkb1g.sdf

>  <i_m_source_file_index>  (249) 
34

>  <i_lp_mmshare_version>  (249) 
48012

>  <i_f3d_flags>  (249) 
0

>  <s_epik_input>  (249) 
W0NIM11OMVtDSDJdTihbQ0gzXSljKGMxMiluYzNuKGMyPU8pTj1DKEMoW0NIM10pKFtDSDNdKVtDSDNdKVtDSDJdW0NIMl0z

>  <s_epik_cmdline>  (249) 
J2VwaWtfcHl0aG9uJywgJy1waHQnLCAnMi4wJywgJy1waCcsICc3LjAnLCAnLXRuJywgJzgnLCAnLW1hJywgJzIwMCcsICctaW1hZScsICc8aW5maWxlLm1hZT4nLCAnLW9tYWUnLCAnPG91dGZpbGUubWFlPic=

>  <r_lp_tautomer_probability>  (249) 
1

>  <r_epik_Ionization_Penalty>  (249) 
0.000196305

>  <r_epik_Ionization_Penalty_Charging>  (249) 
5.37545e-08

>  <r_epik_Ionization_Penalty_Neutral>  (249) 
0.000196251

>  <r_epik_State_Penalty>  (249) 
-0

>  <r_epik_Charging_Adjusted_Penalty>  (249) 
5.37545e-08

>  <i_epik_Tot_Q>  (249) 
0

>  <i_epik_Tot_abs_Q>  (249) 
0

>  <s_epik_Chemistry_Notes>  (249) 
This compound has an imine and may undergo hydrolysis. This compound contains an acetal/aminal-like group ( X-CH(R)-Y where X, Y are N, S, or O) that may be acid/base labile, releasing an aldehyde.

>  <s_lp_Force_Field>  (249) 
OPLS3e

>  <r_lp_Energy>  (249) 
43.5534

>  <b_lp_Chiralities_Consistent>  (249) 
1

>  <s_lp_Variant>  (249) 
86:0-1

>  <s_i_glide_gridfile>  (249) 
pfpi4k_grid

>  <i_i_glide_lignum>  (249) 
34

>  <i_i_glide_rotatable_bonds>  (249) 
1

>  <r_i_docking_score>  (249) 
-3.78556

>  <r_i_glide_ligand_efficiency>  (249) 
-0.189278

>  <r_i_glide_ligand_efficiency_sa>  (249) 
-0.513779

>  <r_i_glide_ligand_efficiency_ln>  (249) 
-0.9474

>  <r_i_glide_gscore>  (249) 
-3.78556

>  <r_i_glide_lipo>  (249) 
-0.3822

>  <r_i_glide_hbond>  (249) 
-0.0215927

>  <r_i_glide_metal>  (249) 
-0

>  <r_i_glide_rewards>  (249) 
-1.68875

>  <r_i_glide_evdw>  (249) 
-24.2174

>  <r_i_glide_ecoul>  (249) 
-2.75691

>  <r_i_glide_erotb>  (249) 
0

>  <r_i_glide_esite>  (249) 
-0.0686138

>  <r_i_glide_emodel>  (249) 
-34.388

>  <r_i_glide_energy>  (249) 
-26.9743

>  <r_i_glide_einternal>  (249) 
0.7427

>  <r_i_glide_intrahb_reward>  (249) 
-0

>  <i_i_glide_confnum>  (249) 
2

>  <i_i_glide_posenum>  (249) 
28

>  <r_i_glide_eff_state_penalty>  (249) 
0

>  <ligand_id>  (249) 
86

>  <original_smiles>  (249) 
CN1CN(C)c2c1nc1n(c2=O)N=C(C(C)(C)C)CC1

>  <smiles>  (249) 
[H]C([H])([H])N1c2nc3n(c(=O)c2N(C([H])([H])[H])C1([H])[H])N=C(C(C([H])([H])[H])(C([H])([H])[H])C([H])([H])[H])C([H])([H])C3([H])[H]

$$$$
87:0:0
     RDKit          3D

 38 40  0  0  1  0  0  0  0  0999 V2000
   -2.0420    2.9859    5.9224 C   0  0  0  0  0  0  0  0  0  0  0  0
   -2.0856    2.4945    4.4609 C   0  0  0  0  0  0  0  0  0  0  0  0
   -1.1389    1.4077    4.2034 N   0  0  0  0  0  0  0  0  0  0  0  0
   -0.1612    1.7146    3.2584 N   0  0  0  0  0  0  0  0  0  0  0  0
    0.7253    0.8410    2.9118 C   0  0  0  0  0  0  0  0  0  0  0  0
    0.7128   -0.4833    3.5287 C   0  0  0  0  0  0  0  0  0  0  0  0
   -0.2612   -0.7779    4.4165 C   0  0  0  0  0  0  0  0  0  0  0  0
   -1.2834    0.1848    4.8045 C   0  0  0  0  0  0  0  0  0  0  0  0
   -2.1812   -0.1018    5.6018 O   0  0  0  0  0  0  0  0  0  0  0  0
    1.7517   -1.4987    3.1019 C   0  0  0  0  0  0  0  0  0  0  0  0
    2.2685   -1.2615    1.7181 N   0  0  2  0  0  0  0  0  0  0  0  0
    3.2331   -2.3106    1.2717 C   0  0  2  0  0  0  0  0  0  0  0  0
    3.6724   -2.1126   -0.1909 C   0  0  0  0  0  0  0  0  0  0  0  0
    3.2790   -3.4010   -0.9110 C   0  0  0  0  0  0  0  0  0  0  0  0
    2.2434   -3.9254   -0.1097 O   0  0  0  0  0  0  0  0  0  0  0  0
    2.6442   -3.7429    1.2365 C   0  0  0  0  0  0  0  0  0  0  0  0
    2.8335    0.1193    1.6663 C   0  0  0  0  0  0  0  0  0  0  0  0
    1.7380    1.1969    1.8469 C   0  0  0  0  0  0  0  0  0  0  0  0
   -2.7830    3.7633    6.0948 H   0  0  0  0  0  0  0  0  0  0  0  0
   -1.0567    3.3847    6.1706 H   0  0  0  0  0  0  0  0  0  0  0  0
   -2.2616    2.1981    6.6415 H   0  0  0  0  0  0  0  0  0  0  0  0
   -3.0801    2.1532    4.1877 H   0  0  0  0  0  0  0  0  0  0  0  0
   -1.8942    3.3356    3.7952 H   0  0  0  0  0  0  0  0  0  0  0  0
   -0.2885   -1.7653    4.8559 H   0  0  0  0  0  0  0  0  0  0  0  0
    2.5778   -1.4655    3.8208 H   0  0  0  0  0  0  0  0  0  0  0  0
    1.2683   -2.4722    3.2108 H   0  0  0  0  0  0  0  0  0  0  0  0
    4.0983   -2.2969    1.9353 H   0  0  0  0  0  0  0  0  0  0  0  0
    3.1408   -1.2981   -0.6910 H   0  0  0  0  0  0  0  0  0  0  0  0
    4.7458   -1.9132   -0.2757 H   0  0  0  0  0  0  0  0  0  0  0  0
    2.9292   -3.2045   -1.9250 H   0  0  0  0  0  0  0  0  0  0  0  0
    4.1071   -4.1111   -0.9434 H   0  0  0  0  0  0  0  0  0  0  0  0
    3.4251   -4.4738    1.4721 H   0  0  0  0  0  0  0  0  0  0  0  0
    1.8118   -3.9511    1.9056 H   0  0  0  0  0  0  0  0  0  0  0  0
    3.5955    0.2236    2.4425 H   0  0  0  0  0  0  0  0  0  0  0  0
    3.3380    0.3361    0.7248 H   0  0  0  0  0  0  0  0  0  0  0  0
    1.2017    1.3313    0.9024 H   0  0  0  0  0  0  0  0  0  0  0  0
    2.2154    2.1544    2.0831 H   0  0  0  0  0  0  0  0  0  0  0  0
    1.4995   -1.2787    1.0506 H   0  0  0  0  0  0  0  0  0  0  0  0
  1  2  1  0
  1 19  1  0
  1 20  1  0
  1 21  1  0
  2  3  1  0
  2 22  1  0
  2 23  1  0
  3  8  1  0
  3  4  1  0
  4  5  2  0
  5 18  1  0
  5  6  1  0
  6  7  2  0
  6 10  1  0
  7  8  1  0
  7 24  1  0
  8  9  2  0
 10 11  1  0
 10 25  1  0
 10 26  1  0
 11 12  1  0
 11 17  1  0
 11 38  1  6
 12 16  1  0
 12 13  1  0
 12 27  1  1
 13 14  1  0
 13 28  1  0
 13 29  1  0
 14 15  1  0
 14 30  1  0
 14 31  1  0
 15 16  1  0
 16 32  1  0
 16 33  1  0
 17 18  1  0
 17 34  1  0
 17 35  1  0
 18 36  1  0
 18 37  1  0
M  CHG  1  11   1
M  END
>  <i_m_ct_stereo_status>  (250) 
1

>  <s_m_source_file>  (250) 
/var/tmp/pbs.5076255.sched01/tmph8v5ro6p/78zitxkb1g.sdf

>  <i_m_source_file_index>  (250) 
35

>  <i_lp_mmshare_version>  (250) 
48012

>  <i_f3d_flags>  (250) 
0

>  <s_epik_input>  (250) 
W0NIM11bQ0gyXW4objEpYyg9TylbY0hdYyhjMTIpW0NIMl1OKFtDSDJdW0NIMl0yKVtDQEBIXTNbQ0gyXVtDSDJdT1tDSDJdMw==

>  <s_epik_cmdline>  (250) 
J2VwaWtfcHl0aG9uJywgJy1waHQnLCAnMi4wJywgJy1waCcsICc3LjAnLCAnLXRuJywgJzgnLCAnLW1hJywgJzIwMCcsICctaW1hZScsICc8aW5maWxlLm1hZT4nLCAnLW9tYWUnLCAnPG91dGZpbGUubWFlPic=

>  <r_lp_tautomer_probability>  (250) 
1

>  <r_epik_Ionization_Penalty>  (250) 
0.133942

>  <r_epik_Ionization_Penalty_Charging>  (250) 
0.133942

>  <r_epik_Ionization_Penalty_Neutral>  (250) 
1.91549e-13

>  <r_epik_State_Penalty>  (250) 
0.123308

>  <r_epik_Charging_Adjusted_Penalty>  (250) 
0.257249

>  <i_epik_Tot_Q>  (250) 
1

>  <i_epik_Tot_abs_Q>  (250) 
1

>  <s_lp_Force_Field>  (250) 
OPLS3e

>  <r_lp_Energy>  (250) 
36.4207

>  <b_lp_Chiralities_Consistent>  (250) 
1

>  <s_lp_Variant>  (250) 
87:0-1

>  <s_i_glide_gridfile>  (250) 
pfpi4k_grid

>  <i_i_glide_lignum>  (250) 
35

>  <i_i_glide_rotatable_bonds>  (250) 
2

>  <r_i_docking_score>  (250) 
-3.84639

>  <r_i_glide_ligand_efficiency>  (250) 
-0.213688

>  <r_i_glide_ligand_efficiency_sa>  (250) 
-0.560022

>  <r_i_glide_ligand_efficiency_ln>  (250) 
-0.988695

>  <r_i_glide_gscore>  (250) 
-3.84639

>  <r_i_glide_lipo>  (250) 
-0.123348

>  <r_i_glide_hbond>  (250) 
-0.248831

>  <r_i_glide_metal>  (250) 
-0

>  <r_i_glide_rewards>  (250) 
-1.70239

>  <r_i_glide_evdw>  (250) 
-19.378

>  <r_i_glide_ecoul>  (250) 
-6.61807

>  <r_i_glide_erotb>  (250) 
0.279393

>  <r_i_glide_esite>  (250) 
-0.0896068

>  <r_i_glide_emodel>  (250) 
-33.3078

>  <r_i_glide_energy>  (250) 
-25.9961

>  <r_i_glide_einternal>  (250) 
0.687811

>  <r_i_glide_intrahb_reward>  (250) 
-0

>  <i_i_glide_confnum>  (250) 
4

>  <i_i_glide_posenum>  (250) 
20

>  <r_i_glide_eff_state_penalty>  (250) 
0

>  <ligand_id>  (250) 
87

>  <original_smiles>  (250) 
CCn1nc2c(cc1=O)CN(C1CCOC1)CC2

>  <smiles>  (250) 
[H]c1c2c(nn(C([H])([H])C([H])([H])[H])c1=O)C([H])([H])C([H])([H])[N+]([H])(C1([H])C([H])([H])OC([H])([H])C1([H])[H])C2([H])[H]

$$$$
87:0:1
     RDKit          3D

 38 40  0  0  1  0  0  0  0  0999 V2000
   -2.3381    2.8946    3.5766 C   0  0  0  0  0  0  0  0  0  0  0  0
   -1.6040    2.1874    4.7232 C   0  0  0  0  0  0  0  0  0  0  0  0
   -0.7394    1.0943    4.2618 N   0  0  0  0  0  0  0  0  0  0  0  0
    0.2363    1.4715    3.3400 N   0  0  0  0  0  0  0  0  0  0  0  0
    1.0699    0.6121    2.8584 C   0  0  0  0  0  0  0  0  0  0  0  0
    1.0178   -0.7750    3.3110 C   0  0  0  0  0  0  0  0  0  0  0  0
    0.0662   -1.1311    4.2010 C   0  0  0  0  0  0  0  0  0  0  0  0
   -0.8941   -0.1777    4.7465 C   0  0  0  0  0  0  0  0  0  0  0  0
   -1.7512   -0.4997    5.5734 O   0  0  0  0  0  0  0  0  0  0  0  0
    1.9939   -1.7720    2.7229 C   0  0  0  0  0  0  0  0  0  0  0  0
    2.4723   -1.3932    1.3561 N   0  0  2  0  0  0  0  0  0  0  0  0
    3.3684   -2.4174    0.7483 C   0  0  2  0  0  0  0  0  0  0  0  0
    3.7417   -2.0675   -0.7039 C   0  0  0  0  0  0  0  0  0  0  0  0
    3.2529   -3.2473   -1.5389 C   0  0  0  0  0  0  0  0  0  0  0  0
    2.2351   -3.8187   -0.7444 O   0  0  0  0  0  0  0  0  0  0  0  0
    2.7138   -3.8133    0.5846 C   0  0  0  0  0  0  0  0  0  0  0  0
    3.0967   -0.0397    1.4436 C   0  0  0  0  0  0  0  0  0  0  0  0
    2.0627    1.0506    1.8042 C   0  0  0  0  0  0  0  0  0  0  0  0
   -2.9835    3.6787    3.9693 H   0  0  0  0  0  0  0  0  0  0  0  0
   -2.9663    2.2001    3.0202 H   0  0  0  0  0  0  0  0  0  0  0  0
   -1.6459    3.3589    2.8744 H   0  0  0  0  0  0  0  0  0  0  0  0
   -0.9939    2.8981    5.2781 H   0  0  0  0  0  0  0  0  0  0  0  0
   -2.3617    1.8455    5.4273 H   0  0  0  0  0  0  0  0  0  0  0  0
    0.0094   -2.1628    4.5237 H   0  0  0  0  0  0  0  0  0  0  0  0
    2.8468   -1.8649    3.3998 H   0  0  0  0  0  0  0  0  0  0  0  0
    1.4684   -2.7265    2.7440 H   0  0  0  0  0  0  0  0  0  0  0  0
    4.2658   -2.5110    1.3625 H   0  0  0  0  0  0  0  0  0  0  0  0
    3.2235   -1.1817   -1.0784 H   0  0  0  0  0  0  0  0  0  0  0  0
    4.8161   -1.9000   -0.8265 H   0  0  0  0  0  0  0  0  0  0  0  0
    2.8661   -2.9255   -2.5062 H   0  0  0  0  0  0  0  0  0  0  0  0
    4.0492   -3.9757   -1.6938 H   0  0  0  0  0  0  0  0  0  0  0  0
    3.4697   -4.5976    0.6937 H   0  0  0  0  0  0  0  0  0  0  0  0
    1.8960   -4.0690    1.2565 H   0  0  0  0  0  0  0  0  0  0  0  0
    3.8921   -0.0665    2.1893 H   0  0  0  0  0  0  0  0  0  0  0  0
    3.5772    0.2645    0.5149 H   0  0  0  0  0  0  0  0  0  0  0  0
    1.5024    1.3217    0.9068 H   0  0  0  0  0  0  0  0  0  0  0  0
    2.5945    1.9499    2.1314 H   0  0  0  0  0  0  0  0  0  0  0  0
    1.6836   -1.3043    0.7150 H   0  0  0  0  0  0  0  0  0  0  0  0
  1  2  1  0
  1 19  1  0
  1 20  1  0
  1 21  1  0
  2  3  1  0
  2 22  1  0
  2 23  1  0
  3  8  1  0
  3  4  1  0
  4  5  2  0
  5 18  1  0
  5  6  1  0
  6  7  2  0
  6 10  1  0
  7  8  1  0
  7 24  1  0
  8  9  2  0
 10 11  1  0
 10 25  1  0
 10 26  1  0
 11 12  1  0
 11 17  1  0
 11 38  1  6
 12 16  1  0
 12 13  1  0
 12 27  1  1
 13 14  1  0
 13 28  1  0
 13 29  1  0
 14 15  1  0
 14 30  1  0
 14 31  1  0
 15 16  1  0
 16 32  1  0
 16 33  1  0
 17 18  1  0
 17 34  1  0
 17 35  1  0
 18 36  1  0
 18 37  1  0
M  CHG  1  11   1
M  END
>  <i_m_ct_stereo_status>  (251) 
1

>  <s_m_source_file>  (251) 
/var/tmp/pbs.5076255.sched01/tmph8v5ro6p/78zitxkb1g.sdf

>  <i_m_source_file_index>  (251) 
35

>  <i_lp_mmshare_version>  (251) 
48012

>  <i_f3d_flags>  (251) 
0

>  <s_epik_input>  (251) 
W0NIM11bQ0gyXW4objEpYyg9TylbY0hdYyhjMTIpW0NIMl1OKFtDSDJdW0NIMl0yKVtDQEBIXTNbQ0gyXVtDSDJdT1tDSDJdMw==

>  <s_epik_cmdline>  (251) 
J2VwaWtfcHl0aG9uJywgJy1waHQnLCAnMi4wJywgJy1waCcsICc3LjAnLCAnLXRuJywgJzgnLCAnLW1hJywgJzIwMCcsICctaW1hZScsICc8aW5maWxlLm1hZT4nLCAnLW9tYWUnLCAnPG91dGZpbGUubWFlPic=

>  <r_lp_tautomer_probability>  (251) 
1

>  <r_epik_Ionization_Penalty>  (251) 
0.133942

>  <r_epik_Ionization_Penalty_Charging>  (251) 
0.133942

>  <r_epik_Ionization_Penalty_Neutral>  (251) 
1.91549e-13

>  <r_epik_State_Penalty>  (251) 
0.123308

>  <r_epik_Charging_Adjusted_Penalty>  (251) 
0.257249

>  <i_epik_Tot_Q>  (251) 
1

>  <i_epik_Tot_abs_Q>  (251) 
1

>  <s_lp_Force_Field>  (251) 
OPLS3e

>  <r_lp_Energy>  (251) 
36.4207

>  <b_lp_Chiralities_Consistent>  (251) 
1

>  <s_lp_Variant>  (251) 
87:0-1

>  <s_i_glide_gridfile>  (251) 
pfpi4k_grid

>  <i_i_glide_lignum>  (251) 
35

>  <i_i_glide_rotatable_bonds>  (251) 
2

>  <r_i_docking_score>  (251) 
-3.77694

>  <r_i_glide_ligand_efficiency>  (251) 
-0.20983

>  <r_i_glide_ligand_efficiency_sa>  (251) 
-0.54991

>  <r_i_glide_ligand_efficiency_ln>  (251) 
-0.970843

>  <r_i_glide_gscore>  (251) 
-3.77694

>  <r_i_glide_lipo>  (251) 
-0.067682

>  <r_i_glide_hbond>  (251) 
-0.213677

>  <r_i_glide_metal>  (251) 
-0

>  <r_i_glide_rewards>  (251) 
-1.70239

>  <r_i_glide_evdw>  (251) 
-19.8265

>  <r_i_glide_ecoul>  (251) 
-6.58049

>  <r_i_glide_erotb>  (251) 
0.279393

>  <r_i_glide_esite>  (251) 
-0.0941911

>  <r_i_glide_emodel>  (251) 
-33.2781

>  <r_i_glide_energy>  (251) 
-26.407

>  <r_i_glide_einternal>  (251) 
1.24943

>  <r_i_glide_intrahb_reward>  (251) 
-0

>  <i_i_glide_confnum>  (251) 
4

>  <i_i_glide_posenum>  (251) 
7

>  <r_i_glide_eff_state_penalty>  (251) 
0

>  <ligand_id>  (251) 
87

>  <original_smiles>  (251) 
CCn1nc2c(cc1=O)CN(C1CCOC1)CC2

>  <smiles>  (251) 
[H]c1c2c(nn(C([H])([H])C([H])([H])[H])c1=O)C([H])([H])C([H])([H])[N+]([H])(C1([H])C([H])([H])OC([H])([H])C1([H])[H])C2([H])[H]

$$$$
87:0:2
     RDKit          3D

 38 40  0  0  1  0  0  0  0  0999 V2000
   -1.2671    2.3489    6.5197 C   0  0  0  0  0  0  0  0  0  0  0  0
   -1.5366    2.0905    5.0268 C   0  0  0  0  0  0  0  0  0  0  0  0
   -0.6425    1.0694    4.4704 N   0  0  0  0  0  0  0  0  0  0  0  0
    0.3682    1.5575    3.6512 N   0  0  0  0  0  0  0  0  0  0  0  0
    1.1978    0.7510    3.0663 C   0  0  0  0  0  0  0  0  0  0  0  0
    1.0825   -0.6867    3.2929 C   0  0  0  0  0  0  0  0  0  0  0  0
    0.0911   -1.1476    4.0859 C   0  0  0  0  0  0  0  0  0  0  0  0
   -0.8632   -0.2523    4.7334 C   0  0  0  0  0  0  0  0  0  0  0  0
   -1.7830   -0.6516    5.4526 O   0  0  0  0  0  0  0  0  0  0  0  0
    2.0654   -1.6097    2.5947 C   0  0  0  0  0  0  0  0  0  0  0  0
    2.6151   -1.0395    1.3339 N   0  0  2  0  0  0  0  0  0  0  0  0
    3.5411   -1.9757    0.6333 C   0  0  2  0  0  0  0  0  0  0  0  0
    3.8522   -1.5461   -0.8026 C   0  0  0  0  0  0  0  0  0  0  0  0
    3.4494   -2.7365   -1.6680 C   0  0  0  0  0  0  0  0  0  0  0  0
    3.5189   -3.8378   -0.7779 O   0  0  0  0  0  0  0  0  0  0  0  0
    2.9574   -3.3867    0.4360 C   0  0  0  0  0  0  0  0  0  0  0  0
    3.2553    0.2682    1.6387 C   0  0  0  0  0  0  0  0  0  0  0  0
    2.2453    1.3265    2.1407 C   0  0  0  0  0  0  0  0  0  0  0  0
   -1.9612    3.0875    6.9200 H   0  0  0  0  0  0  0  0  0  0  0  0
   -0.2538    2.7171    6.6796 H   0  0  0  0  0  0  0  0  0  0  0  0
   -1.3852    1.4456    7.1176 H   0  0  0  0  0  0  0  0  0  0  0  0
   -2.5750    1.7823    4.8939 H   0  0  0  0  0  0  0  0  0  0  0  0
   -1.4415    3.0241    4.4708 H   0  0  0  0  0  0  0  0  0  0  0  0
   -0.0082   -2.2154    4.2412 H   0  0  0  0  0  0  0  0  0  0  0  0
    2.8780   -1.8343    3.2865 H   0  0  0  0  0  0  0  0  0  0  0  0
    1.5378   -2.5414    2.4161 H   0  0  0  0  0  0  0  0  0  0  0  0
    4.4808   -2.0805    1.1945 H   0  0  0  0  0  0  0  0  0  0  0  0
    3.3196   -0.6595   -1.1356 H   0  0  0  0  0  0  0  0  0  0  0  0
    4.9195   -1.3529   -0.8953 H   0  0  0  0  0  0  0  0  0  0  0  0
    2.4273   -2.6109   -2.0303 H   0  0  0  0  0  0  0  0  0  0  0  0
    4.1039   -2.8828   -2.5277 H   0  0  0  0  0  0  0  0  0  0  0  0
    3.1952   -4.0654    1.2580 H   0  0  0  0  0  0  0  0  0  0  0  0
    1.8760   -3.3561    0.3089 H   0  0  0  0  0  0  0  0  0  0  0  0
    4.0290    0.1106    2.3919 H   0  0  0  0  0  0  0  0  0  0  0  0
    3.7806    0.6612    0.7715 H   0  0  0  0  0  0  0  0  0  0  0  0
    1.7385    1.7776    1.2873 H   0  0  0  0  0  0  0  0  0  0  0  0
    2.7952    2.1296    2.6358 H   0  0  0  0  0  0  0  0  0  0  0  0
    1.8483   -0.8762    0.6819 H   0  0  0  0  0  0  0  0  0  0  0  0
  1  2  1  0
  1 19  1  0
  1 20  1  0
  1 21  1  0
  2  3  1  0
  2 22  1  0
  2 23  1  0
  3  8  1  0
  3  4  1  0
  4  5  2  0
  5 18  1  0
  5  6  1  0
  6  7  2  0
  6 10  1  0
  7  8  1  0
  7 24  1  0
  8  9  2  0
 10 11  1  0
 10 25  1  0
 10 26  1  0
 11 12  1  0
 11 17  1  0
 11 38  1  6
 12 16  1  0
 12 13  1  0
 12 27  1  1
 13 14  1  0
 13 28  1  0
 13 29  1  0
 14 15  1  0
 14 30  1  0
 14 31  1  0
 15 16  1  0
 16 32  1  0
 16 33  1  0
 17 18  1  0
 17 34  1  0
 17 35  1  0
 18 36  1  0
 18 37  1  0
M  CHG  1  11   1
M  END
>  <i_m_ct_stereo_status>  (252) 
1

>  <s_m_source_file>  (252) 
/var/tmp/pbs.5076255.sched01/tmph8v5ro6p/78zitxkb1g.sdf

>  <i_m_source_file_index>  (252) 
35

>  <i_lp_mmshare_version>  (252) 
48012

>  <i_f3d_flags>  (252) 
0

>  <s_epik_input>  (252) 
W0NIM11bQ0gyXW4objEpYyg9TylbY0hdYyhjMTIpW0NIMl1OKFtDSDJdW0NIMl0yKVtDQEBIXTNbQ0gyXVtDSDJdT1tDSDJdMw==

>  <s_epik_cmdline>  (252) 
J2VwaWtfcHl0aG9uJywgJy1waHQnLCAnMi4wJywgJy1waCcsICc3LjAnLCAnLXRuJywgJzgnLCAnLW1hJywgJzIwMCcsICctaW1hZScsICc8aW5maWxlLm1hZT4nLCAnLW9tYWUnLCAnPG91dGZpbGUubWFlPic=

>  <r_lp_tautomer_probability>  (252) 
1

>  <r_epik_Ionization_Penalty>  (252) 
0.133942

>  <r_epik_Ionization_Penalty_Charging>  (252) 
0.133942

>  <r_epik_Ionization_Penalty_Neutral>  (252) 
1.91549e-13

>  <r_epik_State_Penalty>  (252) 
0.123308

>  <r_epik_Charging_Adjusted_Penalty>  (252) 
0.257249

>  <i_epik_Tot_Q>  (252) 
1

>  <i_epik_Tot_abs_Q>  (252) 
1

>  <s_lp_Force_Field>  (252) 
OPLS3e

>  <r_lp_Energy>  (252) 
36.4207

>  <b_lp_Chiralities_Consistent>  (252) 
1

>  <s_lp_Variant>  (252) 
87:0-1

>  <s_i_glide_gridfile>  (252) 
pfpi4k_grid

>  <i_i_glide_lignum>  (252) 
35

>  <i_i_glide_rotatable_bonds>  (252) 
2

>  <r_i_docking_score>  (252) 
-3.68717

>  <r_i_glide_ligand_efficiency>  (252) 
-0.204843

>  <r_i_glide_ligand_efficiency_sa>  (252) 
-0.536839

>  <r_i_glide_ligand_efficiency_ln>  (252) 
-0.947767

>  <r_i_glide_gscore>  (252) 
-3.68717

>  <r_i_glide_lipo>  (252) 
-0.0812669

>  <r_i_glide_hbond>  (252) 
-0.2

>  <r_i_glide_metal>  (252) 
-0

>  <r_i_glide_rewards>  (252) 
-1.70239

>  <r_i_glide_evdw>  (252) 
-18.8749

>  <r_i_glide_ecoul>  (252) 
-6.36186

>  <r_i_glide_erotb>  (252) 
0.279393

>  <r_i_glide_esite>  (252) 
-0.0848799

>  <r_i_glide_emodel>  (252) 
-32.6491

>  <r_i_glide_energy>  (252) 
-25.2368

>  <r_i_glide_einternal>  (252) 
0.236878

>  <r_i_glide_intrahb_reward>  (252) 
-0

>  <i_i_glide_confnum>  (252) 
1

>  <i_i_glide_posenum>  (252) 
1

>  <r_i_glide_eff_state_penalty>  (252) 
0

>  <ligand_id>  (252) 
87

>  <original_smiles>  (252) 
CCn1nc2c(cc1=O)CN(C1CCOC1)CC2

>  <smiles>  (252) 
[H]c1c2c(nn(C([H])([H])C([H])([H])[H])c1=O)C([H])([H])C([H])([H])[N+]([H])(C1([H])C([H])([H])OC([H])([H])C1([H])[H])C2([H])[H]

$$$$
87:1:0
     RDKit          3D

 37 39  0  0  1  0  0  0  0  0999 V2000
    3.7988   -0.5182   -3.2080 C   0  0  0  0  0  0  0  0  0  0  0  0
    4.6900   -0.7112   -1.9730 C   0  0  0  0  0  0  0  0  0  0  0  0
    4.3799   -1.9362   -1.2399 N   0  0  0  0  0  0  0  0  0  0  0  0
    3.6999   -1.7617   -0.0448 N   0  0  0  0  0  0  0  0  0  0  0  0
    3.3893   -2.7599    0.7037 C   0  0  0  0  0  0  0  0  0  0  0  0
    3.7860   -4.1106    0.3134 C   0  0  0  0  0  0  0  0  0  0  0  0
    4.4491   -4.2714   -0.8469 C   0  0  0  0  0  0  0  0  0  0  0  0
    4.7941   -3.1524   -1.7335 C   0  0  0  0  0  0  0  0  0  0  0  0
    5.4076   -3.2743   -2.7771 O   0  0  0  0  0  0  0  0  0  0  0  0
    3.3879   -5.2768    1.1910 C   0  0  0  0  0  0  0  0  0  0  0  0
    2.1643   -5.0219    1.9687 N   0  0  0  0  0  0  0  0  0  0  0  0
    1.7625   -6.2033    2.7572 C   0  0  2  0  0  0  0  0  0  0  0  0
    1.5135   -7.4761    1.9209 C   0  0  0  0  0  0  0  0  0  0  0  0
    0.0776   -7.8972    2.2066 C   0  0  0  0  0  0  0  0  0  0  0  0
   -0.5339   -6.7102    2.6534 O   0  0  0  0  0  0  0  0  0  0  0  0
    0.4138   -6.0848    3.5082 C   0  0  0  0  0  0  0  0  0  0  0  0
    2.3748   -3.8091    2.7803 C   0  0  0  0  0  0  0  0  0  0  0  0
    2.5906   -2.5230    1.9660 C   0  0  0  0  0  0  0  0  0  0  0  0
    4.0663    0.3975   -3.7259 H   0  0  0  0  0  0  0  0  0  0  0  0
    2.7515   -0.4483   -2.9244 H   0  0  0  0  0  0  0  0  0  0  0  0
    3.8950   -1.3345   -3.9200 H   0  0  0  0  0  0  0  0  0  0  0  0
    5.7326   -0.7567   -2.2809 H   0  0  0  0  0  0  0  0  0  0  0  0
    4.6141    0.1321   -1.3100 H   0  0  0  0  0  0  0  0  0  0  0  0
    4.7083   -5.2756   -1.1634 H   0  0  0  0  0  0  0  0  0  0  0  0
    3.2964   -6.1392    0.5364 H   0  0  0  0  0  0  0  0  0  0  0  0
    4.2190   -5.4877    1.8602 H   0  0  0  0  0  0  0  0  0  0  0  0
    2.5458   -6.4067    3.4875 H   0  0  0  0  0  0  0  0  0  0  0  0
    1.5567   -7.2966    0.8472 H   0  0  0  0  0  0  0  0  0  0  0  0
    2.2301   -8.2695    2.1509 H   0  0  0  0  0  0  0  0  0  0  0  0
   -0.4149   -8.2585    1.3068 H   0  0  0  0  0  0  0  0  0  0  0  0
    0.0343   -8.6538    2.9888 H   0  0  0  0  0  0  0  0  0  0  0  0
    0.4624   -6.6329    4.4550 H   0  0  0  0  0  0  0  0  0  0  0  0
    0.0704   -5.0776    3.7421 H   0  0  0  0  0  0  0  0  0  0  0  0
    1.5288   -3.5917    3.4261 H   0  0  0  0  0  0  0  0  0  0  0  0
    3.2203   -3.9755    3.4396 H   0  0  0  0  0  0  0  0  0  0  0  0
    3.0899   -1.7843    2.5923 H   0  0  0  0  0  0  0  0  0  0  0  0
    1.6214   -2.0967    1.6975 H   0  0  0  0  0  0  0  0  0  0  0  0
  1  2  1  0
  1 19  1  0
  1 20  1  0
  1 21  1  0
  2  3  1  0
  2 22  1  0
  2 23  1  0
  3  8  1  0
  3  4  1  0
  4  5  2  0
  5 18  1  0
  5  6  1  0
  6  7  2  0
  6 10  1  0
  7  8  1  0
  7 24  1  0
  8  9  2  0
 10 11  1  0
 10 25  1  0
 10 26  1  0
 11 12  1  0
 11 17  1  0
 12 16  1  0
 12 13  1  0
 12 27  1  1
 13 14  1  0
 13 28  1  0
 13 29  1  0
 14 15  1  0
 14 30  1  0
 14 31  1  0
 15 16  1  0
 16 32  1  0
 16 33  1  0
 17 18  1  0
 17 34  1  0
 17 35  1  0
 18 36  1  0
 18 37  1  0
M  END
>  <i_m_ct_stereo_status>  (253) 
1

>  <s_m_source_file>  (253) 
/var/tmp/pbs.5076255.sched01/tmph8v5ro6p/78zitxkb1g.sdf

>  <i_m_source_file_index>  (253) 
36

>  <i_lp_mmshare_version>  (253) 
48012

>  <i_f3d_flags>  (253) 
0

>  <s_epik_input>  (253) 
W0NIM11bQ0gyXW4objEpYyg9TylbY0hdYyhjMTIpW0NIMl1OKFtDSDJdW0NIMl0yKVtDQEBIXTNbQ0gyXVtDSDJdT1tDSDJdMw==

>  <s_epik_cmdline>  (253) 
J2VwaWtfcHl0aG9uJywgJy1waHQnLCAnMi4wJywgJy1waCcsICc3LjAnLCAnLXRuJywgJzgnLCAnLW1hJywgJzIwMCcsICctaW1hZScsICc8aW5maWxlLm1hZT4nLCAnLW9tYWUnLCAnPG91dGZpbGUubWFlPic=

>  <r_lp_tautomer_probability>  (253) 
1

>  <r_epik_Ionization_Penalty>  (253) 
0.946691

>  <r_epik_Ionization_Penalty_Charging>  (253) 
1.00361e-07

>  <r_epik_Ionization_Penalty_Neutral>  (253) 
0.946691

>  <r_epik_State_Penalty>  (253) 
0.990576

>  <r_epik_Charging_Adjusted_Penalty>  (253) 
0.990576

>  <i_epik_Tot_Q>  (253) 
0

>  <i_epik_Tot_abs_Q>  (253) 
0

>  <s_lp_Force_Field>  (253) 
OPLS3e

>  <r_lp_Energy>  (253) 
24.243

>  <b_lp_Chiralities_Consistent>  (253) 
1

>  <s_lp_Variant>  (253) 
87:0-2

>  <s_i_glide_gridfile>  (253) 
pfpi4k_grid

>  <i_i_glide_lignum>  (253) 
36

>  <i_i_glide_rotatable_bonds>  (253) 
2

>  <r_i_docking_score>  (253) 
-3.51743

>  <r_i_glide_ligand_efficiency>  (253) 
-0.195413

>  <r_i_glide_ligand_efficiency_sa>  (253) 
-0.512127

>  <r_i_glide_ligand_efficiency_ln>  (253) 
-0.904138

>  <r_i_glide_gscore>  (253) 
-3.51743

>  <r_i_glide_lipo>  (253) 
-0.201435

>  <r_i_glide_hbond>  (253) 
-0.16

>  <r_i_glide_metal>  (253) 
-0

>  <r_i_glide_rewards>  (253) 
-1.70926

>  <r_i_glide_evdw>  (253) 
-21.0266

>  <r_i_glide_ecoul>  (253) 
-4.2983

>  <r_i_glide_erotb>  (253) 
0.281332

>  <r_i_glide_esite>  (253) 
-0.0319934

>  <r_i_glide_emodel>  (253) 
-30.786

>  <r_i_glide_energy>  (253) 
-25.3249

>  <r_i_glide_einternal>  (253) 
0.0695198

>  <r_i_glide_intrahb_reward>  (253) 
-0

>  <i_i_glide_confnum>  (253) 
3

>  <i_i_glide_posenum>  (253) 
1

>  <r_i_glide_eff_state_penalty>  (253) 
0

>  <ligand_id>  (253) 
87

>  <original_smiles>  (253) 
CCn1nc2c(cc1=O)CN(C1CCOC1)CC2

>  <smiles>  (253) 
[H]c1c2c(nn(C([H])([H])C([H])([H])[H])c1=O)C([H])([H])C([H])([H])N(C1([H])C([H])([H])OC([H])([H])C1([H])[H])C2([H])[H]

$$$$
87:1:1
     RDKit          3D

 37 39  0  0  1  0  0  0  0  0999 V2000
    2.8595   -0.2452   -4.0060 C   0  0  0  0  0  0  0  0  0  0  0  0
    4.2543   -0.5058   -3.4585 C   0  0  0  0  0  0  0  0  0  0  0  0
    4.2959   -1.5424   -2.4173 N   0  0  0  0  0  0  0  0  0  0  0  0
    4.1784   -1.0641   -1.1165 N   0  0  0  0  0  0  0  0  0  0  0  0
    4.1910   -1.8749   -0.1064 C   0  0  0  0  0  0  0  0  0  0  0  0
    4.3923   -3.3014   -0.3346 C   0  0  0  0  0  0  0  0  0  0  0  0
    4.5173   -3.7465   -1.6009 C   0  0  0  0  0  0  0  0  0  0  0  0
    4.4647   -2.8505   -2.7550 C   0  0  0  0  0  0  0  0  0  0  0  0
    4.5838   -3.2360   -3.9191 O   0  0  0  0  0  0  0  0  0  0  0  0
    4.3945   -4.2344    0.8603 C   0  0  0  0  0  0  0  0  0  0  0  0
    3.6074   -3.7291    1.9899 N   0  0  0  0  0  0  0  0  0  0  0  0
    3.6010   -4.6845    3.1078 C   0  0  2  0  0  0  0  0  0  0  0  0
    2.9734   -6.0496    2.7791 C   0  0  0  0  0  0  0  0  0  0  0  0
    1.8813   -6.2499    3.8186 C   0  0  0  0  0  0  0  0  0  0  0  0
    2.2936   -5.4441    4.9031 O   0  0  0  0  0  0  0  0  0  0  0  0
    2.7846   -4.2435    4.3358 C   0  0  0  0  0  0  0  0  0  0  0  0
    4.1114   -2.4013    2.3735 C   0  0  0  0  0  0  0  0  0  0  0  0
    3.9746   -1.3181    1.2798 C   0  0  0  0  0  0  0  0  0  0  0  0
    2.9010    0.5147   -4.7882 H   0  0  0  0  0  0  0  0  0  0  0  0
    2.2191    0.1324   -3.2117 H   0  0  0  0  0  0  0  0  0  0  0  0
    2.4129   -1.1412   -4.4266 H   0  0  0  0  0  0  0  0  0  0  0  0
    4.9024   -0.7862   -4.2920 H   0  0  0  0  0  0  0  0  0  0  0  0
    4.6290    0.4278   -3.0528 H   0  0  0  0  0  0  0  0  0  0  0  0
    4.6425   -4.8098   -1.7705 H   0  0  0  0  0  0  0  0  0  0  0  0
    4.0321   -5.2043    0.5291 H   0  0  0  0  0  0  0  0  0  0  0  0
    5.4332   -4.3824    1.1591 H   0  0  0  0  0  0  0  0  0  0  0  0
    4.6258   -4.8585    3.4405 H   0  0  0  0  0  0  0  0  0  0  0  0
    2.5369   -6.1308    1.7825 H   0  0  0  0  0  0  0  0  0  0  0  0
    3.7434   -6.8153    2.8719 H   0  0  0  0  0  0  0  0  0  0  0  0
    0.9287   -5.8862    3.4277 H   0  0  0  0  0  0  0  0  0  0  0  0
    1.7651   -7.2925    4.1067 H   0  0  0  0  0  0  0  0  0  0  0  0
    3.3850   -3.6906    5.0625 H   0  0  0  0  0  0  0  0  0  0  0  0
    1.9347   -3.6204    4.0400 H   0  0  0  0  0  0  0  0  0  0  0  0
    3.5853   -2.0265    3.2481 H   0  0  0  0  0  0  0  0  0  0  0  0
    5.1590   -2.4864    2.6637 H   0  0  0  0  0  0  0  0  0  0  0  0
    4.6855   -0.5145    1.4785 H   0  0  0  0  0  0  0  0  0  0  0  0
    2.9808   -0.8690    1.3327 H   0  0  0  0  0  0  0  0  0  0  0  0
  1  2  1  0
  1 19  1  0
  1 20  1  0
  1 21  1  0
  2  3  1  0
  2 22  1  0
  2 23  1  0
  3  8  1  0
  3  4  1  0
  4  5  2  0
  5 18  1  0
  5  6  1  0
  6  7  2  0
  6 10  1  0
  7  8  1  0
  7 24  1  0
  8  9  2  0
 10 11  1  0
 10 25  1  0
 10 26  1  0
 11 12  1  0
 11 17  1  0
 12 16  1  0
 12 13  1  0
 12 27  1  1
 13 14  1  0
 13 28  1  0
 13 29  1  0
 14 15  1  0
 14 30  1  0
 14 31  1  0
 15 16  1  0
 16 32  1  0
 16 33  1  0
 17 18  1  0
 17 34  1  0
 17 35  1  0
 18 36  1  0
 18 37  1  0
M  END
>  <i_m_ct_stereo_status>  (254) 
1

>  <s_m_source_file>  (254) 
/var/tmp/pbs.5076255.sched01/tmph8v5ro6p/78zitxkb1g.sdf

>  <i_m_source_file_index>  (254) 
36

>  <i_lp_mmshare_version>  (254) 
48012

>  <i_f3d_flags>  (254) 
0

>  <s_epik_input>  (254) 
W0NIM11bQ0gyXW4objEpYyg9TylbY0hdYyhjMTIpW0NIMl1OKFtDSDJdW0NIMl0yKVtDQEBIXTNbQ0gyXVtDSDJdT1tDSDJdMw==

>  <s_epik_cmdline>  (254) 
J2VwaWtfcHl0aG9uJywgJy1waHQnLCAnMi4wJywgJy1waCcsICc3LjAnLCAnLXRuJywgJzgnLCAnLW1hJywgJzIwMCcsICctaW1hZScsICc8aW5maWxlLm1hZT4nLCAnLW9tYWUnLCAnPG91dGZpbGUubWFlPic=

>  <r_lp_tautomer_probability>  (254) 
1

>  <r_epik_Ionization_Penalty>  (254) 
0.946691

>  <r_epik_Ionization_Penalty_Charging>  (254) 
1.00361e-07

>  <r_epik_Ionization_Penalty_Neutral>  (254) 
0.946691

>  <r_epik_State_Penalty>  (254) 
0.990576

>  <r_epik_Charging_Adjusted_Penalty>  (254) 
0.990576

>  <i_epik_Tot_Q>  (254) 
0

>  <i_epik_Tot_abs_Q>  (254) 
0

>  <s_lp_Force_Field>  (254) 
OPLS3e

>  <r_lp_Energy>  (254) 
24.243

>  <b_lp_Chiralities_Consistent>  (254) 
1

>  <s_lp_Variant>  (254) 
87:0-2

>  <s_i_glide_gridfile>  (254) 
pfpi4k_grid

>  <i_i_glide_lignum>  (254) 
36

>  <i_i_glide_rotatable_bonds>  (254) 
2

>  <r_i_docking_score>  (254) 
-3.30608

>  <r_i_glide_ligand_efficiency>  (254) 
-0.183671

>  <r_i_glide_ligand_efficiency_sa>  (254) 
-0.481354

>  <r_i_glide_ligand_efficiency_ln>  (254) 
-0.84981

>  <r_i_glide_gscore>  (254) 
-3.30608

>  <r_i_glide_lipo>  (254) 
-0.53089

>  <r_i_glide_hbond>  (254) 
-0.0249757

>  <r_i_glide_metal>  (254) 
-0

>  <r_i_glide_rewards>  (254) 
-1.70926

>  <r_i_glide_evdw>  (254) 
-20.8129

>  <r_i_glide_ecoul>  (254) 
-1.67535

>  <r_i_glide_erotb>  (254) 
0.281332

>  <r_i_glide_esite>  (254) 
-0.0303398

>  <r_i_glide_emodel>  (254) 
-27.8036

>  <r_i_glide_energy>  (254) 
-22.4882

>  <r_i_glide_einternal>  (254) 
0.103624

>  <r_i_glide_intrahb_reward>  (254) 
-0

>  <i_i_glide_confnum>  (254) 
1

>  <i_i_glide_posenum>  (254) 
38

>  <r_i_glide_eff_state_penalty>  (254) 
0

>  <ligand_id>  (254) 
87

>  <original_smiles>  (254) 
CCn1nc2c(cc1=O)CN(C1CCOC1)CC2

>  <smiles>  (254) 
[H]c1c2c(nn(C([H])([H])C([H])([H])[H])c1=O)C([H])([H])C([H])([H])N(C1([H])C([H])([H])OC([H])([H])C1([H])[H])C2([H])[H]

$$$$
87:1:2
     RDKit          3D

 37 39  0  0  1  0  0  0  0  0999 V2000
    5.7507   -0.8394    0.4407 C   0  0  0  0  0  0  0  0  0  0  0  0
    4.2923   -1.0932    0.0275 C   0  0  0  0  0  0  0  0  0  0  0  0
    3.8293   -2.4217    0.4494 N   0  0  0  0  0  0  0  0  0  0  0  0
    3.1126   -2.4536    1.6396 N   0  0  0  0  0  0  0  0  0  0  0  0
    2.6607   -3.5576    2.1166 C   0  0  0  0  0  0  0  0  0  0  0  0
    2.9070   -4.8107    1.4015 C   0  0  0  0  0  0  0  0  0  0  0  0
    3.5851   -4.7627    0.2367 C   0  0  0  0  0  0  0  0  0  0  0  0
    4.1131   -3.5171   -0.3245 C   0  0  0  0  0  0  0  0  0  0  0  0
    4.7588   -3.4552   -1.3604 O   0  0  0  0  0  0  0  0  0  0  0  0
    2.3407   -6.0945    1.9681 C   0  0  0  0  0  0  0  0  0  0  0  0
    1.1174   -5.8894    2.7571 N   0  0  0  0  0  0  0  0  0  0  0  0
    0.5605   -7.1708    3.2340 C   0  0  2  0  0  0  0  0  0  0  0  0
    0.2219   -8.1687    2.1060 C   0  0  0  0  0  0  0  0  0  0  0  0
   -1.2598   -8.4839    2.2637 C   0  0  0  0  0  0  0  0  0  0  0  0
   -1.7586   -7.3608    2.9641 O   0  0  0  0  0  0  0  0  0  0  0  0
   -0.7971   -7.0730    3.9673 C   0  0  0  0  0  0  0  0  0  0  0  0
    1.4294   -4.9498    3.8528 C   0  0  0  0  0  0  0  0  0  0  0  0
    1.8350   -3.5377    3.3826 C   0  0  0  0  0  0  0  0  0  0  0  0
    6.0809    0.1371    0.0917 H   0  0  0  0  0  0  0  0  0  0  0  0
    6.4226   -1.5834    0.0172 H   0  0  0  0  0  0  0  0  0  0  0  0
    5.8624   -0.8664    1.5211 H   0  0  0  0  0  0  0  0  0  0  0  0
    3.6384   -0.3253    0.4418 H   0  0  0  0  0  0  0  0  0  0  0  0
    4.1951   -0.9956   -1.0563 H   0  0  0  0  0  0  0  0  0  0  0  0
    3.7449   -5.6813   -0.3196 H   0  0  0  0  0  0  0  0  0  0  0  0
    2.1822   -6.7687    1.1278 H   0  0  0  0  0  0  0  0  0  0  0  0
    3.1153   -6.5571    2.5838 H   0  0  0  0  0  0  0  0  0  0  0  0
    1.2849   -7.6266    3.9048 H   0  0  0  0  0  0  0  0  0  0  0  0
    0.3438   -7.7470    1.1064 H   0  0  0  0  0  0  0  0  0  0  0  0
    0.8337   -9.0730    2.1578 H   0  0  0  0  0  0  0  0  0  0  0  0
   -1.7386   -8.5940    1.2920 H   0  0  0  0  0  0  0  0  0  0  0  0
   -1.4220   -9.3906    2.8481 H   0  0  0  0  0  0  0  0  0  0  0  0
   -0.8562   -7.8407    4.7470 H   0  0  0  0  0  0  0  0  0  0  0  0
   -1.0279   -6.1103    4.4324 H   0  0  0  0  0  0  0  0  0  0  0  0
    0.5809   -4.8150    4.5165 H   0  0  0  0  0  0  0  0  0  0  0  0
    2.2312   -5.3707    4.4586 H   0  0  0  0  0  0  0  0  0  0  0  0
    2.3855   -3.0380    4.1794 H   0  0  0  0  0  0  0  0  0  0  0  0
    0.9326   -2.9500    3.2116 H   0  0  0  0  0  0  0  0  0  0  0  0
  1  2  1  0
  1 19  1  0
  1 20  1  0
  1 21  1  0
  2  3  1  0
  2 22  1  0
  2 23  1  0
  3  8  1  0
  3  4  1  0
  4  5  2  0
  5 18  1  0
  5  6  1  0
  6  7  2  0
  6 10  1  0
  7  8  1  0
  7 24  1  0
  8  9  2  0
 10 11  1  0
 10 25  1  0
 10 26  1  0
 11 12  1  0
 11 17  1  0
 12 16  1  0
 12 13  1  0
 12 27  1  1
 13 14  1  0
 13 28  1  0
 13 29  1  0
 14 15  1  0
 14 30  1  0
 14 31  1  0
 15 16  1  0
 16 32  1  0
 16 33  1  0
 17 18  1  0
 17 34  1  0
 17 35  1  0
 18 36  1  0
 18 37  1  0
M  END
>  <i_m_ct_stereo_status>  (255) 
1

>  <s_m_source_file>  (255) 
/var/tmp/pbs.5076255.sched01/tmph8v5ro6p/78zitxkb1g.sdf

>  <i_m_source_file_index>  (255) 
36

>  <i_lp_mmshare_version>  (255) 
48012

>  <i_f3d_flags>  (255) 
0

>  <s_epik_input>  (255) 
W0NIM11bQ0gyXW4objEpYyg9TylbY0hdYyhjMTIpW0NIMl1OKFtDSDJdW0NIMl0yKVtDQEBIXTNbQ0gyXVtDSDJdT1tDSDJdMw==

>  <s_epik_cmdline>  (255) 
J2VwaWtfcHl0aG9uJywgJy1waHQnLCAnMi4wJywgJy1waCcsICc3LjAnLCAnLXRuJywgJzgnLCAnLW1hJywgJzIwMCcsICctaW1hZScsICc8aW5maWxlLm1hZT4nLCAnLW9tYWUnLCAnPG91dGZpbGUubWFlPic=

>  <r_lp_tautomer_probability>  (255) 
1

>  <r_epik_Ionization_Penalty>  (255) 
0.946691

>  <r_epik_Ionization_Penalty_Charging>  (255) 
1.00361e-07

>  <r_epik_Ionization_Penalty_Neutral>  (255) 
0.946691

>  <r_epik_State_Penalty>  (255) 
0.990576

>  <r_epik_Charging_Adjusted_Penalty>  (255) 
0.990576

>  <i_epik_Tot_Q>  (255) 
0

>  <i_epik_Tot_abs_Q>  (255) 
0

>  <s_lp_Force_Field>  (255) 
OPLS3e

>  <r_lp_Energy>  (255) 
24.243

>  <b_lp_Chiralities_Consistent>  (255) 
1

>  <s_lp_Variant>  (255) 
87:0-2

>  <s_i_glide_gridfile>  (255) 
pfpi4k_grid

>  <i_i_glide_lignum>  (255) 
36

>  <i_i_glide_rotatable_bonds>  (255) 
2

>  <r_i_docking_score>  (255) 
-3.20485

>  <r_i_glide_ligand_efficiency>  (255) 
-0.178047

>  <r_i_glide_ligand_efficiency_sa>  (255) 
-0.466616

>  <r_i_glide_ligand_efficiency_ln>  (255) 
-0.823791

>  <r_i_glide_gscore>  (255) 
-3.20485

>  <r_i_glide_lipo>  (255) 
-0.161217

>  <r_i_glide_hbond>  (255) 
-0.0675093

>  <r_i_glide_metal>  (255) 
-0

>  <r_i_glide_rewards>  (255) 
-1.70926

>  <r_i_glide_evdw>  (255) 
-20.6855

>  <r_i_glide_ecoul>  (255) 
-3.30436

>  <r_i_glide_erotb>  (255) 
0.281332

>  <r_i_glide_esite>  (255) 
-0.0182739

>  <r_i_glide_emodel>  (255) 
-29.0147

>  <r_i_glide_energy>  (255) 
-23.9898

>  <r_i_glide_einternal>  (255) 
0.0747833

>  <r_i_glide_intrahb_reward>  (255) 
-0

>  <i_i_glide_confnum>  (255) 
3

>  <i_i_glide_posenum>  (255) 
29

>  <r_i_glide_eff_state_penalty>  (255) 
0

>  <ligand_id>  (255) 
87

>  <original_smiles>  (255) 
CCn1nc2c(cc1=O)CN(C1CCOC1)CC2

>  <smiles>  (255) 
[H]c1c2c(nn(C([H])([H])C([H])([H])[H])c1=O)C([H])([H])C([H])([H])N(C1([H])C([H])([H])OC([H])([H])C1([H])[H])C2([H])[H]

$$$$
88:2:0
     RDKit          3D

 47 52  0  0  1  0  0  0  0  0999 V2000
    9.3954   -3.6647    0.8467 O   0  0  0  0  0  0  0  0  0  0  0  0
    8.1948   -3.6139    0.2125 C   0  0  0  0  0  0  0  0  0  0  0  0
    8.2180   -3.1992   -1.1334 C   0  0  0  0  0  0  0  0  0  0  0  0
    7.0663   -3.0578   -1.9172 C   0  0  0  0  0  0  0  0  0  0  0  0
    5.8281   -3.4108   -1.3863 C   0  0  0  0  0  0  0  0  0  0  0  0
    5.8362   -3.8724   -0.0449 C   0  0  0  0  0  0  0  0  0  0  0  0
    6.9470   -3.9441    0.7868 C   0  0  0  0  0  0  0  0  0  0  0  0
    6.6630   -4.2641    2.0728 O   0  0  0  0  0  0  0  0  0  0  0  0
    5.3631   -4.7717    2.0399 C   0  0  1  0  0  0  0  0  0  0  0  0
    4.5755   -4.8086    3.3525 C   0  0  0  0  0  0  0  0  0  0  0  0
    3.1004   -5.1986    3.1139 C   0  0  0  0  0  0  0  0  0  0  0  0
    2.8997   -5.8510    1.7298 C   0  0  1  0  0  0  0  0  0  0  0  0
    1.5862   -5.4928    1.2589 O   0  0  0  0  0  0  0  0  0  0  0  0
    2.1679   -4.9508    0.0480 C   0  0  0  0  0  0  0  0  0  0  0  0
    3.5968   -5.2529    0.4828 C   0  0  2  0  0  0  0  0  0  0  0  0
    4.2716   -6.2044   -0.3176 O   0  0  0  0  0  0  0  0  0  0  0  0
    4.6284   -4.1478    0.8157 C   0  0  2  0  0  0  0  0  0  0  0  0
    3.9731   -2.7533    1.0590 C   0  0  0  0  0  0  0  0  0  0  0  0
    3.9131   -1.7648   -0.1388 C   0  0  0  0  0  0  0  0  0  0  0  0
    3.5211   -2.3974   -1.4226 N   0  0  1  0  0  0  0  0  0  0  0  0
    3.1153   -1.4479   -2.4641 C   0  0  0  0  0  0  0  0  0  0  0  0
    3.2745   -2.1750   -3.7879 C   0  0  0  0  0  0  0  0  0  0  0  0
    4.5894   -2.8634   -3.5245 C   0  0  0  0  0  0  0  0  0  0  0  0
    4.4813   -3.3172   -2.0631 C   0  0  1  0  0  0  0  0  0  0  0  0
    9.1876   -3.0375   -1.5606 H   0  0  0  0  0  0  0  0  0  0  0  0
    7.1285   -2.7924   -2.9451 H   0  0  0  0  0  0  0  0  0  0  0  0
    5.5664   -5.8226    1.8062 H   0  0  0  0  0  0  0  0  0  0  0  0
    5.0510   -5.5352    4.0081 H   0  0  0  0  0  0  0  0  0  0  0  0
    4.6448   -3.8660    3.8897 H   0  0  0  0  0  0  0  0  0  0  0  0
    2.7243   -5.8418    3.9171 H   0  0  0  0  0  0  0  0  0  0  0  0
    2.5044   -4.2832    3.1882 H   0  0  0  0  0  0  0  0  0  0  0  0
    3.0261   -6.9276    1.7270 H   0  0  0  0  0  0  0  0  0  0  0  0
    1.8126   -5.4936   -0.8150 H   0  0  0  0  0  0  0  0  0  0  0  0
    1.9327   -3.9048   -0.0543 H   0  0  0  0  0  0  0  0  0  0  0  0
    3.8574   -6.2140   -1.1817 H   0  0  0  0  0  0  0  0  0  0  0  0
    2.9892   -2.8532    1.5316 H   0  0  0  0  0  0  0  0  0  0  0  0
    4.5763   -2.2458    1.8231 H   0  0  0  0  0  0  0  0  0  0  0  0
    3.1761   -1.0058    0.1074 H   0  0  0  0  0  0  0  0  0  0  0  0
    4.8567   -1.2144   -0.2271 H   0  0  0  0  0  0  0  0  0  0  0  0
    2.0946   -1.2072   -2.3397 H   0  0  0  0  0  0  0  0  0  0  0  0
    3.6877   -0.5115   -2.4567 H   0  0  0  0  0  0  0  0  0  0  0  0
    2.4932   -2.9243   -3.9444 H   0  0  0  0  0  0  0  0  0  0  0  0
    3.2737   -1.4913   -4.6489 H   0  0  0  0  0  0  0  0  0  0  0  0
    4.8258   -3.6694   -4.2273 H   0  0  0  0  0  0  0  0  0  0  0  0
    5.3312   -2.0790   -3.6278 H   0  0  0  0  0  0  0  0  0  0  0  0
    3.9983   -4.2768   -2.0890 H   0  0  0  0  0  0  0  0  0  0  0  0
    2.6991   -2.9461   -1.2432 H   0  0  0  0  0  0  0  0  0  0  0  0
  1  2  1  0
  2  7  2  0
  2  3  1  0
  3  4  2  0
  3 25  1  0
  4  5  1  0
  4 26  1  0
  5 24  1  0
  5  6  2  0
  6 17  1  0
  6  7  1  0
  7  8  1  0
  8  9  1  0
  9 17  1  0
  9 10  1  0
  9 27  1  6
 10 11  1  0
 10 28  1  0
 10 29  1  0
 11 12  1  0
 11 30  1  0
 11 31  1  0
 12 15  1  0
 12 13  1  0
 12 32  1  1
 13 14  1  0
 14 15  1  0
 14 33  1  0
 14 34  1  0
 15 16  1  6
 15 17  1  0
 16 35  1  0
 17 18  1  1
 18 19  1  0
 18 36  1  0
 18 37  1  0
 19 20  1  0
 19 38  1  0
 19 39  1  0
 20 24  1  0
 20 21  1  0
 20 47  1  1
 21 22  1  0
 21 40  1  0
 21 41  1  0
 22 23  1  0
 22 42  1  0
 22 43  1  0
 23 24  1  0
 23 44  1  0
 23 45  1  0
 24 46  1  6
M  CHG  2   1  -1  20   1
M  END
>  <i_m_ct_stereo_status>  (256) 
1

>  <s_m_source_file>  (256) 
/var/tmp/pbs.5076255.sched01/tmph8v5ro6p/78zitxkb1g.sdf

>  <i_m_source_file_index>  (256) 
39

>  <i_lp_mmshare_version>  (256) 
48012

>  <i_f3d_flags>  (256) 
0

>  <s_epik_input>  (256) 
W0NIMl0xW0NIMl1bQ0gyXU4oW0NIMl1bQ0gyXTIpW0NAQEhdMWMoYzNbQ0BdMjQ1KVtjSF1bY0hdYyhbT0hdKWMzT1tDQEhdNFtDSDJdW0NIMl1bQ0BASF02W0NAXTUoW0NIMl1PNilbT0hd

>  <s_epik_cmdline>  (256) 
J2VwaWtfcHl0aG9uJywgJy1waHQnLCAnMi4wJywgJy1waCcsICc3LjAnLCAnLXRuJywgJzgnLCAnLW1hJywgJzIwMCcsICctaW1hZScsICc8aW5maWxlLm1hZT4nLCAnLW9tYWUnLCAnPG91dGZpbGUubWFlPic=

>  <r_epik_Ionization_Penalty>  (256) 
2.02452

>  <r_epik_Ionization_Penalty_Charging>  (256) 
2.02452

>  <r_epik_Ionization_Penalty_Neutral>  (256) 
5.50896e-07

>  <r_epik_State_Penalty>  (256) 
2.15028

>  <r_epik_Charging_Adjusted_Penalty>  (256) 
4.1748

>  <i_epik_Tot_Q>  (256) 
0

>  <i_epik_Tot_abs_Q>  (256) 
2

>  <s_lp_Force_Field>  (256) 
OPLS3e

>  <r_lp_Energy>  (256) 
59.2661

>  <b_lp_Chiralities_Consistent>  (256) 
1

>  <s_lp_Variant>  (256) 
88:0-3

>  <s_i_glide_gridfile>  (256) 
pfpi4k_grid

>  <i_i_glide_lignum>  (256) 
39

>  <i_i_glide_rotatable_bonds>  (256) 
1

>  <r_i_docking_score>  (256) 
-4.97315

>  <r_i_glide_ligand_efficiency>  (256) 
-0.207215

>  <r_i_glide_ligand_efficiency_sa>  (256) 
-0.597711

>  <r_i_glide_ligand_efficiency_ln>  (256) 
-1.1903

>  <r_i_glide_gscore>  (256) 
-4.97315

>  <r_i_glide_lipo>  (256) 
-0.89325

>  <r_i_glide_hbond>  (256) 
-0.187469

>  <r_i_glide_metal>  (256) 
-0

>  <r_i_glide_rewards>  (256) 
-1.16325

>  <r_i_glide_evdw>  (256) 
-15.9244

>  <r_i_glide_ecoul>  (256) 
-12.5616

>  <r_i_glide_erotb>  (256) 
0

>  <r_i_glide_esite>  (256) 
-0.048729

>  <r_i_glide_emodel>  (256) 
-37.0744

>  <r_i_glide_energy>  (256) 
-28.486

>  <r_i_glide_einternal>  (256) 
1.05355

>  <r_i_glide_intrahb_reward>  (256) 
-0

>  <i_i_glide_confnum>  (256) 
1

>  <i_i_glide_posenum>  (256) 
18

>  <r_i_glide_eff_state_penalty>  (256) 
0

>  <ligand_id>  (256) 
88

>  <original_smiles>  (256) 
Oc1ccc2c3c1OC1CCC4OCC4(O)C31CCN1CCCC21

>  <smiles>  (256) 
[H]OC12C([H])([H])OC1([H])C([H])([H])C([H])([H])C1([H])Oc3c([O-])c([H])c([H])c4c3C12C([H])([H])C([H])([H])[N+]1([H])C([H])([H])C([H])([H])C([H])([H])C41[H]

$$$$
88:2:1
     RDKit          3D

 47 52  0  0  1  0  0  0  0  0999 V2000
    0.0877   -2.6545    4.6285 O   0  0  0  0  0  0  0  0  0  0  0  0
    1.1420   -2.5514    3.7638 C   0  0  0  0  0  0  0  0  0  0  0  0
    1.5837   -1.2768    3.3580 C   0  0  0  0  0  0  0  0  0  0  0  0
    2.6245   -1.1259    2.4167 C   0  0  0  0  0  0  0  0  0  0  0  0
    3.2628   -2.2653    1.8682 C   0  0  0  0  0  0  0  0  0  0  0  0
    2.8372   -3.5149    2.3716 C   0  0  0  0  0  0  0  0  0  0  0  0
    1.7828   -3.7051    3.2632 C   0  0  0  0  0  0  0  0  0  0  0  0
    1.4328   -5.0075    3.4739 O   0  0  0  0  0  0  0  0  0  0  0  0
    2.5582   -5.7365    3.0163 C   0  0  1  0  0  0  0  0  0  0  0  0
    2.3741   -7.2347    2.7357 C   0  0  0  0  0  0  0  0  0  0  0  0
    3.5986   -7.8261    1.9971 C   0  0  0  0  0  0  0  0  0  0  0  0
    4.8575   -6.9362    2.1028 C   0  0  1  0  0  0  0  0  0  0  0  0
    5.6453   -7.0582    0.9008 O   0  0  0  0  0  0  0  0  0  0  0  0
    5.5806   -5.6344    0.6829 C   0  0  0  0  0  0  0  0  0  0  0  0
    4.7302   -5.3994    1.9415 C   0  0  2  0  0  0  0  0  0  0  0  0
    5.4077   -4.6632    2.9387 O   0  0  0  0  0  0  0  0  0  0  0  0
    3.2468   -4.9018    1.8897 C   0  0  2  0  0  0  0  0  0  0  0  0
    2.6102   -5.0792    0.4784 C   0  0  0  0  0  0  0  0  0  0  0  0
    2.6454   -3.8406   -0.4755 C   0  0  0  0  0  0  0  0  0  0  0  0
    3.9350   -3.1001   -0.4791 N   0  0  1  0  0  0  0  0  0  0  0  0
    4.1357   -2.2229   -1.6592 C   0  0  0  0  0  0  0  0  0  0  0  0
    5.1571   -1.1823   -1.2045 C   0  0  0  0  0  0  0  0  0  0  0  0
    4.6912   -0.9207    0.2203 C   0  0  0  0  0  0  0  0  0  0  0  0
    4.3015   -2.3168    0.7454 C   0  0  1  0  0  0  0  0  0  0  0  0
    1.0983   -0.3979    3.7446 H   0  0  0  0  0  0  0  0  0  0  0  0
    2.9104   -0.1329    2.1084 H   0  0  0  0  0  0  0  0  0  0  0  0
    3.2118   -5.7029    3.8926 H   0  0  0  0  0  0  0  0  0  0  0  0
    2.2423   -7.7477    3.6903 H   0  0  0  0  0  0  0  0  0  0  0  0
    1.4621   -7.4217    2.1729 H   0  0  0  0  0  0  0  0  0  0  0  0
    3.8022   -8.8435    2.3386 H   0  0  0  0  0  0  0  0  0  0  0  0
    3.3266   -7.9421    0.9450 H   0  0  0  0  0  0  0  0  0  0  0  0
    5.4603   -7.1821    2.9798 H   0  0  0  0  0  0  0  0  0  0  0  0
    6.5676   -5.1672    0.7281 H   0  0  0  0  0  0  0  0  0  0  0  0
    5.1049   -5.4146   -0.2704 H   0  0  0  0  0  0  0  0  0  0  0  0
    6.2438   -5.0869    3.0611 H   0  0  0  0  0  0  0  0  0  0  0  0
    3.0028   -5.9589   -0.0323 H   0  0  0  0  0  0  0  0  0  0  0  0
    1.5579   -5.3216    0.6212 H   0  0  0  0  0  0  0  0  0  0  0  0
    2.4488   -4.2084   -1.4824 H   0  0  0  0  0  0  0  0  0  0  0  0
    1.8256   -3.1521   -0.2672 H   0  0  0  0  0  0  0  0  0  0  0  0
    4.4864   -2.7809   -2.5313 H   0  0  0  0  0  0  0  0  0  0  0  0
    3.2040   -1.7145   -1.9347 H   0  0  0  0  0  0  0  0  0  0  0  0
    6.1624   -1.6082   -1.1806 H   0  0  0  0  0  0  0  0  0  0  0  0
    5.1729   -0.2856   -1.8302 H   0  0  0  0  0  0  0  0  0  0  0  0
    5.4317   -0.4115    0.8385 H   0  0  0  0  0  0  0  0  0  0  0  0
    3.8233   -0.2646    0.1316 H   0  0  0  0  0  0  0  0  0  0  0  0
    5.2139   -2.7655    1.1381 H   0  0  0  0  0  0  0  0  0  0  0  0
    4.6528   -3.8054   -0.5659 H   0  0  0  0  0  0  0  0  0  0  0  0
  1  2  1  0
  2  7  2  0
  2  3  1  0
  3  4  2  0
  3 25  1  0
  4  5  1  0
  4 26  1  0
  5 24  1  0
  5  6  2  0
  6 17  1  0
  6  7  1  0
  7  8  1  0
  8  9  1  0
  9 17  1  0
  9 10  1  0
  9 27  1  1
 10 11  1  0
 10 28  1  0
 10 29  1  0
 11 12  1  0
 11 30  1  0
 11 31  1  0
 12 15  1  0
 12 13  1  0
 12 32  1  1
 13 14  1  0
 14 15  1  0
 14 33  1  0
 14 34  1  0
 15 16  1  1
 15 17  1  0
 16 35  1  0
 17 18  1  6
 18 19  1  0
 18 36  1  0
 18 37  1  0
 19 20  1  0
 19 38  1  0
 19 39  1  0
 20 24  1  0
 20 21  1  0
 20 47  1  6
 21 22  1  0
 21 40  1  0
 21 41  1  0
 22 23  1  0
 22 42  1  0
 22 43  1  0
 23 24  1  0
 23 44  1  0
 23 45  1  0
 24 46  1  1
M  CHG  2   1  -1  20   1
M  END
>  <i_m_ct_stereo_status>  (257) 
1

>  <s_m_source_file>  (257) 
/var/tmp/pbs.5076255.sched01/tmph8v5ro6p/78zitxkb1g.sdf

>  <i_m_source_file_index>  (257) 
39

>  <i_lp_mmshare_version>  (257) 
48012

>  <i_f3d_flags>  (257) 
0

>  <s_epik_input>  (257) 
W0NIMl0xW0NIMl1bQ0gyXU4oW0NIMl1bQ0gyXTIpW0NAQEhdMWMoYzNbQ0BdMjQ1KVtjSF1bY0hdYyhbT0hdKWMzT1tDQEhdNFtDSDJdW0NIMl1bQ0BASF02W0NAXTUoW0NIMl1PNilbT0hd

>  <s_epik_cmdline>  (257) 
J2VwaWtfcHl0aG9uJywgJy1waHQnLCAnMi4wJywgJy1waCcsICc3LjAnLCAnLXRuJywgJzgnLCAnLW1hJywgJzIwMCcsICctaW1hZScsICc8aW5maWxlLm1hZT4nLCAnLW9tYWUnLCAnPG91dGZpbGUubWFlPic=

>  <r_epik_Ionization_Penalty>  (257) 
2.02452

>  <r_epik_Ionization_Penalty_Charging>  (257) 
2.02452

>  <r_epik_Ionization_Penalty_Neutral>  (257) 
5.50896e-07

>  <r_epik_State_Penalty>  (257) 
2.15028

>  <r_epik_Charging_Adjusted_Penalty>  (257) 
4.1748

>  <i_epik_Tot_Q>  (257) 
0

>  <i_epik_Tot_abs_Q>  (257) 
2

>  <s_lp_Force_Field>  (257) 
OPLS3e

>  <r_lp_Energy>  (257) 
59.2661

>  <b_lp_Chiralities_Consistent>  (257) 
1

>  <s_lp_Variant>  (257) 
88:0-3

>  <s_i_glide_gridfile>  (257) 
pfpi4k_grid

>  <i_i_glide_lignum>  (257) 
39

>  <i_i_glide_rotatable_bonds>  (257) 
1

>  <r_i_docking_score>  (257) 
-2.45029

>  <r_i_glide_ligand_efficiency>  (257) 
-0.102096

>  <r_i_glide_ligand_efficiency_sa>  (257) 
-0.294495

>  <r_i_glide_ligand_efficiency_ln>  (257) 
-0.586468

>  <r_i_glide_gscore>  (257) 
-2.45029

>  <r_i_glide_lipo>  (257) 
-0.234138

>  <r_i_glide_hbond>  (257) 
0

>  <r_i_glide_metal>  (257) 
-0

>  <r_i_glide_rewards>  (257) 
-1.16325

>  <r_i_glide_evdw>  (257) 
-21.8727

>  <r_i_glide_ecoul>  (257) 
0.271517

>  <r_i_glide_erotb>  (257) 
0

>  <r_i_glide_esite>  (257) 
0

>  <r_i_glide_emodel>  (257) 
-26.1466

>  <r_i_glide_energy>  (257) 
-21.6012

>  <r_i_glide_einternal>  (257) 
0.00578542

>  <r_i_glide_intrahb_reward>  (257) 
-0

>  <i_i_glide_confnum>  (257) 
2

>  <i_i_glide_posenum>  (257) 
39

>  <r_i_glide_eff_state_penalty>  (257) 
0

>  <ligand_id>  (257) 
88

>  <original_smiles>  (257) 
Oc1ccc2c3c1OC1CCC4OCC4(O)C31CCN1CCCC21

>  <smiles>  (257) 
[H]OC12C([H])([H])OC1([H])C([H])([H])C([H])([H])C1([H])Oc3c([O-])c([H])c([H])c4c3C12C([H])([H])C([H])([H])[N+]1([H])C([H])([H])C([H])([H])C([H])([H])C41[H]

$$$$
88:3:0
     RDKit          3D

 47 52  0  0  1  0  0  0  0  0999 V2000
    9.2611   -3.5829    0.8124 O   0  0  0  0  0  0  0  0  0  0  0  0
    8.0688   -3.5799    0.1465 C   0  0  0  0  0  0  0  0  0  0  0  0
    8.0734   -3.1901   -1.2077 C   0  0  0  0  0  0  0  0  0  0  0  0
    6.8940   -3.1276   -1.9636 C   0  0  0  0  0  0  0  0  0  0  0  0
    5.6631   -3.5351   -1.4063 C   0  0  0  0  0  0  0  0  0  0  0  0
    5.7096   -3.9784   -0.0608 C   0  0  0  0  0  0  0  0  0  0  0  0
    6.8425   -3.9617    0.7496 C   0  0  0  0  0  0  0  0  0  0  0  0
    6.6059   -4.2501    2.0702 O   0  0  0  0  0  0  0  0  0  0  0  0
    5.3444   -4.8805    2.0502 C   0  0  1  0  0  0  0  0  0  0  0  0
    4.5566   -4.9631    3.3544 C   0  0  0  0  0  0  0  0  0  0  0  0
    3.4604   -6.0380    3.2126 C   0  0  0  0  0  0  0  0  0  0  0  0
    2.9427   -6.2440    1.7727 C   0  0  1  0  0  0  0  0  0  0  0  0
    1.7144   -5.5339    1.5200 O   0  0  0  0  0  0  0  0  0  0  0  0
    2.1263   -5.4447    0.1387 C   0  0  0  0  0  0  0  0  0  0  0  0
    3.6049   -5.5790    0.5255 C   0  0  2  0  0  0  0  0  0  0  0  0
    4.3272   -6.4973   -0.2606 O   0  0  0  0  0  0  0  0  0  0  0  0
    4.5249   -4.3502    0.8292 C   0  0  2  0  0  0  0  0  0  0  0  0
    3.7664   -3.0201    1.1391 C   0  0  0  0  0  0  0  0  0  0  0  0
    3.1063   -2.1854    0.0008 C   0  0  0  0  0  0  0  0  0  0  0  0
    3.8781   -1.9811   -1.2516 N   0  0  2  0  0  0  0  0  0  0  0  0
    3.2434   -1.1326   -2.2967 C   0  0  0  0  0  0  0  0  0  0  0  0
    3.0387   -2.0003   -3.5325 C   0  0  0  0  0  0  0  0  0  0  0  0
    4.2274   -2.9327   -3.4243 C   0  0  0  0  0  0  0  0  0  0  0  0
    4.2875   -3.2322   -1.9172 C   0  0  1  0  0  0  0  0  0  0  0  0
    9.0075   -2.9382   -1.6756 H   0  0  0  0  0  0  0  0  0  0  0  0
    6.9656   -2.8031   -2.9896 H   0  0  0  0  0  0  0  0  0  0  0  0
    5.6568   -5.9079    1.8443 H   0  0  0  0  0  0  0  0  0  0  0  0
    5.2268   -5.2417    4.1677 H   0  0  0  0  0  0  0  0  0  0  0  0
    4.1420   -3.9953    3.6306 H   0  0  0  0  0  0  0  0  0  0  0  0
    3.9162   -6.9754    3.5319 H   0  0  0  0  0  0  0  0  0  0  0  0
    2.6459   -5.8643    3.9207 H   0  0  0  0  0  0  0  0  0  0  0  0
    2.7874   -7.3059    1.5659 H   0  0  0  0  0  0  0  0  0  0  0  0
    1.7447   -6.2629   -0.4520 H   0  0  0  0  0  0  0  0  0  0  0  0
    1.8428   -4.5366   -0.3568 H   0  0  0  0  0  0  0  0  0  0  0  0
    4.0842   -6.3429   -1.1658 H   0  0  0  0  0  0  0  0  0  0  0  0
    2.9667   -3.2303    1.8522 H   0  0  0  0  0  0  0  0  0  0  0  0
    4.4599   -2.3705    1.6720 H   0  0  0  0  0  0  0  0  0  0  0  0
    2.1447   -2.6142   -0.2223 H   0  0  0  0  0  0  0  0  0  0  0  0
    2.8817   -1.2034    0.4185 H   0  0  0  0  0  0  0  0  0  0  0  0
    2.3113   -0.6567   -2.0372 H   0  0  0  0  0  0  0  0  0  0  0  0
    3.9116   -0.3084   -2.5347 H   0  0  0  0  0  0  0  0  0  0  0  0
    2.1137   -2.5757   -3.4608 H   0  0  0  0  0  0  0  0  0  0  0  0
    3.0011   -1.4129   -4.4570 H   0  0  0  0  0  0  0  0  0  0  0  0
    4.1556   -3.8225   -4.0521 H   0  0  0  0  0  0  0  0  0  0  0  0
    5.0745   -2.3404   -3.7675 H   0  0  0  0  0  0  0  0  0  0  0  0
    3.5772   -4.0374   -1.7261 H   0  0  0  0  0  0  0  0  0  0  0  0
    4.7148   -1.4868   -0.9755 H   0  0  0  0  0  0  0  0  0  0  0  0
  1  2  1  0
  2  7  2  0
  2  3  1  0
  3  4  2  0
  3 25  1  0
  4  5  1  0
  4 26  1  0
  5 24  1  0
  5  6  2  0
  6 17  1  0
  6  7  1  0
  7  8  1  0
  8  9  1  0
  9 17  1  0
  9 10  1  0
  9 27  1  6
 10 11  1  0
 10 28  1  0
 10 29  1  0
 11 12  1  0
 11 30  1  0
 11 31  1  0
 12 15  1  0
 12 13  1  0
 12 32  1  6
 13 14  1  0
 14 15  1  0
 14 33  1  0
 14 34  1  0
 15 16  1  6
 15 17  1  0
 16 35  1  0
 17 18  1  1
 18 19  1  0
 18 36  1  0
 18 37  1  0
 19 20  1  0
 19 38  1  0
 19 39  1  0
 20 24  1  0
 20 21  1  0
 20 47  1  1
 21 22  1  0
 21 40  1  0
 21 41  1  0
 22 23  1  0
 22 42  1  0
 22 43  1  0
 23 24  1  0
 23 44  1  0
 23 45  1  0
 24 46  1  6
M  CHG  2   1  -1  20   1
M  END
>  <i_m_ct_stereo_status>  (258) 
1

>  <s_m_source_file>  (258) 
/var/tmp/pbs.5076255.sched01/tmph7d3_0rd/117btfl79hs.sdf

>  <i_m_source_file_index>  (258) 
1

>  <i_lp_mmshare_version>  (258) 
48012

>  <i_f3d_flags>  (258) 
0

>  <s_epik_input>  (258) 
W0NIMl0xW0NIMl1bQ0gyXU4oW0NIMl1bQ0gyXTIpW0NAQEhdMWMoYzNbQ0BdMjQ1KVtjSF1bY0hdYyhbT0hdKWMzT1tDQEhdNFtDSDJdW0NIMl1bQ0BASF02W0NAXTUoW0NIMl1PNilbT0hd

>  <s_epik_cmdline>  (258) 
J2VwaWtfcHl0aG9uJywgJy1waHQnLCAnMi4wJywgJy1waCcsICc3LjAnLCAnLXRuJywgJzgnLCAnLW1hJywgJzIwMCcsICctaW1hZScsICc8aW5maWxlLm1hZT4nLCAnLW9tYWUnLCAnPG91dGZpbGUubWFlPic=

>  <r_epik_Ionization_Penalty>  (258) 
2.02452

>  <r_epik_Ionization_Penalty_Charging>  (258) 
2.02452

>  <r_epik_Ionization_Penalty_Neutral>  (258) 
5.50896e-07

>  <r_epik_State_Penalty>  (258) 
2.15028

>  <r_epik_Charging_Adjusted_Penalty>  (258) 
4.1748

>  <i_epik_Tot_Q>  (258) 
0

>  <i_epik_Tot_abs_Q>  (258) 
2

>  <s_lp_Force_Field>  (258) 
OPLS3e

>  <r_lp_Energy>  (258) 
63.442

>  <b_lp_Chiralities_Consistent>  (258) 
1

>  <s_lp_Variant>  (258) 
88:0-4

>  <s_i_glide_gridfile>  (258) 
pfpi4k_grid

>  <i_i_glide_lignum>  (258) 
1

>  <i_i_glide_rotatable_bonds>  (258) 
1

>  <r_i_docking_score>  (258) 
-4.64157

>  <r_i_glide_ligand_efficiency>  (258) 
-0.193399

>  <r_i_glide_ligand_efficiency_sa>  (258) 
-0.557858

>  <r_i_glide_ligand_efficiency_ln>  (258) 
-1.11094

>  <r_i_glide_gscore>  (258) 
-4.64157

>  <r_i_glide_lipo>  (258) 
-0.93605

>  <r_i_glide_hbond>  (258) 
-0.130974

>  <r_i_glide_metal>  (258) 
-0

>  <r_i_glide_rewards>  (258) 
-1.16325

>  <r_i_glide_evdw>  (258) 
-17.7904

>  <r_i_glide_ecoul>  (258) 
-9.82458

>  <r_i_glide_erotb>  (258) 
0

>  <r_i_glide_esite>  (258) 
-0.048087

>  <r_i_glide_emodel>  (258) 
-36.6245

>  <r_i_glide_energy>  (258) 
-27.615

>  <r_i_glide_einternal>  (258) 
0.794022

>  <r_i_glide_intrahb_reward>  (258) 
-0

>  <i_i_glide_confnum>  (258) 
2

>  <i_i_glide_posenum>  (258) 
36

>  <r_i_glide_eff_state_penalty>  (258) 
0

>  <ligand_id>  (258) 
88

>  <original_smiles>  (258) 
Oc1ccc2c3c1OC1CCC4OCC4(O)C31CCN1CCCC21

>  <smiles>  (258) 
[H]OC12C([H])([H])OC1([H])C([H])([H])C([H])([H])C1([H])Oc3c([O-])c([H])c([H])c4c3C12C([H])([H])C([H])([H])[N+]1([H])C([H])([H])C([H])([H])C([H])([H])C41[H]

$$$$
88:3:1
     RDKit          3D

 47 52  0  0  1  0  0  0  0  0999 V2000
    5.8333   -6.0155    3.4163 O   0  0  0  0  0  0  0  0  0  0  0  0
    5.1164   -5.2459    2.5479 C   0  0  0  0  0  0  0  0  0  0  0  0
    4.7405   -5.7635    1.2939 C   0  0  0  0  0  0  0  0  0  0  0  0
    4.0766   -4.9608    0.3438 C   0  0  0  0  0  0  0  0  0  0  0  0
    3.7227   -3.6271    0.6666 C   0  0  0  0  0  0  0  0  0  0  0  0
    4.0259   -3.1914    1.9722 C   0  0  0  0  0  0  0  0  0  0  0  0
    4.7587   -3.9287    2.8978 C   0  0  0  0  0  0  0  0  0  0  0  0
    5.1147   -3.2556    4.0256 O   0  0  0  0  0  0  0  0  0  0  0  0
    4.2230   -2.1621    4.0456 C   0  0  1  0  0  0  0  0  0  0  0  0
    4.5759   -0.9706    4.9285 C   0  0  0  0  0  0  0  0  0  0  0  0
    3.3136   -0.1017    5.1155 C   0  0  0  0  0  0  0  0  0  0  0  0
    2.3017   -0.1520    3.9451 C   0  0  1  0  0  0  0  0  0  0  0  0
    2.4445    0.9499    3.0292 O   0  0  0  0  0  0  0  0  0  0  0  0
    1.9577    0.0816    1.9858 C   0  0  0  0  0  0  0  0  0  0  0  0
    2.4167   -1.1632    2.7640 C   0  0  2  0  0  0  0  0  0  0  0  0
    1.4410   -2.1848    2.8426 O   0  0  0  0  0  0  0  0  0  0  0  0
    3.8413   -1.7979    2.5751 C   0  0  2  0  0  0  0  0  0  0  0  0
    4.9004   -0.8562    1.8971 C   0  0  0  0  0  0  0  0  0  0  0  0
    4.8782   -0.5783    0.3550 C   0  0  0  0  0  0  0  0  0  0  0  0
    4.6539   -1.7390   -0.5467 N   0  0  2  0  0  0  0  0  0  0  0  0
    4.6967   -1.4141   -2.0004 C   0  0  0  0  0  0  0  0  0  0  0  0
    3.3305   -1.7881   -2.5784 C   0  0  0  0  0  0  0  0  0  0  0  0
    2.9289   -2.9580   -1.6868 C   0  0  0  0  0  0  0  0  0  0  0  0
    3.4048   -2.5011   -0.2974 C   0  0  1  0  0  0  0  0  0  0  0  0
    5.0202   -6.7712    1.0306 H   0  0  0  0  0  0  0  0  0  0  0  0
    3.9180   -5.3568   -0.6465 H   0  0  0  0  0  0  0  0  0  0  0  0
    3.3567   -2.6218    4.5299 H   0  0  0  0  0  0  0  0  0  0  0  0
    4.9162   -1.3184    5.9038 H   0  0  0  0  0  0  0  0  0  0  0  0
    5.4020   -0.3954    4.5131 H   0  0  0  0  0  0  0  0  0  0  0  0
    2.8071   -0.4851    6.0028 H   0  0  0  0  0  0  0  0  0  0  0  0
    3.5834    0.9260    5.3677 H   0  0  0  0  0  0  0  0  0  0  0  0
    1.2777   -0.1571    4.3313 H   0  0  0  0  0  0  0  0  0  0  0  0
    0.8703    0.1449    1.8721 H   0  0  0  0  0  0  0  0  0  0  0  0
    2.4222    0.2498    1.0254 H   0  0  0  0  0  0  0  0  0  0  0  0
    1.2907   -2.4957    1.9637 H   0  0  0  0  0  0  0  0  0  0  0  0
    4.8617    0.1206    2.3783 H   0  0  0  0  0  0  0  0  0  0  0  0
    5.8888   -1.2505    2.1421 H   0  0  0  0  0  0  0  0  0  0  0  0
    4.2094    0.2344    0.0893 H   0  0  0  0  0  0  0  0  0  0  0  0
    5.8617   -0.1730    0.1086 H   0  0  0  0  0  0  0  0  0  0  0  0
    4.9786   -0.3852   -2.2394 H   0  0  0  0  0  0  0  0  0  0  0  0
    5.4445   -2.0631   -2.4610 H   0  0  0  0  0  0  0  0  0  0  0  0
    2.6182   -0.9688   -2.4462 H   0  0  0  0  0  0  0  0  0  0  0  0
    3.3564   -2.0451   -3.6410 H   0  0  0  0  0  0  0  0  0  0  0  0
    1.8615   -3.1793   -1.7276 H   0  0  0  0  0  0  0  0  0  0  0  0
    3.4678   -3.8292   -2.0543 H   0  0  0  0  0  0  0  0  0  0  0  0
    2.6334   -1.8435    0.0949 H   0  0  0  0  0  0  0  0  0  0  0  0
    5.4093   -2.3895   -0.3787 H   0  0  0  0  0  0  0  0  0  0  0  0
  1  2  1  0
  2  7  2  0
  2  3  1  0
  3  4  2  0
  3 25  1  0
  4  5  1  0
  4 26  1  0
  5 24  1  0
  5  6  2  0
  6 17  1  0
  6  7  1  0
  7  8  1  0
  8  9  1  0
  9 17  1  0
  9 10  1  0
  9 27  1  1
 10 11  1  0
 10 28  1  0
 10 29  1  0
 11 12  1  0
 11 30  1  0
 11 31  1  0
 12 15  1  0
 12 13  1  0
 12 32  1  1
 13 14  1  0
 14 15  1  0
 14 33  1  0
 14 34  1  0
 15 16  1  1
 15 17  1  0
 16 35  1  0
 17 18  1  6
 18 19  1  0
 18 36  1  0
 18 37  1  0
 19 20  1  0
 19 38  1  0
 19 39  1  0
 20 24  1  0
 20 21  1  0
 20 47  1  6
 21 22  1  0
 21 40  1  0
 21 41  1  0
 22 23  1  0
 22 42  1  0
 22 43  1  0
 23 24  1  0
 23 44  1  0
 23 45  1  0
 24 46  1  1
M  CHG  2   1  -1  20   1
M  END
>  <i_m_ct_stereo_status>  (259) 
1

>  <s_m_source_file>  (259) 
/var/tmp/pbs.5076255.sched01/tmph7d3_0rd/117btfl79hs.sdf

>  <i_m_source_file_index>  (259) 
1

>  <i_lp_mmshare_version>  (259) 
48012

>  <i_f3d_flags>  (259) 
0

>  <s_epik_input>  (259) 
W0NIMl0xW0NIMl1bQ0gyXU4oW0NIMl1bQ0gyXTIpW0NAQEhdMWMoYzNbQ0BdMjQ1KVtjSF1bY0hdYyhbT0hdKWMzT1tDQEhdNFtDSDJdW0NIMl1bQ0BASF02W0NAXTUoW0NIMl1PNilbT0hd

>  <s_epik_cmdline>  (259) 
J2VwaWtfcHl0aG9uJywgJy1waHQnLCAnMi4wJywgJy1waCcsICc3LjAnLCAnLXRuJywgJzgnLCAnLW1hJywgJzIwMCcsICctaW1hZScsICc8aW5maWxlLm1hZT4nLCAnLW9tYWUnLCAnPG91dGZpbGUubWFlPic=

>  <r_epik_Ionization_Penalty>  (259) 
2.02452

>  <r_epik_Ionization_Penalty_Charging>  (259) 
2.02452

>  <r_epik_Ionization_Penalty_Neutral>  (259) 
5.50896e-07

>  <r_epik_State_Penalty>  (259) 
2.15028

>  <r_epik_Charging_Adjusted_Penalty>  (259) 
4.1748

>  <i_epik_Tot_Q>  (259) 
0

>  <i_epik_Tot_abs_Q>  (259) 
2

>  <s_lp_Force_Field>  (259) 
OPLS3e

>  <r_lp_Energy>  (259) 
63.442

>  <b_lp_Chiralities_Consistent>  (259) 
1

>  <s_lp_Variant>  (259) 
88:0-4

>  <s_i_glide_gridfile>  (259) 
pfpi4k_grid

>  <i_i_glide_lignum>  (259) 
1

>  <i_i_glide_rotatable_bonds>  (259) 
1

>  <r_i_docking_score>  (259) 
-3.24717

>  <r_i_glide_ligand_efficiency>  (259) 
-0.135299

>  <r_i_glide_ligand_efficiency_sa>  (259) 
-0.390269

>  <r_i_glide_ligand_efficiency_ln>  (259) 
-0.777196

>  <r_i_glide_gscore>  (259) 
-3.24717

>  <r_i_glide_lipo>  (259) 
-0.389539

>  <r_i_glide_hbond>  (259) 
0

>  <r_i_glide_metal>  (259) 
-0

>  <r_i_glide_rewards>  (259) 
-1.16325

>  <r_i_glide_evdw>  (259) 
-23.2897

>  <r_i_glide_ecoul>  (259) 
-3.34784

>  <r_i_glide_erotb>  (259) 
0

>  <r_i_glide_esite>  (259) 
-0.0277159

>  <r_i_glide_emodel>  (259) 
-33.0193

>  <r_i_glide_energy>  (259) 
-26.6376

>  <r_i_glide_einternal>  (259) 
0.577093

>  <r_i_glide_intrahb_reward>  (259) 
-0

>  <i_i_glide_confnum>  (259) 
1

>  <i_i_glide_posenum>  (259) 
32

>  <r_i_glide_eff_state_penalty>  (259) 
0

>  <ligand_id>  (259) 
88

>  <original_smiles>  (259) 
Oc1ccc2c3c1OC1CCC4OCC4(O)C31CCN1CCCC21

>  <smiles>  (259) 
[H]OC12C([H])([H])OC1([H])C([H])([H])C([H])([H])C1([H])Oc3c([O-])c([H])c([H])c4c3C12C([H])([H])C([H])([H])[N+]1([H])C([H])([H])C([H])([H])C([H])([H])C41[H]

$$$$
88:3:2
     RDKit          3D

 47 52  0  0  1  0  0  0  0  0999 V2000
    5.8426   -6.0160    3.4119 O   0  0  0  0  0  0  0  0  0  0  0  0
    5.1258   -5.2478    2.5428 C   0  0  0  0  0  0  0  0  0  0  0  0
    4.7537   -5.7644    1.2878 C   0  0  0  0  0  0  0  0  0  0  0  0
    4.0890   -4.9629    0.3363 C   0  0  0  0  0  0  0  0  0  0  0  0
    3.7293   -3.6317    0.6618 C   0  0  0  0  0  0  0  0  0  0  0  0
    4.0310   -3.1966    1.9675 C   0  0  0  0  0  0  0  0  0  0  0  0
    4.7631   -3.9320    2.8938 C   0  0  0  0  0  0  0  0  0  0  0  0
    5.1152   -3.2575    4.0225 O   0  0  0  0  0  0  0  0  0  0  0  0
    4.2196   -2.1677    4.0422 C   0  0  1  0  0  0  0  0  0  0  0  0
    4.5677   -0.9756    4.9268 C   0  0  0  0  0  0  0  0  0  0  0  0
    3.3034   -0.1103    5.1134 C   0  0  0  0  0  0  0  0  0  0  0  0
    2.2909   -0.1680    3.9427 C   0  0  1  0  0  0  0  0  0  0  0  0
    2.4285    0.9366    3.0280 O   0  0  0  0  0  0  0  0  0  0  0  0
    1.9516    0.0683    1.9791 C   0  0  0  0  0  0  0  0  0  0  0  0
    2.4131   -1.1740    2.7573 C   0  0  2  0  0  0  0  0  0  0  0  0
    1.4564   -2.2130    2.8053 O   0  0  0  0  0  0  0  0  0  0  0  0
    3.8396   -1.8042    2.5718 C   0  0  2  0  0  0  0  0  0  0  0  0
    4.8963   -0.8574    1.8971 C   0  0  0  0  0  0  0  0  0  0  0  0
    4.8765   -0.5794    0.3560 C   0  0  0  0  0  0  0  0  0  0  0  0
    4.6554   -1.7395   -0.5453 N   0  0  2  0  0  0  0  0  0  0  0  0
    4.7025   -1.4112   -1.9978 C   0  0  0  0  0  0  0  0  0  0  0  0
    3.3399   -1.7871   -2.5807 C   0  0  0  0  0  0  0  0  0  0  0  0
    2.9376   -2.9582   -1.6905 C   0  0  0  0  0  0  0  0  0  0  0  0
    3.4077   -2.5036   -0.2979 C   0  0  1  0  0  0  0  0  0  0  0  0
    5.0354   -6.7712    1.0237 H   0  0  0  0  0  0  0  0  0  0  0  0
    3.9331   -5.3576   -0.6544 H   0  0  0  0  0  0  0  0  0  0  0  0
    3.3535   -2.6302    4.5242 H   0  0  0  0  0  0  0  0  0  0  0  0
    4.9064   -1.3248    5.9020 H   0  0  0  0  0  0  0  0  0  0  0  0
    5.3942   -0.3989    4.5140 H   0  0  0  0  0  0  0  0  0  0  0  0
    2.7979   -0.4958    6.0005 H   0  0  0  0  0  0  0  0  0  0  0  0
    3.5710    0.9185    5.3677 H   0  0  0  0  0  0  0  0  0  0  0  0
    1.2679   -0.1719    4.3297 H   0  0  0  0  0  0  0  0  0  0  0  0
    0.8648    0.1360    1.8595 H   0  0  0  0  0  0  0  0  0  0  0  0
    2.4208    0.2413    1.0226 H   0  0  0  0  0  0  0  0  0  0  0  0
    0.6064   -1.8019    2.7642 H   0  0  0  0  0  0  0  0  0  0  0  0
    4.8546    0.1185    2.3777 H   0  0  0  0  0  0  0  0  0  0  0  0
    5.8838   -1.2524    2.1430 H   0  0  0  0  0  0  0  0  0  0  0  0
    4.2078    0.2328    0.0891 H   0  0  0  0  0  0  0  0  0  0  0  0
    5.8604   -0.1718    0.1119 H   0  0  0  0  0  0  0  0  0  0  0  0
    4.9826   -0.3802   -2.2342 H   0  0  0  0  0  0  0  0  0  0  0  0
    5.4545   -2.0558   -2.4587 H   0  0  0  0  0  0  0  0  0  0  0  0
    2.6252   -0.9696   -2.4497 H   0  0  0  0  0  0  0  0  0  0  0  0
    3.3715   -2.0429   -3.6433 H   0  0  0  0  0  0  0  0  0  0  0  0
    1.8709   -3.1827   -1.7348 H   0  0  0  0  0  0  0  0  0  0  0  0
    3.4815   -3.8266   -2.0569 H   0  0  0  0  0  0  0  0  0  0  0  0
    2.6314   -1.8488    0.0958 H   0  0  0  0  0  0  0  0  0  0  0  0
    5.4098   -2.3894   -0.3755 H   0  0  0  0  0  0  0  0  0  0  0  0
  1  2  1  0
  2  7  2  0
  2  3  1  0
  3  4  2  0
  3 25  1  0
  4  5  1  0
  4 26  1  0
  5 24  1  0
  5  6  2  0
  6 17  1  0
  6  7  1  0
  7  8  1  0
  8  9  1  0
  9 17  1  0
  9 10  1  0
  9 27  1  1
 10 11  1  0
 10 28  1  0
 10 29  1  0
 11 12  1  0
 11 30  1  0
 11 31  1  0
 12 15  1  0
 12 13  1  0
 12 32  1  1
 13 14  1  0
 14 15  1  0
 14 33  1  0
 14 34  1  0
 15 16  1  1
 15 17  1  0
 16 35  1  0
 17 18  1  6
 18 19  1  0
 18 36  1  0
 18 37  1  0
 19 20  1  0
 19 38  1  0
 19 39  1  0
 20 24  1  0
 20 21  1  0
 20 47  1  6
 21 22  1  0
 21 40  1  0
 21 41  1  0
 22 23  1  0
 22 42  1  0
 22 43  1  0
 23 24  1  0
 23 44  1  0
 23 45  1  0
 24 46  1  1
M  CHG  2   1  -1  20   1
M  END
>  <i_m_ct_stereo_status>  (260) 
1

>  <s_m_source_file>  (260) 
/var/tmp/pbs.5076255.sched01/tmph7d3_0rd/117btfl79hs.sdf

>  <i_m_source_file_index>  (260) 
1

>  <i_lp_mmshare_version>  (260) 
48012

>  <i_f3d_flags>  (260) 
0

>  <s_epik_input>  (260) 
W0NIMl0xW0NIMl1bQ0gyXU4oW0NIMl1bQ0gyXTIpW0NAQEhdMWMoYzNbQ0BdMjQ1KVtjSF1bY0hdYyhbT0hdKWMzT1tDQEhdNFtDSDJdW0NIMl1bQ0BASF02W0NAXTUoW0NIMl1PNilbT0hd

>  <s_epik_cmdline>  (260) 
J2VwaWtfcHl0aG9uJywgJy1waHQnLCAnMi4wJywgJy1waCcsICc3LjAnLCAnLXRuJywgJzgnLCAnLW1hJywgJzIwMCcsICctaW1hZScsICc8aW5maWxlLm1hZT4nLCAnLW9tYWUnLCAnPG91dGZpbGUubWFlPic=

>  <r_epik_Ionization_Penalty>  (260) 
2.02452

>  <r_epik_Ionization_Penalty_Charging>  (260) 
2.02452

>  <r_epik_Ionization_Penalty_Neutral>  (260) 
5.50896e-07

>  <r_epik_State_Penalty>  (260) 
2.15028

>  <r_epik_Charging_Adjusted_Penalty>  (260) 
4.1748

>  <i_epik_Tot_Q>  (260) 
0

>  <i_epik_Tot_abs_Q>  (260) 
2

>  <s_lp_Force_Field>  (260) 
OPLS3e

>  <r_lp_Energy>  (260) 
63.442

>  <b_lp_Chiralities_Consistent>  (260) 
1

>  <s_lp_Variant>  (260) 
88:0-4

>  <s_i_glide_gridfile>  (260) 
pfpi4k_grid

>  <i_i_glide_lignum>  (260) 
1

>  <i_i_glide_rotatable_bonds>  (260) 
1

>  <r_i_docking_score>  (260) 
-3.23782

>  <r_i_glide_ligand_efficiency>  (260) 
-0.134909

>  <r_i_glide_ligand_efficiency_sa>  (260) 
-0.389145

>  <r_i_glide_ligand_efficiency_ln>  (260) 
-0.774959

>  <r_i_glide_gscore>  (260) 
-3.23782

>  <r_i_glide_lipo>  (260) 
-0.389623

>  <r_i_glide_hbond>  (260) 
0

>  <r_i_glide_metal>  (260) 
-0

>  <r_i_glide_rewards>  (260) 
-1.16325

>  <r_i_glide_evdw>  (260) 
-23.255

>  <r_i_glide_ecoul>  (260) 
-3.29706

>  <r_i_glide_erotb>  (260) 
0

>  <r_i_glide_esite>  (260) 
-0.0276427

>  <r_i_glide_emodel>  (260) 
-33.1734

>  <r_i_glide_energy>  (260) 
-26.552

>  <r_i_glide_einternal>  (260) 
0.101217

>  <r_i_glide_intrahb_reward>  (260) 
-0

>  <i_i_glide_confnum>  (260) 
1

>  <i_i_glide_posenum>  (260) 
2

>  <r_i_glide_eff_state_penalty>  (260) 
0

>  <ligand_id>  (260) 
88

>  <original_smiles>  (260) 
Oc1ccc2c3c1OC1CCC4OCC4(O)C31CCN1CCCC21

>  <smiles>  (260) 
[H]OC12C([H])([H])OC1([H])C([H])([H])C([H])([H])C1([H])Oc3c([O-])c([H])c([H])c4c3C12C([H])([H])C([H])([H])[N+]1([H])C([H])([H])C([H])([H])C([H])([H])C41[H]

$$$$
89:0:0
     RDKit          3D

 50 55  0  0  1  0  0  0  0  0999 V2000
    2.9789   -0.9118    2.5217 C   0  0  0  0  0  0  0  0  0  0  0  0
    3.2721   -2.4285    2.4593 C   0  0  2  0  0  0  0  0  0  0  0  0
    3.0063   -2.9719    3.8152 N   0  0  0  0  0  0  0  0  0  0  0  0
    3.5503   -4.2938    4.2226 C   0  0  1  0  0  0  0  0  0  0  0  0
    3.0946   -5.4616    3.4136 C   0  0  0  0  0  0  0  0  0  0  0  0
    4.5495   -4.9843    3.2912 C   0  0  2  0  0  0  0  0  0  0  0  0
    5.5981   -5.8416    3.9856 C   0  0  0  0  0  0  0  0  0  0  0  0
    5.0196   -4.3072    1.9748 C   0  0  1  0  0  0  0  0  0  0  0  0
    6.5275   -4.4316    1.6397 C   0  0  0  0  0  0  0  0  0  0  0  0
    6.9385   -3.8133    0.5148 C   0  0  0  0  0  0  0  0  0  0  0  0
    5.8298   -3.0831   -0.2147 C   0  0  2  0  0  0  0  0  0  0  0  0
    4.7131   -4.1019   -0.5432 C   0  0  0  0  0  0  0  0  0  0  0  0
    4.3072   -4.9021    0.7107 C   0  0  1  0  0  0  0  0  0  0  0  0
    4.5420   -6.4083    0.4962 C   0  0  0  0  0  0  0  0  0  0  0  0
    6.1874   -2.2719   -1.3134 O   0  0  0  0  0  0  0  0  0  0  0  0
    5.2637   -1.2129   -1.2962 C   0  0  1  0  0  0  0  0  0  0  0  0
    4.3744   -1.3023   -2.5057 C   0  0  0  0  0  0  0  0  0  0  0  0
    3.8267   -0.3597   -3.3338 C   0  0  0  0  0  0  0  0  0  0  0  0
    3.0215   -1.0600   -4.2656 C   0  0  0  0  0  0  0  0  0  0  0  0
    3.1208   -2.3775   -3.9204 C   0  0  0  0  0  0  0  0  0  0  0  0
    3.9912   -2.5445   -2.8997 O   0  0  0  0  0  0  0  0  0  0  0  0
    4.4743   -1.3092   -0.1384 O   0  0  0  0  0  0  0  0  0  0  0  0
    5.2868   -2.0450    0.7588 C   0  0  1  0  0  0  0  0  0  0  0  0
    4.7238   -2.7602    2.0388 C   0  0  1  0  0  0  0  0  0  0  0  0
    3.0029   -0.4493    1.5367 H   0  0  0  0  0  0  0  0  0  0  0  0
    3.6925   -0.3800    3.1579 H   0  0  0  0  0  0  0  0  0  0  0  0
    1.9795   -0.7212    2.9203 H   0  0  0  0  0  0  0  0  0  0  0  0
    2.5718   -2.8802    1.7576 H   0  0  0  0  0  0  0  0  0  0  0  0
    3.4510   -2.3225    4.4474 H   0  0  0  0  0  0  0  0  0  0  0  0
    3.5923   -4.4292    5.3000 H   0  0  0  0  0  0  0  0  0  0  0  0
    2.9408   -6.3969    3.9474 H   0  0  0  0  0  0  0  0  0  0  0  0
    2.3743   -5.2827    2.6208 H   0  0  0  0  0  0  0  0  0  0  0  0
    5.9644   -6.6387    3.3345 H   0  0  0  0  0  0  0  0  0  0  0  0
    5.1781   -6.3142    4.8771 H   0  0  0  0  0  0  0  0  0  0  0  0
    6.4342   -5.2253    4.3206 H   0  0  0  0  0  0  0  0  0  0  0  0
    7.2008   -5.0269    2.2346 H   0  0  0  0  0  0  0  0  0  0  0  0
    7.9466   -3.8401    0.1330 H   0  0  0  0  0  0  0  0  0  0  0  0
    3.8035   -3.5978   -0.8653 H   0  0  0  0  0  0  0  0  0  0  0  0
    5.0373   -4.7453   -1.3609 H   0  0  0  0  0  0  0  0  0  0  0  0
    3.2315   -4.7666    0.7844 H   0  0  0  0  0  0  0  0  0  0  0  0
    5.5946   -6.6329    0.3288 H   0  0  0  0  0  0  0  0  0  0  0  0
    3.9939   -6.7548   -0.3798 H   0  0  0  0  0  0  0  0  0  0  0  0
    4.1999   -6.9972    1.3464 H   0  0  0  0  0  0  0  0  0  0  0  0
    5.8019   -0.2656   -1.2932 H   0  0  0  0  0  0  0  0  0  0  0  0
    3.9860    0.7122   -3.2720 H   0  0  0  0  0  0  0  0  0  0  0  0
    2.4324   -0.6571   -5.0755 H   0  0  0  0  0  0  0  0  0  0  0  0
    2.6780   -3.2854   -4.3037 H   0  0  0  0  0  0  0  0  0  0  0  0
    6.1062   -1.3913    1.0772 H   0  0  0  0  0  0  0  0  0  0  0  0
    5.3536   -2.3887    2.8544 H   0  0  0  0  0  0  0  0  0  0  0  0
    2.0110   -2.9504    3.9940 H   0  0  0  0  0  0  0  0  0  0  0  0
  1  2  1  0
  1 25  1  0
  1 26  1  0
  1 27  1  0
  2 24  1  0
  2  3  1  0
  2 28  1  6
  3  4  1  0
  3 29  1  0
  3 50  1  0
  4  6  1  0
  4  5  1  0
  4 30  1  1
  5  6  1  0
  5 31  1  0
  5 32  1  0
  6  7  1  1
  6  8  1  0
  7 33  1  0
  7 34  1  0
  7 35  1  0
  8 13  1  0
  8 24  1  0
  8  9  1  6
  9 10  2  0
  9 36  1  0
 10 11  1  0
 10 37  1  0
 11 23  1  0
 11 12  1  0
 11 15  1  6
 12 13  1  0
 12 38  1  0
 12 39  1  0
 13 14  1  0
 13 40  1  1
 14 41  1  0
 14 42  1  0
 14 43  1  0
 15 16  1  0
 16 17  1  0
 16 22  1  0
 16 44  1  1
 17 21  1  0
 17 18  2  0
 18 19  1  0
 18 45  1  0
 19 20  2  0
 19 46  1  0
 20 21  1  0
 20 47  1  0
 22 23  1  0
 23 24  1  0
 23 48  1  1
 24 49  1  1
M  CHG  1   3   1
M  END
>  <i_m_ct_stereo_status>  (261) 
1

>  <s_m_source_file>  (261) 
/var/tmp/pbs.5076255.sched01/tmph7d3_0rd/117btfl79hs.sdf

>  <i_m_source_file_index>  (261) 
2

>  <i_lp_mmshare_version>  (261) 
48012

>  <i_f3d_flags>  (261) 
0

>  <s_epik_input>  (261) 
W0NIM11bQ0BdMShbQ0BAXTIzNClbQ0BIXShbQ0gyXTEpW05IXVtDQEBIXShbQ0gzXSlbQ0BASF00W0NASF01W0NAQF0oW0NIXT1bQ0hdMikoW0NIMl1bQ0BIXTNbQ0gzXSlPW0NASF0oTzUpYzZbY0hdW2NIXVtjSF1vNg==

>  <s_epik_cmdline>  (261) 
J2VwaWtfcHl0aG9uJywgJy1waHQnLCAnMi4wJywgJy1waCcsICc3LjAnLCAnLXRuJywgJzgnLCAnLW1hJywgJzIwMCcsICctaW1hZScsICc8aW5maWxlLm1hZT4nLCAnLW9tYWUnLCAnPG91dGZpbGUubWFlPic=

>  <r_epik_Ionization_Penalty>  (261) 
0.0175313

>  <r_epik_Ionization_Penalty_Charging>  (261) 
0.0175313

>  <r_epik_Ionization_Penalty_Neutral>  (261) 
8.43288e-14

>  <r_epik_State_Penalty>  (261) 
0.0139004

>  <r_epik_Charging_Adjusted_Penalty>  (261) 
0.0314317

>  <i_epik_Tot_Q>  (261) 
1

>  <i_epik_Tot_abs_Q>  (261) 
1

>  <s_epik_Chemistry_Notes>  (261) 
This compound contains an acetal/aminal-like group ( X-CH(R)-Y where X, Y are N, S, or O) that may be acid/base labile, releasing an aldehyde.

>  <s_lp_Force_Field>  (261) 
OPLS3e

>  <r_lp_Energy>  (261) 
61.6104

>  <b_lp_Chiralities_Consistent>  (261) 
1

>  <s_lp_Variant>  (261) 
89:0-1

>  <s_i_glide_gridfile>  (261) 
pfpi4k_grid

>  <i_i_glide_lignum>  (261) 
2

>  <i_i_glide_rotatable_bonds>  (261) 
1

>  <r_i_docking_score>  (261) 
-3.88015

>  <r_i_glide_ligand_efficiency>  (261) 
-0.161673

>  <r_i_glide_ligand_efficiency_sa>  (261) 
-0.466346

>  <r_i_glide_ligand_efficiency_ln>  (261) 
-0.928699

>  <r_i_glide_gscore>  (261) 
-3.88015

>  <r_i_glide_lipo>  (261) 
-0.944029

>  <r_i_glide_hbond>  (261) 
-0.0470873

>  <r_i_glide_metal>  (261) 
-0

>  <r_i_glide_rewards>  (261) 
-1.16983

>  <r_i_glide_evdw>  (261) 
-27.3286

>  <r_i_glide_ecoul>  (261) 
-3.17067

>  <r_i_glide_erotb>  (261) 
0.174122

>  <r_i_glide_esite>  (261) 
-0.0513005

>  <r_i_glide_emodel>  (261) 
-36.4328

>  <r_i_glide_energy>  (261) 
-30.4993

>  <r_i_glide_einternal>  (261) 
0.725769

>  <r_i_glide_intrahb_reward>  (261) 
-0

>  <i_i_glide_confnum>  (261) 
5

>  <i_i_glide_posenum>  (261) 
15

>  <r_i_glide_eff_state_penalty>  (261) 
0

>  <ligand_id>  (261) 
89

>  <original_smiles>  (261) 
CC1NC2CC2(C)C23C=CC4(CC2C)OC(c2ccco2)OC4C13

>  <smiles>  (261) 
[H]C1=C([H])C23C([H])(C([H])([H])[H])C([H])([H])C14OC([H])(c1oc([H])c([H])c1[H])OC4([H])C2([H])C([H])(C([H])([H])[H])[N+]([H])([H])C1([H])C([H])([H])C31C([H])([H])[H]

$$$$
89:0:1
     RDKit          3D

 50 55  0  0  1  0  0  0  0  0999 V2000
    2.4975    0.7078    2.1272 C   0  0  0  0  0  0  0  0  0  0  0  0
    2.3535   -0.8026    2.4138 C   0  0  2  0  0  0  0  0  0  0  0  0
    1.7906   -0.9241    3.7812 N   0  0  0  0  0  0  0  0  0  0  0  0
    1.8956   -2.2028    4.5307 C   0  0  1  0  0  0  0  0  0  0  0  0
    1.2199   -3.3733    3.9057 C   0  0  0  0  0  0  0  0  0  0  0  0
    2.7504   -3.3257    3.9381 C   0  0  2  0  0  0  0  0  0  0  0  0
    3.4324   -4.2275    4.9596 C   0  0  0  0  0  0  0  0  0  0  0  0
    3.5410   -3.1195    2.6141 C   0  0  1  0  0  0  0  0  0  0  0  0
    4.9795   -3.6901    2.5820 C   0  0  0  0  0  0  0  0  0  0  0  0
    5.6717   -3.4861    1.4455 C   0  0  0  0  0  0  0  0  0  0  0  0
    4.9116   -2.6924    0.4028 C   0  0  2  0  0  0  0  0  0  0  0  0
    3.5994   -3.4403    0.0759 C   0  0  0  0  0  0  0  0  0  0  0  0
    2.8397   -3.7902    1.3787 C   0  0  1  0  0  0  0  0  0  0  0  0
    2.6565   -5.3178    1.5052 C   0  0  0  0  0  0  0  0  0  0  0  0
    5.6161   -2.2758   -0.7474 O   0  0  0  0  0  0  0  0  0  0  0  0
    5.0254   -1.0575   -1.0947 C   0  0  1  0  0  0  0  0  0  0  0  0
    4.2709   -1.2050   -2.3847 C   0  0  0  0  0  0  0  0  0  0  0  0
    3.8240   -0.3042   -3.3060 C   0  0  0  0  0  0  0  0  0  0  0  0
    3.1396   -1.0452   -4.3035 C   0  0  0  0  0  0  0  0  0  0  0  0
    3.2152   -2.3518   -3.9175 C   0  0  0  0  0  0  0  0  0  0  0  0
    3.9294   -2.4735   -2.7688 O   0  0  0  0  0  0  0  0  0  0  0  0
    4.1251   -0.6621   -0.0968 O   0  0  0  0  0  0  0  0  0  0  0  0
    4.5773   -1.3542    1.0482 C   0  0  1  0  0  0  0  0  0  0  0  0
    3.6891   -1.5784    2.3240 C   0  0  1  0  0  0  0  0  0  0  0  0
    2.7672    0.8997    1.0911 H   0  0  0  0  0  0  0  0  0  0  0  0
    3.2556    1.1814    2.7590 H   0  0  0  0  0  0  0  0  0  0  0  0
    1.5557    1.2354    2.2967 H   0  0  0  0  0  0  0  0  0  0  0  0
    1.6383   -1.2123    1.7017 H   0  0  0  0  0  0  0  0  0  0  0  0
    2.3298   -0.2770    4.3352 H   0  0  0  0  0  0  0  0  0  0  0  0
    1.7741   -2.0865    5.6048 H   0  0  0  0  0  0  0  0  0  0  0  0
    0.7519   -4.0903    4.5786 H   0  0  0  0  0  0  0  0  0  0  0  0
    0.6734   -3.2132    2.9797 H   0  0  0  0  0  0  0  0  0  0  0  0
    3.6291   -5.2226    4.5549 H   0  0  0  0  0  0  0  0  0  0  0  0
    2.7988   -4.3547    5.8424 H   0  0  0  0  0  0  0  0  0  0  0  0
    4.3652   -3.7798    5.3082 H   0  0  0  0  0  0  0  0  0  0  0  0
    5.3872   -4.2695    3.3929 H   0  0  0  0  0  0  0  0  0  0  0  0
    6.6675   -3.8534    1.2568 H   0  0  0  0  0  0  0  0  0  0  0  0
    2.9373   -2.8233   -0.5359 H   0  0  0  0  0  0  0  0  0  0  0  0
    3.8306   -4.3245   -0.5142 H   0  0  0  0  0  0  0  0  0  0  0  0
    1.8505   -3.3621    1.2447 H   0  0  0  0  0  0  0  0  0  0  0  0
    3.6125   -5.8352    1.5710 H   0  0  0  0  0  0  0  0  0  0  0  0
    2.1340   -5.7248    0.6365 H   0  0  0  0  0  0  0  0  0  0  0  0
    2.0764   -5.5818    2.3874 H   0  0  0  0  0  0  0  0  0  0  0  0
    5.8009   -0.2986   -1.2015 H   0  0  0  0  0  0  0  0  0  0  0  0
    3.9689    0.7703   -3.2644 H   0  0  0  0  0  0  0  0  0  0  0  0
    2.6390   -0.6559   -5.1768 H   0  0  0  0  0  0  0  0  0  0  0  0
    2.8264   -3.2774   -4.3145 H   0  0  0  0  0  0  0  0  0  0  0  0
    5.5058   -0.8709    1.3693 H   0  0  0  0  0  0  0  0  0  0  0  0
    4.3009   -1.1938    3.1479 H   0  0  0  0  0  0  0  0  0  0  0  0
    0.8317   -0.6080    3.7735 H   0  0  0  0  0  0  0  0  0  0  0  0
  1  2  1  0
  1 25  1  0
  1 26  1  0
  1 27  1  0
  2 24  1  0
  2  3  1  0
  2 28  1  6
  3  4  1  0
  3 29  1  0
  3 50  1  0
  4  6  1  0
  4  5  1  0
  4 30  1  1
  5  6  1  0
  5 31  1  0
  5 32  1  0
  6  7  1  1
  6  8  1  0
  7 33  1  0
  7 34  1  0
  7 35  1  0
  8 13  1  0
  8 24  1  0
  8  9  1  1
  9 10  2  0
  9 36  1  0
 10 11  1  0
 10 37  1  0
 11 23  1  0
 11 12  1  0
 11 15  1  6
 12 13  1  0
 12 38  1  0
 12 39  1  0
 13 14  1  0
 13 40  1  6
 14 41  1  0
 14 42  1  0
 14 43  1  0
 15 16  1  0
 16 17  1  0
 16 22  1  0
 16 44  1  6
 17 21  1  0
 17 18  2  0
 18 19  1  0
 18 45  1  0
 19 20  2  0
 19 46  1  0
 20 21  1  0
 20 47  1  0
 22 23  1  0
 23 24  1  0
 23 48  1  1
 24 49  1  1
M  CHG  1   3   1
M  END
>  <i_m_ct_stereo_status>  (262) 
1

>  <s_m_source_file>  (262) 
/var/tmp/pbs.5076255.sched01/tmph7d3_0rd/117btfl79hs.sdf

>  <i_m_source_file_index>  (262) 
2

>  <i_lp_mmshare_version>  (262) 
48012

>  <i_f3d_flags>  (262) 
0

>  <s_epik_input>  (262) 
W0NIM11bQ0BdMShbQ0BAXTIzNClbQ0BIXShbQ0gyXTEpW05IXVtDQEBIXShbQ0gzXSlbQ0BASF00W0NASF01W0NAQF0oW0NIXT1bQ0hdMikoW0NIMl1bQ0BIXTNbQ0gzXSlPW0NASF0oTzUpYzZbY0hdW2NIXVtjSF1vNg==

>  <s_epik_cmdline>  (262) 
J2VwaWtfcHl0aG9uJywgJy1waHQnLCAnMi4wJywgJy1waCcsICc3LjAnLCAnLXRuJywgJzgnLCAnLW1hJywgJzIwMCcsICctaW1hZScsICc8aW5maWxlLm1hZT4nLCAnLW9tYWUnLCAnPG91dGZpbGUubWFlPic=

>  <r_epik_Ionization_Penalty>  (262) 
0.0175313

>  <r_epik_Ionization_Penalty_Charging>  (262) 
0.0175313

>  <r_epik_Ionization_Penalty_Neutral>  (262) 
8.43288e-14

>  <r_epik_State_Penalty>  (262) 
0.0139004

>  <r_epik_Charging_Adjusted_Penalty>  (262) 
0.0314317

>  <i_epik_Tot_Q>  (262) 
1

>  <i_epik_Tot_abs_Q>  (262) 
1

>  <s_epik_Chemistry_Notes>  (262) 
This compound contains an acetal/aminal-like group ( X-CH(R)-Y where X, Y are N, S, or O) that may be acid/base labile, releasing an aldehyde.

>  <s_lp_Force_Field>  (262) 
OPLS3e

>  <r_lp_Energy>  (262) 
61.6104

>  <b_lp_Chiralities_Consistent>  (262) 
1

>  <s_lp_Variant>  (262) 
89:0-1

>  <s_i_glide_gridfile>  (262) 
pfpi4k_grid

>  <i_i_glide_lignum>  (262) 
2

>  <i_i_glide_rotatable_bonds>  (262) 
1

>  <r_i_docking_score>  (262) 
-3.48153

>  <r_i_glide_ligand_efficiency>  (262) 
-0.145064

>  <r_i_glide_ligand_efficiency_sa>  (262) 
-0.418436

>  <r_i_glide_ligand_efficiency_ln>  (262) 
-0.833289

>  <r_i_glide_gscore>  (262) 
-3.48153

>  <r_i_glide_lipo>  (262) 
-0.536474

>  <r_i_glide_hbond>  (262) 
0

>  <r_i_glide_metal>  (262) 
-0

>  <r_i_glide_rewards>  (262) 
-1.16983

>  <r_i_glide_evdw>  (262) 
-27.4474

>  <r_i_glide_ecoul>  (262) 
-3.54209

>  <r_i_glide_erotb>  (262) 
0.174122

>  <r_i_glide_esite>  (262) 
-0.0456654

>  <r_i_glide_emodel>  (262) 
-36.7283

>  <r_i_glide_energy>  (262) 
-30.9894

>  <r_i_glide_einternal>  (262) 
0.203373

>  <r_i_glide_intrahb_reward>  (262) 
-0

>  <i_i_glide_confnum>  (262) 
5

>  <i_i_glide_posenum>  (262) 
27

>  <r_i_glide_eff_state_penalty>  (262) 
0

>  <ligand_id>  (262) 
89

>  <original_smiles>  (262) 
CC1NC2CC2(C)C23C=CC4(CC2C)OC(c2ccco2)OC4C13

>  <smiles>  (262) 
[H]C1=C([H])C23C([H])(C([H])([H])[H])C([H])([H])C14OC([H])(c1oc([H])c([H])c1[H])OC4([H])C2([H])C([H])(C([H])([H])[H])[N+]([H])([H])C1([H])C([H])([H])C31C([H])([H])[H]

$$$$
89:0:2
     RDKit          3D

 50 55  0  0  1  0  0  0  0  0999 V2000
    2.2267    0.9162    2.0409 C   0  0  0  0  0  0  0  0  0  0  0  0
    2.1563   -0.5549    2.5094 C   0  0  2  0  0  0  0  0  0  0  0  0
    1.5534   -0.5384    3.8639 N   0  0  0  0  0  0  0  0  0  0  0  0
    1.6976   -1.7069    4.7698 C   0  0  1  0  0  0  0  0  0  0  0  0
    1.1148   -2.9871    4.2754 C   0  0  0  0  0  0  0  0  0  0  0  0
    2.6413   -2.8354    4.3530 C   0  0  2  0  0  0  0  0  0  0  0  0
    3.3306   -3.5622    5.4991 C   0  0  0  0  0  0  0  0  0  0  0  0
    3.4646   -2.7486    3.0383 C   0  0  1  0  0  0  0  0  0  0  0  0
    4.9332   -3.2318    3.1212 C   0  0  0  0  0  0  0  0  0  0  0  0
    5.6536   -3.1283    1.9886 C   0  0  0  0  0  0  0  0  0  0  0  0
    4.8958   -2.5172    0.8347 C   0  0  2  0  0  0  0  0  0  0  0  0
    3.6367   -3.3792    0.5734 C   0  0  0  0  0  0  0  0  0  0  0  0
    2.8480   -3.6130    1.8822 C   0  0  1  0  0  0  0  0  0  0  0  0
    2.7484   -5.1207    2.1937 C   0  0  0  0  0  0  0  0  0  0  0  0
    5.6300   -2.2014   -0.3317 O   0  0  0  0  0  0  0  0  0  0  0  0
    4.9774   -1.0795   -0.8616 C   0  0  1  0  0  0  0  0  0  0  0  0
    4.3079   -1.4729   -2.1481 C   0  0  0  0  0  0  0  0  0  0  0  0
    3.7518   -2.6347   -2.6204 C   0  0  0  0  0  0  0  0  0  0  0  0
    3.2587   -2.3494   -3.9202 C   0  0  0  0  0  0  0  0  0  0  0  0
    3.5749   -1.0440   -4.1602 C   0  0  0  0  0  0  0  0  0  0  0  0
    4.2131   -0.4946   -3.0951 O   0  0  0  0  0  0  0  0  0  0  0  0
    4.0036   -0.6410    0.0440 O   0  0  0  0  0  0  0  0  0  0  0  0
    4.4580   -1.1325    1.2905 C   0  0  1  0  0  0  0  0  0  0  0  0
    3.5372   -1.2497    2.5578 C   0  0  1  0  0  0  0  0  0  0  0  0
    2.5215    0.9808    0.9965 H   0  0  0  0  0  0  0  0  0  0  0  0
    2.9351    1.5078    2.6286 H   0  0  0  0  0  0  0  0  0  0  0  0
    1.2496    1.4014    2.1128 H   0  0  0  0  0  0  0  0  0  0  0  0
    1.4938   -1.0929    1.8311 H   0  0  0  0  0  0  0  0  0  0  0  0
    2.0318    0.2090    4.3454 H   0  0  0  0  0  0  0  0  0  0  0  0
    1.5347   -1.4624    5.8160 H   0  0  0  0  0  0  0  0  0  0  0  0
    0.6593   -3.6378    5.0175 H   0  0  0  0  0  0  0  0  0  0  0  0
    0.5980   -2.9740    3.3207 H   0  0  0  0  0  0  0  0  0  0  0  0
    3.6004   -4.5859    5.2274 H   0  0  0  0  0  0  0  0  0  0  0  0
    2.6730   -3.6168    6.3707 H   0  0  0  0  0  0  0  0  0  0  0  0
    4.2233   -3.0180    5.8132 H   0  0  0  0  0  0  0  0  0  0  0  0
    5.3462   -3.6801    4.0098 H   0  0  0  0  0  0  0  0  0  0  0  0
    6.6721   -3.4584    1.8725 H   0  0  0  0  0  0  0  0  0  0  0  0
    2.9548   -2.8786   -0.1138 H   0  0  0  0  0  0  0  0  0  0  0  0
    3.9395   -4.3185    0.1106 H   0  0  0  0  0  0  0  0  0  0  0  0
    1.8387   -3.2724    1.6648 H   0  0  0  0  0  0  0  0  0  0  0  0
    3.7314   -5.5674    2.3514 H   0  0  0  0  0  0  0  0  0  0  0  0
    2.2822   -5.6612    1.3678 H   0  0  0  0  0  0  0  0  0  0  0  0
    2.1516   -5.3094    3.0834 H   0  0  0  0  0  0  0  0  0  0  0  0
    5.7095   -0.2902   -1.0287 H   0  0  0  0  0  0  0  0  0  0  0  0
    3.6897   -3.5843   -2.1084 H   0  0  0  0  0  0  0  0  0  0  0  0
    2.7401   -3.0190   -4.5906 H   0  0  0  0  0  0  0  0  0  0  0  0
    3.4215   -0.3931   -5.0062 H   0  0  0  0  0  0  0  0  0  0  0  0
    5.3439   -0.5536    1.5736 H   0  0  0  0  0  0  0  0  0  0  0  0
    4.0956   -0.7309    3.3443 H   0  0  0  0  0  0  0  0  0  0  0  0
    0.5778   -0.2841    3.7853 H   0  0  0  0  0  0  0  0  0  0  0  0
  1  2  1  0
  1 25  1  0
  1 26  1  0
  1 27  1  0
  2 24  1  0
  2  3  1  0
  2 28  1  6
  3  4  1  0
  3 29  1  0
  3 50  1  0
  4  6  1  0
  4  5  1  0
  4 30  1  1
  5  6  1  0
  5 31  1  0
  5 32  1  0
  6  7  1  1
  6  8  1  0
  7 33  1  0
  7 34  1  0
  7 35  1  0
  8 13  1  0
  8 24  1  0
  8  9  1  1
  9 10  2  0
  9 36  1  0
 10 11  1  0
 10 37  1  0
 11 23  1  0
 11 12  1  0
 11 15  1  6
 12 13  1  0
 12 38  1  0
 12 39  1  0
 13 14  1  0
 13 40  1  6
 14 41  1  0
 14 42  1  0
 14 43  1  0
 15 16  1  0
 16 17  1  0
 16 22  1  0
 16 44  1  6
 17 21  1  0
 17 18  2  0
 18 19  1  0
 18 45  1  0
 19 20  2  0
 19 46  1  0
 20 21  1  0
 20 47  1  0
 22 23  1  0
 23 24  1  0
 23 48  1  1
 24 49  1  1
M  CHG  1   3   1
M  END
>  <i_m_ct_stereo_status>  (263) 
1

>  <s_m_source_file>  (263) 
/var/tmp/pbs.5076255.sched01/tmph7d3_0rd/117btfl79hs.sdf

>  <i_m_source_file_index>  (263) 
2

>  <i_lp_mmshare_version>  (263) 
48012

>  <i_f3d_flags>  (263) 
0

>  <s_epik_input>  (263) 
W0NIM11bQ0BdMShbQ0BAXTIzNClbQ0BIXShbQ0gyXTEpW05IXVtDQEBIXShbQ0gzXSlbQ0BASF00W0NASF01W0NAQF0oW0NIXT1bQ0hdMikoW0NIMl1bQ0BIXTNbQ0gzXSlPW0NASF0oTzUpYzZbY0hdW2NIXVtjSF1vNg==

>  <s_epik_cmdline>  (263) 
J2VwaWtfcHl0aG9uJywgJy1waHQnLCAnMi4wJywgJy1waCcsICc3LjAnLCAnLXRuJywgJzgnLCAnLW1hJywgJzIwMCcsICctaW1hZScsICc8aW5maWxlLm1hZT4nLCAnLW9tYWUnLCAnPG91dGZpbGUubWFlPic=

>  <r_epik_Ionization_Penalty>  (263) 
0.0175313

>  <r_epik_Ionization_Penalty_Charging>  (263) 
0.0175313

>  <r_epik_Ionization_Penalty_Neutral>  (263) 
8.43288e-14

>  <r_epik_State_Penalty>  (263) 
0.0139004

>  <r_epik_Charging_Adjusted_Penalty>  (263) 
0.0314317

>  <i_epik_Tot_Q>  (263) 
1

>  <i_epik_Tot_abs_Q>  (263) 
1

>  <s_epik_Chemistry_Notes>  (263) 
This compound contains an acetal/aminal-like group ( X-CH(R)-Y where X, Y are N, S, or O) that may be acid/base labile, releasing an aldehyde.

>  <s_lp_Force_Field>  (263) 
OPLS3e

>  <r_lp_Energy>  (263) 
61.6104

>  <b_lp_Chiralities_Consistent>  (263) 
1

>  <s_lp_Variant>  (263) 
89:0-1

>  <s_i_glide_gridfile>  (263) 
pfpi4k_grid

>  <i_i_glide_lignum>  (263) 
2

>  <i_i_glide_rotatable_bonds>  (263) 
1

>  <r_i_docking_score>  (263) 
-3.27059

>  <r_i_glide_ligand_efficiency>  (263) 
-0.136274

>  <r_i_glide_ligand_efficiency_sa>  (263) 
-0.393083

>  <r_i_glide_ligand_efficiency_ln>  (263) 
-0.782801

>  <r_i_glide_gscore>  (263) 
-3.27059

>  <r_i_glide_lipo>  (263) 
-0.346344

>  <r_i_glide_hbond>  (263) 
0

>  <r_i_glide_metal>  (263) 
-0

>  <r_i_glide_rewards>  (263) 
-1.16983

>  <r_i_glide_evdw>  (263) 
-27.9778

>  <r_i_glide_ecoul>  (263) 
-3.24066

>  <r_i_glide_erotb>  (263) 
0.174122

>  <r_i_glide_esite>  (263) 
-0.0435466

>  <r_i_glide_emodel>  (263) 
-35.8365

>  <r_i_glide_energy>  (263) 
-31.2185

>  <r_i_glide_einternal>  (263) 
1.45073

>  <r_i_glide_intrahb_reward>  (263) 
-0

>  <i_i_glide_confnum>  (263) 
5

>  <i_i_glide_posenum>  (263) 
34

>  <r_i_glide_eff_state_penalty>  (263) 
0

>  <ligand_id>  (263) 
89

>  <original_smiles>  (263) 
CC1NC2CC2(C)C23C=CC4(CC2C)OC(c2ccco2)OC4C13

>  <smiles>  (263) 
[H]C1=C([H])C23C([H])(C([H])([H])[H])C([H])([H])C14OC([H])(c1oc([H])c([H])c1[H])OC4([H])C2([H])C([H])(C([H])([H])[H])[N+]([H])([H])C1([H])C([H])([H])C31C([H])([H])[H]

$$$$
89:1:0
     RDKit          3D

 49 54  0  0  1  0  0  0  0  0999 V2000
    4.8425   -0.4024    2.4846 C   0  0  0  0  0  0  0  0  0  0  0  0
    4.1376   -1.7542    2.7258 C   0  0  2  0  0  0  0  0  0  0  0  0
    3.9361   -1.8349    4.1729 N   0  0  0  0  0  0  0  0  0  0  0  0
    3.6177   -3.1322    4.7688 C   0  0  1  0  0  0  0  0  0  0  0  0
    2.3824   -3.8505    4.3402 C   0  0  0  0  0  0  0  0  0  0  0  0
    3.7425   -4.4257    3.9569 C   0  0  2  0  0  0  0  0  0  0  0  0
    4.2020   -5.6568    4.7282 C   0  0  0  0  0  0  0  0  0  0  0  0
    4.2277   -4.3474    2.4794 C   0  0  1  0  0  0  0  0  0  0  0  0
    5.2249   -5.4385    2.0292 C   0  0  0  0  0  0  0  0  0  0  0  0
    5.6730   -5.3413    0.7644 C   0  0  0  0  0  0  0  0  0  0  0  0
    5.1352   -4.1401    0.0134 C   0  0  2  0  0  0  0  0  0  0  0  0
    3.5903   -4.2266    0.0005 C   0  0  0  0  0  0  0  0  0  0  0  0
    3.0495   -4.4460    1.4406 C   0  0  1  0  0  0  0  0  0  0  0  0
    2.2498   -5.7643    1.5315 C   0  0  0  0  0  0  0  0  0  0  0  0
    5.6901   -3.8636   -1.2537 O   0  0  0  0  0  0  0  0  0  0  0  0
    5.6351   -2.4684   -1.3699 C   0  0  1  0  0  0  0  0  0  0  0  0
    4.6154   -2.0902   -2.4128 C   0  0  0  0  0  0  0  0  0  0  0  0
    4.2173   -0.8874   -2.9393 C   0  0  0  0  0  0  0  0  0  0  0  0
    3.2243   -1.1815   -3.9157 C   0  0  0  0  0  0  0  0  0  0  0  0
    3.0746   -2.5405   -3.9009 C   0  0  0  0  0  0  0  0  0  0  0  0
    3.9256   -3.1061   -3.0058 O   0  0  0  0  0  0  0  0  0  0  0  0
    5.2403   -1.9052   -0.1452 O   0  0  0  0  0  0  0  0  0  0  0  0
    5.5672   -2.9097    0.7998 C   0  0  1  0  0  0  0  0  0  0  0  0
    4.9621   -2.9722    2.2487 C   0  0  1  0  0  0  0  0  0  0  0  0
    4.8757   -0.1470    1.4265 H   0  0  0  0  0  0  0  0  0  0  0  0
    5.8698   -0.4037    2.8551 H   0  0  0  0  0  0  0  0  0  0  0  0
    4.3154    0.4171    2.9751 H   0  0  0  0  0  0  0  0  0  0  0  0
    3.1687   -1.7398    2.2300 H   0  0  0  0  0  0  0  0  0  0  0  0
    3.2979   -1.1176    4.4854 H   0  0  0  0  0  0  0  0  0  0  0  0
    3.8089   -3.2341    5.8375 H   0  0  0  0  0  0  0  0  0  0  0  0
    1.8362   -4.3739    5.1199 H   0  0  0  0  0  0  0  0  0  0  0  0
    1.7499   -3.3552    3.6100 H   0  0  0  0  0  0  0  0  0  0  0  0
    3.8578   -6.5763    4.2562 H   0  0  0  0  0  0  0  0  0  0  0  0
    3.8006   -5.6416    5.7427 H   0  0  0  0  0  0  0  0  0  0  0  0
    5.2872   -5.6704    4.8204 H   0  0  0  0  0  0  0  0  0  0  0  0
    5.5072   -6.2620    2.6672 H   0  0  0  0  0  0  0  0  0  0  0  0
    6.3471   -6.0431    0.2956 H   0  0  0  0  0  0  0  0  0  0  0  0
    3.1502   -3.3147   -0.4064 H   0  0  0  0  0  0  0  0  0  0  0  0
    3.2891   -5.0333   -0.6678 H   0  0  0  0  0  0  0  0  0  0  0  0
    2.3415   -3.6380    1.6073 H   0  0  0  0  0  0  0  0  0  0  0  0
    2.8723   -6.6330    1.3100 H   0  0  0  0  0  0  0  0  0  0  0  0
    1.4245   -5.7736    0.8190 H   0  0  0  0  0  0  0  0  0  0  0  0
    1.8262   -5.9090    2.5247 H   0  0  0  0  0  0  0  0  0  0  0  0
    6.6231   -2.1082   -1.6552 H   0  0  0  0  0  0  0  0  0  0  0  0
    4.6041    0.0825   -2.6567 H   0  0  0  0  0  0  0  0  0  0  0  0
    2.6766   -0.4935   -4.5383 H   0  0  0  0  0  0  0  0  0  0  0  0
    2.4369   -3.2231   -4.4401 H   0  0  0  0  0  0  0  0  0  0  0  0
    6.6562   -2.9128    0.8934 H   0  0  0  0  0  0  0  0  0  0  0  0
    5.8304   -3.0043    2.9084 H   0  0  0  0  0  0  0  0  0  0  0  0
  1  2  1  0
  1 25  1  0
  1 26  1  0
  1 27  1  0
  2 24  1  0
  2  3  1  0
  2 28  1  6
  3  4  1  0
  3 29  1  0
  4  6  1  0
  4  5  1  0
  4 30  1  1
  5  6  1  0
  5 31  1  0
  5 32  1  0
  6  7  1  1
  6  8  1  0
  7 33  1  0
  7 34  1  0
  7 35  1  0
  8 13  1  0
  8 24  1  0
  8  9  1  6
  9 10  2  0
  9 36  1  0
 10 11  1  0
 10 37  1  0
 11 23  1  0
 11 12  1  0
 11 15  1  6
 12 13  1  0
 12 38  1  0
 12 39  1  0
 13 14  1  0
 13 40  1  1
 14 41  1  0
 14 42  1  0
 14 43  1  0
 15 16  1  0
 16 17  1  0
 16 22  1  0
 16 44  1  6
 17 21  1  0
 17 18  2  0
 18 19  1  0
 18 45  1  0
 19 20  2  0
 19 46  1  0
 20 21  1  0
 20 47  1  0
 22 23  1  0
 23 24  1  0
 23 48  1  1
 24 49  1  1
M  END
>  <i_m_ct_stereo_status>  (264) 
1

>  <s_m_source_file>  (264) 
/var/tmp/pbs.5076255.sched01/tmph7d3_0rd/117btfl79hs.sdf

>  <i_m_source_file_index>  (264) 
3

>  <i_lp_mmshare_version>  (264) 
48012

>  <i_f3d_flags>  (264) 
0

>  <s_epik_input>  (264) 
W0NIM11bQ0BdMShbQ0BAXTIzNClbQ0BIXShbQ0gyXTEpW05IXVtDQEBIXShbQ0gzXSlbQ0BASF00W0NASF01W0NAQF0oW0NIXT1bQ0hdMikoW0NIMl1bQ0BIXTNbQ0gzXSlPW0NASF0oTzUpYzZbY0hdW2NIXVtjSF1vNg==

>  <s_epik_cmdline>  (264) 
J2VwaWtfcHl0aG9uJywgJy1waHQnLCAnMi4wJywgJy1waCcsICc3LjAnLCAnLXRuJywgJzgnLCAnLW1hJywgJzIwMCcsICctaW1hZScsICc8aW5maWxlLm1hZT4nLCAnLW9tYWUnLCAnPG91dGZpbGUubWFlPic=

>  <r_epik_Ionization_Penalty>  (264) 
2.09449

>  <r_epik_Ionization_Penalty_Charging>  (264) 
0

>  <r_epik_Ionization_Penalty_Neutral>  (264) 
2.09449

>  <r_epik_State_Penalty>  (264) 
2.23019

>  <r_epik_Charging_Adjusted_Penalty>  (264) 
2.23019

>  <i_epik_Tot_Q>  (264) 
0

>  <i_epik_Tot_abs_Q>  (264) 
0

>  <s_epik_Chemistry_Notes>  (264) 
This compound contains an acetal/aminal-like group ( X-CH(R)-Y where X, Y are N, S, or O) that may be acid/base labile, releasing an aldehyde.

>  <s_lp_Force_Field>  (264) 
OPLS3e

>  <r_lp_Energy>  (264) 
57.7802

>  <b_lp_Chiralities_Consistent>  (264) 
1

>  <s_lp_Variant>  (264) 
89:0-2

>  <s_i_glide_gridfile>  (264) 
pfpi4k_grid

>  <i_i_glide_lignum>  (264) 
3

>  <i_i_glide_rotatable_bonds>  (264) 
1

>  <r_i_docking_score>  (264) 
-3.12554

>  <r_i_glide_ligand_efficiency>  (264) 
-0.130231

>  <r_i_glide_ligand_efficiency_sa>  (264) 
-0.375651

>  <r_i_glide_ligand_efficiency_ln>  (264) 
-0.748085

>  <r_i_glide_gscore>  (264) 
-3.12554

>  <r_i_glide_lipo>  (264) 
-0.779604

>  <r_i_glide_hbond>  (264) 
0

>  <r_i_glide_metal>  (264) 
-0

>  <r_i_glide_rewards>  (264) 
-1.1767

>  <r_i_glide_evdw>  (264) 
-27.6188

>  <r_i_glide_ecoul>  (264) 
0.394512

>  <r_i_glide_erotb>  (264) 
0.17507

>  <r_i_glide_esite>  (264) 
-0.0225452

>  <r_i_glide_emodel>  (264) 
-32.3302

>  <r_i_glide_energy>  (264) 
-27.2243

>  <r_i_glide_einternal>  (264) 
0.00742714

>  <r_i_glide_intrahb_reward>  (264) 
-0

>  <i_i_glide_confnum>  (264) 
1

>  <i_i_glide_posenum>  (264) 
8

>  <r_i_glide_eff_state_penalty>  (264) 
0

>  <ligand_id>  (264) 
89

>  <original_smiles>  (264) 
CC1NC2CC2(C)C23C=CC4(CC2C)OC(c2ccco2)OC4C13

>  <smiles>  (264) 
[H]C1=C([H])C23C([H])(C([H])([H])[H])C([H])([H])C14OC([H])(c1oc([H])c([H])c1[H])OC4([H])C2([H])C([H])(C([H])([H])[H])N([H])C1([H])C([H])([H])C13C([H])([H])[H]

$$$$
89:1:1
     RDKit          3D

 49 54  0  0  1  0  0  0  0  0999 V2000
    1.9668    0.0337    2.1825 C   0  0  0  0  0  0  0  0  0  0  0  0
    2.0853   -1.4832    2.4474 C   0  0  2  0  0  0  0  0  0  0  0  0
    1.4758   -1.7026    3.7595 N   0  0  0  0  0  0  0  0  0  0  0  0
    1.7410   -2.9583    4.4633 C   0  0  1  0  0  0  0  0  0  0  0  0
    1.3379   -4.2475    3.8315 C   0  0  0  0  0  0  0  0  0  0  0  0
    2.8219   -3.9260    3.9686 C   0  0  2  0  0  0  0  0  0  0  0  0
    3.5815   -4.6898    5.0444 C   0  0  0  0  0  0  0  0  0  0  0  0
    3.6516   -3.5517    2.7053 C   0  0  1  0  0  0  0  0  0  0  0  0
    5.1627   -3.8663    2.7626 C   0  0  0  0  0  0  0  0  0  0  0  0
    5.8832   -3.5059    1.6842 C   0  0  0  0  0  0  0  0  0  0  0  0
    5.0712   -2.8130    0.6126 C   0  0  2  0  0  0  0  0  0  0  0  0
    3.9399   -3.7712    0.1693 C   0  0  0  0  0  0  0  0  0  0  0  0
    3.1577   -4.2873    1.4052 C   0  0  1  0  0  0  0  0  0  0  0  0
    3.2281   -5.8258    1.4901 C   0  0  0  0  0  0  0  0  0  0  0  0
    5.7773   -2.2507   -0.4719 O   0  0  0  0  0  0  0  0  0  0  0  0
    5.0148   -1.1299   -0.8383 C   0  0  1  0  0  0  0  0  0  0  0  0
    4.3999   -1.3713   -2.1920 C   0  0  0  0  0  0  0  0  0  0  0  0
    3.8354   -0.5399   -3.1208 C   0  0  0  0  0  0  0  0  0  0  0  0
    3.4166   -1.3597   -4.2044 C   0  0  0  0  0  0  0  0  0  0  0  0
    3.7527   -2.6373   -3.8530 C   0  0  0  0  0  0  0  0  0  0  0  0
    4.3766   -2.6588   -2.6492 O   0  0  0  0  0  0  0  0  0  0  0  0
    3.9813   -0.9386    0.0907 O   0  0  0  0  0  0  0  0  0  0  0  0
    4.4657   -1.5736    1.2592 C   0  0  1  0  0  0  0  0  0  0  0  0
    3.5452   -1.9984    2.4581 C   0  0  1  0  0  0  0  0  0  0  0  0
    2.2116    0.2820    1.1506 H   0  0  0  0  0  0  0  0  0  0  0  0
    2.6281    0.6142    2.8281 H   0  0  0  0  0  0  0  0  0  0  0  0
    0.9491    0.3918    2.3418 H   0  0  0  0  0  0  0  0  0  0  0  0
    1.5064   -2.0125    1.6928 H   0  0  0  0  0  0  0  0  0  0  0  0
    0.4908   -1.4832    3.7379 H   0  0  0  0  0  0  0  0  0  0  0  0
    1.5790   -2.9542    5.5406 H   0  0  0  0  0  0  0  0  0  0  0  0
    0.9370   -5.0067    4.4984 H   0  0  0  0  0  0  0  0  0  0  0  0
    0.8331   -4.1871    2.8768 H   0  0  0  0  0  0  0  0  0  0  0  0
    3.9785   -5.6296    4.6628 H   0  0  0  0  0  0  0  0  0  0  0  0
    2.9190   -4.9306    5.8774 H   0  0  0  0  0  0  0  0  0  0  0  0
    4.3882   -4.0809    5.4489 H   0  0  0  0  0  0  0  0  0  0  0  0
    5.6115   -4.3903    3.5917 H   0  0  0  0  0  0  0  0  0  0  0  0
    6.9428   -3.6812    1.5644 H   0  0  0  0  0  0  0  0  0  0  0  0
    3.2349   -3.2645   -0.4905 H   0  0  0  0  0  0  0  0  0  0  0  0
    4.3718   -4.5890   -0.4115 H   0  0  0  0  0  0  0  0  0  0  0  0
    2.1215   -4.0311    1.2103 H   0  0  0  0  0  0  0  0  0  0  0  0
    4.2535   -6.1789    1.6139 H   0  0  0  0  0  0  0  0  0  0  0  0
    2.8366   -6.2836    0.5807 H   0  0  0  0  0  0  0  0  0  0  0  0
    2.6447   -6.2095    2.3257 H   0  0  0  0  0  0  0  0  0  0  0  0
    5.6659   -0.2538   -0.8608 H   0  0  0  0  0  0  0  0  0  0  0  0
    3.7350    0.5331   -3.0364 H   0  0  0  0  0  0  0  0  0  0  0  0
    2.9299   -1.0519   -5.1159 H   0  0  0  0  0  0  0  0  0  0  0  0
    3.6318   -3.6016   -4.3254 H   0  0  0  0  0  0  0  0  0  0  0  0
    5.2686   -0.9470    1.6585 H   0  0  0  0  0  0  0  0  0  0  0  0
    4.0065   -1.5384    3.3346 H   0  0  0  0  0  0  0  0  0  0  0  0
  1  2  1  0
  1 25  1  0
  1 26  1  0
  1 27  1  0
  2 24  1  0
  2  3  1  0
  2 28  1  6
  3  4  1  0
  3 29  1  0
  4  6  1  0
  4  5  1  0
  4 30  1  1
  5  6  1  0
  5 31  1  0
  5 32  1  0
  6  7  1  1
  6  8  1  0
  7 33  1  0
  7 34  1  0
  7 35  1  0
  8 13  1  0
  8 24  1  0
  8  9  1  1
  9 10  2  0
  9 36  1  0
 10 11  1  0
 10 37  1  0
 11 23  1  0
 11 12  1  0
 11 15  1  6
 12 13  1  0
 12 38  1  0
 12 39  1  0
 13 14  1  0
 13 40  1  6
 14 41  1  0
 14 42  1  0
 14 43  1  0
 15 16  1  0
 16 17  1  0
 16 22  1  0
 16 44  1  6
 17 21  1  0
 17 18  2  0
 18 19  1  0
 18 45  1  0
 19 20  2  0
 19 46  1  0
 20 21  1  0
 20 47  1  0
 22 23  1  0
 23 24  1  0
 23 48  1  1
 24 49  1  1
M  END
>  <i_m_ct_stereo_status>  (265) 
1

>  <s_m_source_file>  (265) 
/var/tmp/pbs.5076255.sched01/tmph7d3_0rd/117btfl79hs.sdf

>  <i_m_source_file_index>  (265) 
3

>  <i_lp_mmshare_version>  (265) 
48012

>  <i_f3d_flags>  (265) 
0

>  <s_epik_input>  (265) 
W0NIM11bQ0BdMShbQ0BAXTIzNClbQ0BIXShbQ0gyXTEpW05IXVtDQEBIXShbQ0gzXSlbQ0BASF00W0NASF01W0NAQF0oW0NIXT1bQ0hdMikoW0NIMl1bQ0BIXTNbQ0gzXSlPW0NASF0oTzUpYzZbY0hdW2NIXVtjSF1vNg==

>  <s_epik_cmdline>  (265) 
J2VwaWtfcHl0aG9uJywgJy1waHQnLCAnMi4wJywgJy1waCcsICc3LjAnLCAnLXRuJywgJzgnLCAnLW1hJywgJzIwMCcsICctaW1hZScsICc8aW5maWxlLm1hZT4nLCAnLW9tYWUnLCAnPG91dGZpbGUubWFlPic=

>  <r_epik_Ionization_Penalty>  (265) 
2.09449

>  <r_epik_Ionization_Penalty_Charging>  (265) 
0

>  <r_epik_Ionization_Penalty_Neutral>  (265) 
2.09449

>  <r_epik_State_Penalty>  (265) 
2.23019

>  <r_epik_Charging_Adjusted_Penalty>  (265) 
2.23019

>  <i_epik_Tot_Q>  (265) 
0

>  <i_epik_Tot_abs_Q>  (265) 
0

>  <s_epik_Chemistry_Notes>  (265) 
This compound contains an acetal/aminal-like group ( X-CH(R)-Y where X, Y are N, S, or O) that may be acid/base labile, releasing an aldehyde.

>  <s_lp_Force_Field>  (265) 
OPLS3e

>  <r_lp_Energy>  (265) 
57.7802

>  <b_lp_Chiralities_Consistent>  (265) 
1

>  <s_lp_Variant>  (265) 
89:0-2

>  <s_i_glide_gridfile>  (265) 
pfpi4k_grid

>  <i_i_glide_lignum>  (265) 
3

>  <i_i_glide_rotatable_bonds>  (265) 
1

>  <r_i_docking_score>  (265) 
-3.04834

>  <r_i_glide_ligand_efficiency>  (265) 
-0.127014

>  <r_i_glide_ligand_efficiency_sa>  (265) 
-0.366372

>  <r_i_glide_ligand_efficiency_ln>  (265) 
-0.729606

>  <r_i_glide_gscore>  (265) 
-3.04834

>  <r_i_glide_lipo>  (265) 
-0.430301

>  <r_i_glide_hbond>  (265) 
0

>  <r_i_glide_metal>  (265) 
-0

>  <r_i_glide_rewards>  (265) 
-1.1767

>  <r_i_glide_evdw>  (265) 
-27.6565

>  <r_i_glide_ecoul>  (265) 
-1.29734

>  <r_i_glide_erotb>  (265) 
0.17507

>  <r_i_glide_esite>  (265) 
-0.0389804

>  <r_i_glide_emodel>  (265) 
-33.8111

>  <r_i_glide_energy>  (265) 
-28.9538

>  <r_i_glide_einternal>  (265) 
0.15018

>  <r_i_glide_intrahb_reward>  (265) 
-0

>  <i_i_glide_confnum>  (265) 
3

>  <i_i_glide_posenum>  (265) 
17

>  <r_i_glide_eff_state_penalty>  (265) 
0

>  <ligand_id>  (265) 
89

>  <original_smiles>  (265) 
CC1NC2CC2(C)C23C=CC4(CC2C)OC(c2ccco2)OC4C13

>  <smiles>  (265) 
[H]C1=C([H])C23C([H])(C([H])([H])[H])C([H])([H])C14OC([H])(c1oc([H])c([H])c1[H])OC4([H])C2([H])C([H])(C([H])([H])[H])N([H])C1([H])C([H])([H])C13C([H])([H])[H]

$$$$
89:1:2
     RDKit          3D

 49 54  0  0  1  0  0  0  0  0999 V2000
    1.8096    0.2709    2.2188 C   0  0  0  0  0  0  0  0  0  0  0  0
    1.9260   -1.2238    2.5908 C   0  0  2  0  0  0  0  0  0  0  0  0
    1.3470   -1.3433    3.9285 N   0  0  0  0  0  0  0  0  0  0  0  0
    1.6188   -2.5501    4.7165 C   0  0  1  0  0  0  0  0  0  0  0  0
    1.1952   -3.8763    4.1845 C   0  0  0  0  0  0  0  0  0  0  0  0
    2.6850   -3.5557    4.2686 C   0  0  2  0  0  0  0  0  0  0  0  0
    3.4649   -4.2482    5.3781 C   0  0  0  0  0  0  0  0  0  0  0  0
    3.4918   -3.2773    2.9702 C   0  0  1  0  0  0  0  0  0  0  0  0
    5.0053   -3.5964    3.0149 C   0  0  0  0  0  0  0  0  0  0  0  0
    5.7027   -3.3158    1.8958 C   0  0  0  0  0  0  0  0  0  0  0  0
    4.8672   -2.6997    0.7974 C   0  0  2  0  0  0  0  0  0  0  0  0
    3.7105   -3.6748    0.4678 C   0  0  0  0  0  0  0  0  0  0  0  0
    2.9650   -4.1065    1.7476 C   0  0  1  0  0  0  0  0  0  0  0  0
    3.0238   -5.6367    1.9285 C   0  0  0  0  0  0  0  0  0  0  0  0
    5.5473   -2.2358   -0.3470 O   0  0  0  0  0  0  0  0  0  0  0  0
    4.7793   -1.1421   -0.7871 C   0  0  1  0  0  0  0  0  0  0  0  0
    4.1466   -1.4966   -2.1081 C   0  0  0  0  0  0  0  0  0  0  0  0
    3.5596   -2.6204   -2.6274 C   0  0  0  0  0  0  0  0  0  0  0  0
    3.1358   -2.2910   -3.9354 C   0  0  0  0  0  0  0  0  0  0  0  0
    3.5319   -1.0037   -4.1514 C   0  0  0  0  0  0  0  0  0  0  0  0
    4.1496   -0.5032   -3.0481 O   0  0  0  0  0  0  0  0  0  0  0  0
    3.7706   -0.8698    0.1543 O   0  0  0  0  0  0  0  0  0  0  0  0
    4.2816   -1.4117    1.3588 C   0  0  1  0  0  0  0  0  0  0  0  0
    3.3839   -1.7465    2.6055 C   0  0  1  0  0  0  0  0  0  0  0  0
    2.0335    0.4428    1.1666 H   0  0  0  0  0  0  0  0  0  0  0  0
    2.4889    0.8926    2.8068 H   0  0  0  0  0  0  0  0  0  0  0  0
    0.7974    0.6466    2.3770 H   0  0  0  0  0  0  0  0  0  0  0  0
    1.3281   -1.8042    1.8886 H   0  0  0  0  0  0  0  0  0  0  0  0
    0.3636   -1.1175    3.9147 H   0  0  0  0  0  0  0  0  0  0  0  0
    1.4847   -2.4636    5.7925 H   0  0  0  0  0  0  0  0  0  0  0  0
    0.8041   -4.5834    4.9120 H   0  0  0  0  0  0  0  0  0  0  0  0
    0.6597   -3.8771    3.2403 H   0  0  0  0  0  0  0  0  0  0  0  0
    3.8493   -5.2138    5.0519 H   0  0  0  0  0  0  0  0  0  0  0  0
    2.8218   -4.4246    6.2399 H   0  0  0  0  0  0  0  0  0  0  0  0
    4.2852   -3.6172    5.7151 H   0  0  0  0  0  0  0  0  0  0  0  0
    5.4676   -4.0727    3.8633 H   0  0  0  0  0  0  0  0  0  0  0  0
    6.7554   -3.5155    1.7541 H   0  0  0  0  0  0  0  0  0  0  0  0
    2.9617   -3.1829   -0.1505 H   0  0  0  0  0  0  0  0  0  0  0  0
    4.1007   -4.5287   -0.0884 H   0  0  0  0  0  0  0  0  0  0  0  0
    1.9242   -3.8613    1.5644 H   0  0  0  0  0  0  0  0  0  0  0  0
    4.0492   -5.9905    2.0453 H   0  0  0  0  0  0  0  0  0  0  0  0
    2.6050   -6.1470    1.0587 H   0  0  0  0  0  0  0  0  0  0  0  0
    2.4553   -5.9601    2.7997 H   0  0  0  0  0  0  0  0  0  0  0  0
    5.4337   -0.2769   -0.8877 H   0  0  0  0  0  0  0  0  0  0  0  0
    3.4254   -3.5824   -2.1498 H   0  0  0  0  0  0  0  0  0  0  0  0
    2.6180   -2.9297   -4.6336 H   0  0  0  0  0  0  0  0  0  0  0  0
    3.4521   -0.3360   -4.9973 H   0  0  0  0  0  0  0  0  0  0  0  0
    5.0955   -0.7620    1.6919 H   0  0  0  0  0  0  0  0  0  0  0  0
    3.8671   -1.2272    3.4347 H   0  0  0  0  0  0  0  0  0  0  0  0
  1  2  1  0
  1 25  1  0
  1 26  1  0
  1 27  1  0
  2 24  1  0
  2  3  1  0
  2 28  1  6
  3  4  1  0
  3 29  1  0
  4  6  1  0
  4  5  1  0
  4 30  1  1
  5  6  1  0
  5 31  1  0
  5 32  1  0
  6  7  1  1
  6  8  1  0
  7 33  1  0
  7 34  1  0
  7 35  1  0
  8 13  1  0
  8 24  1  0
  8  9  1  1
  9 10  2  0
  9 36  1  0
 10 11  1  0
 10 37  1  0
 11 23  1  0
 11 12  1  0
 11 15  1  6
 12 13  1  0
 12 38  1  0
 12 39  1  0
 13 14  1  0
 13 40  1  6
 14 41  1  0
 14 42  1  0
 14 43  1  0
 15 16  1  0
 16 17  1  0
 16 22  1  0
 16 44  1  6
 17 21  1  0
 17 18  2  0
 18 19  1  0
 18 45  1  0
 19 20  2  0
 19 46  1  0
 20 21  1  0
 20 47  1  0
 22 23  1  0
 23 24  1  0
 23 48  1  1
 24 49  1  1
M  END
>  <i_m_ct_stereo_status>  (266) 
1

>  <s_m_source_file>  (266) 
/var/tmp/pbs.5076255.sched01/tmph7d3_0rd/117btfl79hs.sdf

>  <i_m_source_file_index>  (266) 
3

>  <i_lp_mmshare_version>  (266) 
48012

>  <i_f3d_flags>  (266) 
0

>  <s_epik_input>  (266) 
W0NIM11bQ0BdMShbQ0BAXTIzNClbQ0BIXShbQ0gyXTEpW05IXVtDQEBIXShbQ0gzXSlbQ0BASF00W0NASF01W0NAQF0oW0NIXT1bQ0hdMikoW0NIMl1bQ0BIXTNbQ0gzXSlPW0NASF0oTzUpYzZbY0hdW2NIXVtjSF1vNg==

>  <s_epik_cmdline>  (266) 
J2VwaWtfcHl0aG9uJywgJy1waHQnLCAnMi4wJywgJy1waCcsICc3LjAnLCAnLXRuJywgJzgnLCAnLW1hJywgJzIwMCcsICctaW1hZScsICc8aW5maWxlLm1hZT4nLCAnLW9tYWUnLCAnPG91dGZpbGUubWFlPic=

>  <r_epik_Ionization_Penalty>  (266) 
2.09449

>  <r_epik_Ionization_Penalty_Charging>  (266) 
0

>  <r_epik_Ionization_Penalty_Neutral>  (266) 
2.09449

>  <r_epik_State_Penalty>  (266) 
2.23019

>  <r_epik_Charging_Adjusted_Penalty>  (266) 
2.23019

>  <i_epik_Tot_Q>  (266) 
0

>  <i_epik_Tot_abs_Q>  (266) 
0

>  <s_epik_Chemistry_Notes>  (266) 
This compound contains an acetal/aminal-like group ( X-CH(R)-Y where X, Y are N, S, or O) that may be acid/base labile, releasing an aldehyde.

>  <s_lp_Force_Field>  (266) 
OPLS3e

>  <r_lp_Energy>  (266) 
57.7802

>  <b_lp_Chiralities_Consistent>  (266) 
1

>  <s_lp_Variant>  (266) 
89:0-2

>  <s_i_glide_gridfile>  (266) 
pfpi4k_grid

>  <i_i_glide_lignum>  (266) 
3

>  <i_i_glide_rotatable_bonds>  (266) 
1

>  <r_i_docking_score>  (266) 
-2.94961

>  <r_i_glide_ligand_efficiency>  (266) 
-0.1229

>  <r_i_glide_ligand_efficiency_sa>  (266) 
-0.354506

>  <r_i_glide_ligand_efficiency_ln>  (266) 
-0.705976

>  <r_i_glide_gscore>  (266) 
-2.94961

>  <r_i_glide_lipo>  (266) 
-0.317017

>  <r_i_glide_hbond>  (266) 
0

>  <r_i_glide_metal>  (266) 
-0

>  <r_i_glide_rewards>  (266) 
-1.1767

>  <r_i_glide_evdw>  (266) 
-27.8395

>  <r_i_glide_ecoul>  (266) 
-1.33211

>  <r_i_glide_erotb>  (266) 
0.17507

>  <r_i_glide_esite>  (266) 
-0.0391675

>  <r_i_glide_emodel>  (266) 
-32.9093

>  <r_i_glide_energy>  (266) 
-29.1716

>  <r_i_glide_einternal>  (266) 
1.35244

>  <r_i_glide_intrahb_reward>  (266) 
-0

>  <i_i_glide_confnum>  (266) 
6

>  <i_i_glide_posenum>  (266) 
12

>  <r_i_glide_eff_state_penalty>  (266) 
0

>  <ligand_id>  (266) 
89

>  <original_smiles>  (266) 
CC1NC2CC2(C)C23C=CC4(CC2C)OC(c2ccco2)OC4C13

>  <smiles>  (266) 
[H]C1=C([H])C23C([H])(C([H])([H])[H])C([H])([H])C14OC([H])(c1oc([H])c([H])c1[H])OC4([H])C2([H])C([H])(C([H])([H])[H])N([H])C1([H])C([H])([H])C13C([H])([H])[H]

$$$$
91:0:0
     RDKit          3D

 53 58  0  0  1  0  0  0  0  0999 V2000
    6.5829   -3.2092    0.1515 C   0  0  0  0  0  0  0  0  0  0  0  0
    6.0978   -3.8665    1.4651 C   0  0  0  0  0  0  0  0  0  0  0  0
    5.2808   -5.1969    1.2608 C   0  0  2  0  0  0  0  0  0  0  0  0
    3.8861   -4.9135    0.6899 C   0  0  0  0  0  0  0  0  0  0  0  0
    3.5859   -3.8213    0.2174 O   0  0  0  0  0  0  0  0  0  0  0  0
    2.9848   -6.0322    0.7280 C   0  0  0  0  0  0  0  0  0  0  0  0
    3.0509   -6.8424    1.7970 C   0  0  0  0  0  0  0  0  0  0  0  0
    2.4148   -8.1220    1.7499 C   0  0  1  0  0  0  0  0  0  0  0  0
    3.6438   -9.0634    1.4186 C   0  0  0  0  0  0  0  0  0  0  0  0
    5.1807   -8.5655    1.2840 C   0  0  0  0  0  0  0  0  0  0  0  0
    6.0295   -9.7091    1.2659 C   0  0  0  0  0  0  0  0  0  0  0  0
    6.5959  -10.1820    2.4738 C   0  0  0  0  0  0  0  0  0  0  0  0
    6.2655   -9.5148    3.6703 C   0  0  0  0  0  0  0  0  0  0  0  0
    5.7291   -8.2103    3.6036 C   0  0  0  0  0  0  0  0  0  0  0  0
    5.5981   -7.6591    2.3331 C   0  0  0  0  0  0  0  0  0  0  0  0
    5.1590   -6.1545    2.5311 C   0  0  1  0  0  0  0  0  0  0  0  0
    5.8408   -5.5266    3.6058 O   0  0  0  0  0  0  0  0  0  0  0  0
    3.8167   -6.6012    3.1015 C   0  0  1  0  0  0  0  0  0  0  0  0
    2.6801   -5.9777    3.9097 C   0  0  0  0  0  0  0  0  0  0  0  0
    1.4783   -7.0144    3.8680 C   0  0  0  0  0  0  0  0  0  0  0  0
    1.6712   -8.2516    3.0255 N   0  0  0  0  0  0  0  0  0  0  0  0
    0.4668   -9.0845    2.9110 C   0  0  0  0  0  0  0  0  0  0  0  0
   -0.7407   -8.2982    2.4093 C   0  0  0  0  0  0  0  0  0  0  0  0
   -1.7569   -7.7449    3.3961 C   0  0  0  0  0  0  0  0  0  0  0  0
   -2.1305   -8.8778    2.4894 C   0  0  0  0  0  0  0  0  0  0  0  0
    4.3680   -7.7559    4.0789 C   0  0  0  0  0  0  0  0  0  0  0  0
    7.1331   -2.2890    0.3473 H   0  0  0  0  0  0  0  0  0  0  0  0
    5.7724   -2.9434   -0.5246 H   0  0  0  0  0  0  0  0  0  0  0  0
    7.2460   -3.8884   -0.3819 H   0  0  0  0  0  0  0  0  0  0  0  0
    7.0061   -4.0382    2.0382 H   0  0  0  0  0  0  0  0  0  0  0  0
    5.5205   -3.1381    2.0397 H   0  0  0  0  0  0  0  0  0  0  0  0
    5.8424   -5.7640    0.5220 H   0  0  0  0  0  0  0  0  0  0  0  0
    2.4337   -6.2522   -0.1724 H   0  0  0  0  0  0  0  0  0  0  0  0
    1.7023   -8.1399    0.9184 H   0  0  0  0  0  0  0  0  0  0  0  0
    3.5876   -9.9964    1.9779 H   0  0  0  0  0  0  0  0  0  0  0  0
    3.4356   -9.4029    0.3971 H   0  0  0  0  0  0  0  0  0  0  0  0
    5.9540  -10.4368    0.4767 H   0  0  0  0  0  0  0  0  0  0  0  0
    7.1011  -11.1359    2.4921 H   0  0  0  0  0  0  0  0  0  0  0  0
    6.4411   -9.9904    4.6277 H   0  0  0  0  0  0  0  0  0  0  0  0
    5.9313   -6.1734    4.2938 H   0  0  0  0  0  0  0  0  0  0  0  0
    2.9550   -5.7168    4.9296 H   0  0  0  0  0  0  0  0  0  0  0  0
    2.3522   -5.0478    3.4442 H   0  0  0  0  0  0  0  0  0  0  0  0
    1.2593   -7.3591    4.8791 H   0  0  0  0  0  0  0  0  0  0  0  0
    0.6159   -6.4574    3.5238 H   0  0  0  0  0  0  0  0  0  0  0  0
    0.6436   -9.9293    2.2430 H   0  0  0  0  0  0  0  0  0  0  0  0
    0.2252   -9.4940    3.8892 H   0  0  0  0  0  0  0  0  0  0  0  0
   -0.5514   -7.6962    1.5230 H   0  0  0  0  0  0  0  0  0  0  0  0
   -1.6091   -7.9661    4.4524 H   0  0  0  0  0  0  0  0  0  0  0  0
   -2.1448   -6.7557    3.1826 H   0  0  0  0  0  0  0  0  0  0  0  0
   -2.8246   -8.6668    1.6839 H   0  0  0  0  0  0  0  0  0  0  0  0
   -2.2258   -9.8532    2.9335 H   0  0  0  0  0  0  0  0  0  0  0  0
    3.7481   -8.6229    4.3039 H   0  0  0  0  0  0  0  0  0  0  0  0
    4.5859   -7.3212    5.0580 H   0  0  0  0  0  0  0  0  0  0  0  0
  1  2  1  0
  1 27  1  0
  1 28  1  0
  1 29  1  0
  2  3  1  0
  2 30  1  0
  2 31  1  0
  3 16  1  0
  3  4  1  0
  3 32  1  6
  4  5  2  0
  4  6  1  0
  6  7  2  0
  6 33  1  0
  7 18  1  0
  7  8  1  0
  8 21  1  0
  8  9  1  0
  8 34  1  6
  9 10  1  0
  9 35  1  0
  9 36  1  0
 10 15  2  0
 10 11  1  0
 11 12  2  0
 11 37  1  0
 12 13  1  0
 12 38  1  0
 13 14  2  0
 13 39  1  0
 14 26  1  0
 14 15  1  0
 15 16  1  0
 16 17  1  1
 16 18  1  0
 17 40  1  0
 18 19  1  1
 18 26  1  0
 19 20  1  0
 19 41  1  0
 19 42  1  0
 20 21  1  0
 20 43  1  0
 20 44  1  0
 21 22  1  0
 22 23  1  0
 22 45  1  0
 22 46  1  0
 23 25  1  0
 23 24  1  0
 23 47  1  0
 24 25  1  0
 24 48  1  0
 24 49  1  0
 25 50  1  0
 25 51  1  0
 26 52  1  0
 26 53  1  0
M  END
>  <i_m_ct_stereo_status>  (267) 
1

>  <s_m_source_file>  (267) 
/var/tmp/pbs.5076255.sched01/tmph7d3_0rd/117btfl79hs.sdf

>  <i_m_source_file_index>  (267) 
5

>  <i_lp_mmshare_version>  (267) 
48012

>  <i_f3d_flags>  (267) 
0

>  <s_epik_input>  (267) 
W0NIM11bQ0gyXVtDQEhdKEMoPU8pW0NIXT0xKVtDQF0yKFtPSF0pYyhjKFtDSDJdMylbY0hdW2NIXVtjSF00KWM0W0NIMl1bQ0BIXShDMVtDQF0yMzUpTihbQ0gyXVtDSDJdNSlbQ0gyXVtDSF02W0NIMl1bQ0gyXTY=

>  <s_epik_cmdline>  (267) 
J2VwaWtfcHl0aG9uJywgJy1waHQnLCAnMi4wJywgJy1waCcsICc3LjAnLCAnLXRuJywgJzgnLCAnLW1hJywgJzIwMCcsICctaW1hZScsICc8aW5maWxlLm1hZT4nLCAnLW9tYWUnLCAnPG91dGZpbGUubWFlPic=

>  <r_epik_Ionization_Penalty>  (267) 
0.320689

>  <r_epik_Ionization_Penalty_Charging>  (267) 
0

>  <r_epik_Ionization_Penalty_Neutral>  (267) 
0.320689

>  <r_epik_State_Penalty>  (267) 
0.315225

>  <r_epik_Charging_Adjusted_Penalty>  (267) 
0.315225

>  <i_epik_Tot_Q>  (267) 
0

>  <i_epik_Tot_abs_Q>  (267) 
0

>  <s_lp_Force_Field>  (267) 
OPLS3e

>  <r_lp_Energy>  (267) 
218.55

>  <b_lp_Chiralities_Consistent>  (267) 
1

>  <s_lp_Variant>  (267) 
91:0-1

>  <s_i_glide_gridfile>  (267) 
pfpi4k_grid

>  <i_i_glide_lignum>  (267) 
5

>  <i_i_glide_rotatable_bonds>  (267) 
4

>  <r_i_docking_score>  (267) 
-2.33795

>  <r_i_glide_ligand_efficiency>  (267) 
-0.089921

>  <r_i_glide_ligand_efficiency_sa>  (267) 
-0.266391

>  <r_i_glide_ligand_efficiency_ln>  (267) 
-0.549059

>  <r_i_glide_gscore>  (267) 
-2.33795

>  <r_i_glide_lipo>  (267) 
-0.471524

>  <r_i_glide_hbond>  (267) 
0

>  <r_i_glide_metal>  (267) 
-0

>  <r_i_glide_rewards>  (267) 
-1.0462

>  <r_i_glide_evdw>  (267) 
-24.0471

>  <r_i_glide_ecoul>  (267) 
0.467875

>  <r_i_glide_erotb>  (267) 
0.311957

>  <r_i_glide_esite>  (267) 
0

>  <r_i_glide_emodel>  (267) 
-24.2208

>  <r_i_glide_energy>  (267) 
-23.5793

>  <r_i_glide_einternal>  (267) 
3.53697

>  <r_i_glide_intrahb_reward>  (267) 
-0

>  <i_i_glide_confnum>  (267) 
3

>  <i_i_glide_posenum>  (267) 
29

>  <r_i_glide_eff_state_penalty>  (267) 
0

>  <ligand_id>  (267) 
91

>  <original_smiles>  (267) 
CCC1C(=O)C=C2C3Cc4cccc5c4C1(O)C2(CCN3CC1CC1)C5

>  <smiles>  (267) 
[H]OC12c3c4c([H])c([H])c([H])c3C([H])([H])C13C(=C([H])C(=O)C2([H])C([H])([H])C([H])([H])[H])C([H])(N(C([H])([H])C1([H])C([H])([H])C1([H])[H])C([H])([H])C3([H])[H])C4([H])[H]

$$$$
91:0:1
     RDKit          3D

 53 58  0  0  1  0  0  0  0  0999 V2000
    7.7937   -4.1671    1.2053 C   0  0  0  0  0  0  0  0  0  0  0  0
    6.2776   -3.9592    1.3220 C   0  0  0  0  0  0  0  0  0  0  0  0
    5.4094   -5.2674    1.1868 C   0  0  2  0  0  0  0  0  0  0  0  0
    4.0105   -4.9416    0.6400 C   0  0  0  0  0  0  0  0  0  0  0  0
    3.7598   -3.8630    0.1108 O   0  0  0  0  0  0  0  0  0  0  0  0
    3.0553   -6.0217    0.7579 C   0  0  0  0  0  0  0  0  0  0  0  0
    3.1331   -6.8024    1.8463 C   0  0  0  0  0  0  0  0  0  0  0  0
    2.4447   -8.0600    1.8664 C   0  0  1  0  0  0  0  0  0  0  0  0
    3.6203   -9.0607    1.5070 C   0  0  0  0  0  0  0  0  0  0  0  0
    5.1653   -8.6296    1.2840 C   0  0  0  0  0  0  0  0  0  0  0  0
    5.9717   -9.8070    1.2696 C   0  0  0  0  0  0  0  0  0  0  0  0
    6.5812  -10.2640    2.4641 C   0  0  0  0  0  0  0  0  0  0  0  0
    6.3236   -9.5572    3.6550 C   0  0  0  0  0  0  0  0  0  0  0  0
    5.8207   -8.2422    3.5687 C   0  0  0  0  0  0  0  0  0  0  0  0
    5.6615   -7.7222    2.2875 C   0  0  0  0  0  0  0  0  0  0  0  0
    5.3111   -6.1957    2.4788 C   0  0  1  0  0  0  0  0  0  0  0  0
    6.1088   -5.6011    3.5020 O   0  0  0  0  0  0  0  0  0  0  0  0
    3.9661   -6.5592    3.1120 C   0  0  1  0  0  0  0  0  0  0  0  0
    2.8847   -5.8689    3.9455 C   0  0  0  0  0  0  0  0  0  0  0  0
    1.6422   -6.8590    3.9897 C   0  0  0  0  0  0  0  0  0  0  0  0
    1.7538   -8.1246    3.1758 N   0  0  0  0  0  0  0  0  0  0  0  0
    0.5175   -8.9167    3.1389 C   0  0  0  0  0  0  0  0  0  0  0  0
   -0.6845   -8.0991    2.6760 C   0  0  0  0  0  0  0  0  0  0  0  0
   -1.7420   -7.6587    3.6771 C   0  0  0  0  0  0  0  0  0  0  0  0
   -2.0680   -8.7014    2.6444 C   0  0  0  0  0  0  0  0  0  0  0  0
    4.5114   -7.7092    4.0966 C   0  0  0  0  0  0  0  0  0  0  0  0
    8.3046   -3.2042    1.1618 H   0  0  0  0  0  0  0  0  0  0  0  0
    8.0426   -4.6938    0.2844 H   0  0  0  0  0  0  0  0  0  0  0  0
    8.1993   -4.7218    2.0513 H   0  0  0  0  0  0  0  0  0  0  0  0
    6.0290   -3.3869    2.2129 H   0  0  0  0  0  0  0  0  0  0  0  0
    6.0734   -3.2687    0.5024 H   0  0  0  0  0  0  0  0  0  0  0  0
    5.8886   -5.8586    0.4096 H   0  0  0  0  0  0  0  0  0  0  0  0
    2.4519   -6.2484   -0.1091 H   0  0  0  0  0  0  0  0  0  0  0  0
    1.6951   -8.0769    1.0684 H   0  0  0  0  0  0  0  0  0  0  0  0
    3.5570   -9.9737    2.0972 H   0  0  0  0  0  0  0  0  0  0  0  0
    3.3543   -9.4114    0.5040 H   0  0  0  0  0  0  0  0  0  0  0  0
    5.8331  -10.5517    0.5035 H   0  0  0  0  0  0  0  0  0  0  0  0
    7.0478  -11.2398    2.4908 H   0  0  0  0  0  0  0  0  0  0  0  0
    6.5212  -10.0055    4.6199 H   0  0  0  0  0  0  0  0  0  0  0  0
    5.8025   -4.7247    3.6637 H   0  0  0  0  0  0  0  0  0  0  0  0
    3.2170   -5.5925    4.9428 H   0  0  0  0  0  0  0  0  0  0  0  0
    2.5723   -4.9405    3.4661 H   0  0  0  0  0  0  0  0  0  0  0  0
    1.4614   -7.1671    5.0200 H   0  0  0  0  0  0  0  0  0  0  0  0
    0.7796   -6.2845    3.6738 H   0  0  0  0  0  0  0  0  0  0  0  0
    0.6340   -9.7821    2.4833 H   0  0  0  0  0  0  0  0  0  0  0  0
    0.3085   -9.2980    4.1360 H   0  0  0  0  0  0  0  0  0  0  0  0
   -0.4756   -7.4119    1.8567 H   0  0  0  0  0  0  0  0  0  0  0  0
   -1.6325   -7.9886    4.7089 H   0  0  0  0  0  0  0  0  0  0  0  0
   -2.1634   -6.6631    3.5548 H   0  0  0  0  0  0  0  0  0  0  0  0
   -2.7049   -8.4121    1.8168 H   0  0  0  0  0  0  0  0  0  0  0  0
   -2.1769   -9.7314    2.9728 H   0  0  0  0  0  0  0  0  0  0  0  0
    3.8678   -8.5404    4.3798 H   0  0  0  0  0  0  0  0  0  0  0  0
    4.8037   -7.2491    5.0433 H   0  0  0  0  0  0  0  0  0  0  0  0
  1  2  1  0
  1 27  1  0
  1 28  1  0
  1 29  1  0
  2  3  1  0
  2 30  1  0
  2 31  1  0
  3 16  1  0
  3  4  1  0
  3 32  1  6
  4  5  2  0
  4  6  1  0
  6  7  2  0
  6 33  1  0
  7 18  1  0
  7  8  1  0
  8 21  1  0
  8  9  1  0
  8 34  1  6
  9 10  1  0
  9 35  1  0
  9 36  1  0
 10 15  2  0
 10 11  1  0
 11 12  2  0
 11 37  1  0
 12 13  1  0
 12 38  1  0
 13 14  2  0
 13 39  1  0
 14 26  1  0
 14 15  1  0
 15 16  1  0
 16 17  1  1
 16 18  1  0
 17 40  1  0
 18 19  1  1
 18 26  1  0
 19 20  1  0
 19 41  1  0
 19 42  1  0
 20 21  1  0
 20 43  1  0
 20 44  1  0
 21 22  1  0
 22 23  1  0
 22 45  1  0
 22 46  1  0
 23 25  1  0
 23 24  1  0
 23 47  1  0
 24 25  1  0
 24 48  1  0
 24 49  1  0
 25 50  1  0
 25 51  1  0
 26 52  1  0
 26 53  1  0
M  END
>  <i_m_ct_stereo_status>  (268) 
1

>  <s_m_source_file>  (268) 
/var/tmp/pbs.5076255.sched01/tmph7d3_0rd/117btfl79hs.sdf

>  <i_m_source_file_index>  (268) 
5

>  <i_lp_mmshare_version>  (268) 
48012

>  <i_f3d_flags>  (268) 
0

>  <s_epik_input>  (268) 
W0NIM11bQ0gyXVtDQEhdKEMoPU8pW0NIXT0xKVtDQF0yKFtPSF0pYyhjKFtDSDJdMylbY0hdW2NIXVtjSF00KWM0W0NIMl1bQ0BIXShDMVtDQF0yMzUpTihbQ0gyXVtDSDJdNSlbQ0gyXVtDSF02W0NIMl1bQ0gyXTY=

>  <s_epik_cmdline>  (268) 
J2VwaWtfcHl0aG9uJywgJy1waHQnLCAnMi4wJywgJy1waCcsICc3LjAnLCAnLXRuJywgJzgnLCAnLW1hJywgJzIwMCcsICctaW1hZScsICc8aW5maWxlLm1hZT4nLCAnLW9tYWUnLCAnPG91dGZpbGUubWFlPic=

>  <r_epik_Ionization_Penalty>  (268) 
0.320689

>  <r_epik_Ionization_Penalty_Charging>  (268) 
0

>  <r_epik_Ionization_Penalty_Neutral>  (268) 
0.320689

>  <r_epik_State_Penalty>  (268) 
0.315225

>  <r_epik_Charging_Adjusted_Penalty>  (268) 
0.315225

>  <i_epik_Tot_Q>  (268) 
0

>  <i_epik_Tot_abs_Q>  (268) 
0

>  <s_lp_Force_Field>  (268) 
OPLS3e

>  <r_lp_Energy>  (268) 
218.55

>  <b_lp_Chiralities_Consistent>  (268) 
1

>  <s_lp_Variant>  (268) 
91:0-1

>  <s_i_glide_gridfile>  (268) 
pfpi4k_grid

>  <i_i_glide_lignum>  (268) 
5

>  <i_i_glide_rotatable_bonds>  (268) 
4

>  <r_i_docking_score>  (268) 
-2.29186

>  <r_i_glide_ligand_efficiency>  (268) 
-0.0881486

>  <r_i_glide_ligand_efficiency_sa>  (268) 
-0.26114

>  <r_i_glide_ligand_efficiency_ln>  (268) 
-0.538237

>  <r_i_glide_gscore>  (268) 
-2.29186

>  <r_i_glide_lipo>  (268) 
-0.424907

>  <r_i_glide_hbond>  (268) 
0

>  <r_i_glide_metal>  (268) 
-0

>  <r_i_glide_rewards>  (268) 
-1.06082

>  <r_i_glide_evdw>  (268) 
-23.5591

>  <r_i_glide_ecoul>  (268) 
0.399067

>  <r_i_glide_erotb>  (268) 
0.311957

>  <r_i_glide_esite>  (268) 
0

>  <r_i_glide_emodel>  (268) 
-23.3854

>  <r_i_glide_energy>  (268) 
-23.16

>  <r_i_glide_einternal>  (268) 
4.39062

>  <r_i_glide_intrahb_reward>  (268) 
-0

>  <i_i_glide_confnum>  (268) 
3

>  <i_i_glide_posenum>  (268) 
1

>  <r_i_glide_eff_state_penalty>  (268) 
0

>  <ligand_id>  (268) 
91

>  <original_smiles>  (268) 
CCC1C(=O)C=C2C3Cc4cccc5c4C1(O)C2(CCN3CC1CC1)C5

>  <smiles>  (268) 
[H]OC12c3c4c([H])c([H])c([H])c3C([H])([H])C13C(=C([H])C(=O)C2([H])C([H])([H])C([H])([H])[H])C([H])(N(C([H])([H])C1([H])C([H])([H])C1([H])[H])C([H])([H])C3([H])[H])C4([H])[H]

$$$$
91:0:2
     RDKit          3D

 53 58  0  0  1  0  0  0  0  0999 V2000
    8.4230   -7.5341    3.1968 C   0  0  0  0  0  0  0  0  0  0  0  0
    7.9924   -6.0534    3.3205 C   0  0  0  0  0  0  0  0  0  0  0  0
    6.4583   -5.7067    3.2894 C   0  0  2  0  0  0  0  0  0  0  0  0
    5.6814   -6.3661    4.4247 C   0  0  0  0  0  0  0  0  0  0  0  0
    6.2682   -6.8402    5.3933 O   0  0  0  0  0  0  0  0  0  0  0  0
    4.2401   -6.2852    4.2823 C   0  0  0  0  0  0  0  0  0  0  0  0
    3.7410   -6.3450    3.0365 C   0  0  0  0  0  0  0  0  0  0  0  0
    2.3797   -5.9553    2.8205 C   0  0  1  0  0  0  0  0  0  0  0  0
    2.5590   -4.4703    2.3067 C   0  0  0  0  0  0  0  0  0  0  0  0
    3.9845   -3.7340    2.0658 C   0  0  0  0  0  0  0  0  0  0  0  0
    3.7665   -2.5309    1.3245 C   0  0  0  0  0  0  0  0  0  0  0  0
    3.8639   -2.5397   -0.0920 C   0  0  0  0  0  0  0  0  0  0  0  0
    4.1250   -3.7666   -0.7333 C   0  0  0  0  0  0  0  0  0  0  0  0
    4.6633   -4.8336    0.0200 C   0  0  0  0  0  0  0  0  0  0  0  0
    4.9341   -4.5696    1.3594 C   0  0  0  0  0  0  0  0  0  0  0  0
    5.7165   -5.8353    1.8954 C   0  0  1  0  0  0  0  0  0  0  0  0
    6.6864   -6.2660    0.9395 O   0  0  0  0  0  0  0  0  0  0  0  0
    4.4735   -6.7073    1.7396 C   0  0  1  0  0  0  0  0  0  0  0  0
    4.1291   -8.1929    1.7097 C   0  0  0  0  0  0  0  0  0  0  0  0
    2.5433   -8.2937    1.7870 C   0  0  0  0  0  0  0  0  0  0  0  0
    1.7863   -6.9952    1.9428 N   0  0  0  0  0  0  0  0  0  0  0  0
    0.3518   -7.2031    2.1736 C   0  0  0  0  0  0  0  0  0  0  0  0
    0.0518   -8.1169    3.3560 C   0  0  0  0  0  0  0  0  0  0  0  0
   -0.4061   -9.5466    3.1250 C   0  0  0  0  0  0  0  0  0  0  0  0
   -1.3655   -8.5342    3.6829 C   0  0  0  0  0  0  0  0  0  0  0  0
    4.0586   -6.1944    0.2770 C   0  0  0  0  0  0  0  0  0  0  0  0
    9.5075   -7.6182    3.2826 H   0  0  0  0  0  0  0  0  0  0  0  0
    8.1570   -7.9775    2.2397 H   0  0  0  0  0  0  0  0  0  0  0  0
    8.0093   -8.1601    3.9864 H   0  0  0  0  0  0  0  0  0  0  0  0
    8.3792   -5.7111    4.2849 H   0  0  0  0  0  0  0  0  0  0  0  0
    8.5434   -5.4540    2.5957 H   0  0  0  0  0  0  0  0  0  0  0  0
    6.4187   -4.6486    3.5097 H   0  0  0  0  0  0  0  0  0  0  0  0
    3.6699   -6.0050    5.1573 H   0  0  0  0  0  0  0  0  0  0  0  0
    1.8498   -5.9487    3.7770 H   0  0  0  0  0  0  0  0  0  0  0  0
    1.8637   -4.2498    1.4976 H   0  0  0  0  0  0  0  0  0  0  0  0
    2.1632   -3.8662    3.1357 H   0  0  0  0  0  0  0  0  0  0  0  0
    3.1852   -1.7262    1.7415 H   0  0  0  0  0  0  0  0  0  0  0  0
    3.5345   -1.6830   -0.6645 H   0  0  0  0  0  0  0  0  0  0  0  0
    3.9272   -3.8995   -1.7881 H   0  0  0  0  0  0  0  0  0  0  0  0
    7.1385   -7.0122    1.2921 H   0  0  0  0  0  0  0  0  0  0  0  0
    4.5285   -8.7171    0.8463 H   0  0  0  0  0  0  0  0  0  0  0  0
    4.5497   -8.6939    2.5833 H   0  0  0  0  0  0  0  0  0  0  0  0
    2.1678   -8.7792    0.8842 H   0  0  0  0  0  0  0  0  0  0  0  0
    2.3177   -8.9626    2.6097 H   0  0  0  0  0  0  0  0  0  0  0  0
   -0.1402   -6.2483    2.3409 H   0  0  0  0  0  0  0  0  0  0  0  0
   -0.0907   -7.6465    1.2824 H   0  0  0  0  0  0  0  0  0  0  0  0
    0.6905   -7.9614    4.2275 H   0  0  0  0  0  0  0  0  0  0  0  0
   -0.5440   -9.8745    2.0970 H   0  0  0  0  0  0  0  0  0  0  0  0
   -0.0338  -10.3125    3.8042 H   0  0  0  0  0  0  0  0  0  0  0  0
   -1.6331   -8.6531    4.7310 H   0  0  0  0  0  0  0  0  0  0  0  0
   -2.1626   -8.1805    3.0359 H   0  0  0  0  0  0  0  0  0  0  0  0
    3.0137   -6.1799   -0.0207 H   0  0  0  0  0  0  0  0  0  0  0  0
    4.5549   -6.8192   -0.4734 H   0  0  0  0  0  0  0  0  0  0  0  0
  1  2  1  0
  1 27  1  0
  1 28  1  0
  1 29  1  0
  2  3  1  0
  2 30  1  0
  2 31  1  0
  3 16  1  0
  3  4  1  0
  3 32  1  1
  4  5  2  0
  4  6  1  0
  6  7  2  0
  6 33  1  0
  7 18  1  0
  7  8  1  0
  8 21  1  0
  8  9  1  0
  8 34  1  1
  9 10  1  0
  9 35  1  0
  9 36  1  0
 10 15  2  0
 10 11  1  0
 11 12  2  0
 11 37  1  0
 12 13  1  0
 12 38  1  0
 13 14  2  0
 13 39  1  0
 14 26  1  0
 14 15  1  0
 15 16  1  0
 16 17  1  6
 16 18  1  0
 17 40  1  0
 18 19  1  6
 18 26  1  0
 19 20  1  0
 19 41  1  0
 19 42  1  0
 20 21  1  0
 20 43  1  0
 20 44  1  0
 21 22  1  0
 22 23  1  0
 22 45  1  0
 22 46  1  0
 23 25  1  0
 23 24  1  0
 23 47  1  0
 24 25  1  0
 24 48  1  0
 24 49  1  0
 25 50  1  0
 25 51  1  0
 26 52  1  0
 26 53  1  0
M  END
>  <i_m_ct_stereo_status>  (269) 
1

>  <s_m_source_file>  (269) 
/var/tmp/pbs.5076255.sched01/tmph7d3_0rd/117btfl79hs.sdf

>  <i_m_source_file_index>  (269) 
5

>  <i_lp_mmshare_version>  (269) 
48012

>  <i_f3d_flags>  (269) 
0

>  <s_epik_input>  (269) 
W0NIM11bQ0gyXVtDQEhdKEMoPU8pW0NIXT0xKVtDQF0yKFtPSF0pYyhjKFtDSDJdMylbY0hdW2NIXVtjSF00KWM0W0NIMl1bQ0BIXShDMVtDQF0yMzUpTihbQ0gyXVtDSDJdNSlbQ0gyXVtDSF02W0NIMl1bQ0gyXTY=

>  <s_epik_cmdline>  (269) 
J2VwaWtfcHl0aG9uJywgJy1waHQnLCAnMi4wJywgJy1waCcsICc3LjAnLCAnLXRuJywgJzgnLCAnLW1hJywgJzIwMCcsICctaW1hZScsICc8aW5maWxlLm1hZT4nLCAnLW9tYWUnLCAnPG91dGZpbGUubWFlPic=

>  <r_epik_Ionization_Penalty>  (269) 
0.320689

>  <r_epik_Ionization_Penalty_Charging>  (269) 
0

>  <r_epik_Ionization_Penalty_Neutral>  (269) 
0.320689

>  <r_epik_State_Penalty>  (269) 
0.315225

>  <r_epik_Charging_Adjusted_Penalty>  (269) 
0.315225

>  <i_epik_Tot_Q>  (269) 
0

>  <i_epik_Tot_abs_Q>  (269) 
0

>  <s_lp_Force_Field>  (269) 
OPLS3e

>  <r_lp_Energy>  (269) 
218.55

>  <b_lp_Chiralities_Consistent>  (269) 
1

>  <s_lp_Variant>  (269) 
91:0-1

>  <s_i_glide_gridfile>  (269) 
pfpi4k_grid

>  <i_i_glide_lignum>  (269) 
5

>  <i_i_glide_rotatable_bonds>  (269) 
4

>  <r_i_docking_score>  (269) 
-2.25112

>  <r_i_glide_ligand_efficiency>  (269) 
-0.0865817

>  <r_i_glide_ligand_efficiency_sa>  (269) 
-0.256498

>  <r_i_glide_ligand_efficiency_ln>  (269) 
-0.528669

>  <r_i_glide_gscore>  (269) 
-2.25112

>  <r_i_glide_lipo>  (269) 
-0.25331

>  <r_i_glide_hbond>  (269) 
0

>  <r_i_glide_metal>  (269) 
-0

>  <r_i_glide_rewards>  (269) 
-1.02637

>  <r_i_glide_evdw>  (269) 
-22.2995

>  <r_i_glide_ecoul>  (269) 
-1.12287

>  <r_i_glide_erotb>  (269) 
0.311957

>  <r_i_glide_esite>  (269) 
0

>  <r_i_glide_emodel>  (269) 
-24.6585

>  <r_i_glide_energy>  (269) 
-23.4223

>  <r_i_glide_einternal>  (269) 
2.39329

>  <r_i_glide_intrahb_reward>  (269) 
-0

>  <i_i_glide_confnum>  (269) 
5

>  <i_i_glide_posenum>  (269) 
19

>  <r_i_glide_eff_state_penalty>  (269) 
0

>  <ligand_id>  (269) 
91

>  <original_smiles>  (269) 
CCC1C(=O)C=C2C3Cc4cccc5c4C1(O)C2(CCN3CC1CC1)C5

>  <smiles>  (269) 
[H]OC12c3c4c([H])c([H])c([H])c3C([H])([H])C13C(=C([H])C(=O)C2([H])C([H])([H])C([H])([H])[H])C([H])(N(C([H])([H])C1([H])C([H])([H])C1([H])[H])C([H])([H])C3([H])[H])C4([H])[H]

$$$$
92:0:0
     RDKit          3D

 53 56  0  0  1  0  0  0  0  0999 V2000
    5.5301   -2.9500   -2.7655 C   0  0  0  0  0  0  0  0  0  0  0  0
    6.2334   -2.6957   -1.4365 C   0  0  0  0  0  0  0  0  0  0  0  0
    7.4627   -2.6265   -1.3953 O   0  0  0  0  0  0  0  0  0  0  0  0
    5.4049   -2.3826   -0.1745 C   0  0  2  0  0  0  0  0  0  0  0  0
    6.1813   -2.5074    1.1524 C   0  0  0  0  0  0  0  0  0  0  0  0
    5.1206   -2.7321    2.2475 C   0  0  1  0  0  0  0  0  0  0  0  0
    5.1402   -1.6578    3.1696 O   0  0  0  0  0  0  0  0  0  0  0  0
    3.7562   -2.8460    1.5256 C   0  0  2  0  0  0  0  0  0  0  0  0
    2.7050   -3.7854    2.1852 C   0  0  2  0  0  0  0  0  0  0  0  0
    2.4459   -3.4233    3.6532 C   0  0  0  0  0  0  0  0  0  0  0  0
    1.5187   -4.3895    4.3326 C   0  0  0  0  0  0  0  0  0  0  0  0
    1.3592   -5.6799    3.9759 C   0  0  0  0  0  0  0  0  0  0  0  0
    0.3568   -6.5644    4.7116 C   0  0  0  0  0  0  0  0  0  0  0  0
   -0.6300   -7.1771    3.7156 C   0  0  0  0  0  0  0  0  0  0  0  0
   -1.7699   -7.4153    4.0941 O   0  0  0  0  0  0  0  0  0  0  0  0
   -0.1798   -7.4420    2.3394 C   0  0  0  0  0  0  0  0  0  0  0  0
    1.0509   -7.0772    1.9361 C   0  0  0  0  0  0  0  0  0  0  0  0
    2.0915   -6.3260    2.7888 C   0  0  2  0  0  0  0  0  0  0  0  0
    3.0239   -7.4269    3.3393 C   0  0  0  0  0  0  0  0  0  0  0  0
    2.9964   -5.2974    1.9966 C   0  0  1  0  0  0  0  0  0  0  0  0
    3.1926   -5.5908    0.4936 C   0  0  1  0  0  0  0  0  0  0  0  0
    2.0101   -5.3776   -0.2704 O   0  0  0  0  0  0  0  0  0  0  0  0
    4.3305   -4.7291   -0.0728 C   0  0  0  0  0  0  0  0  0  0  0  0
    4.1003   -3.1884    0.0504 C   0  0  2  0  0  0  0  0  0  0  0  0
    3.0122   -2.6620   -0.9035 C   0  0  0  0  0  0  0  0  0  0  0  0
    4.8992   -2.0980   -3.0200 H   0  0  0  0  0  0  0  0  0  0  0  0
    4.9115   -3.8403   -2.7606 H   0  0  0  0  0  0  0  0  0  0  0  0
    6.2587   -3.0893   -3.5512 H   0  0  0  0  0  0  0  0  0  0  0  0
    5.1310   -1.3291   -0.2494 H   0  0  0  0  0  0  0  0  0  0  0  0
    6.8456   -3.3791    1.1221 H   0  0  0  0  0  0  0  0  0  0  0  0
    6.8190   -1.6405    1.3488 H   0  0  0  0  0  0  0  0  0  0  0  0
    5.3606   -3.6484    2.7847 H   0  0  0  0  0  0  0  0  0  0  0  0
    4.8850   -0.8679    2.7150 H   0  0  0  0  0  0  0  0  0  0  0  0
    3.3300   -1.8415    1.5146 H   0  0  0  0  0  0  0  0  0  0  0  0
    1.7715   -3.5862    1.6703 H   0  0  0  0  0  0  0  0  0  0  0  0
    3.3780   -3.4143    4.2292 H   0  0  0  0  0  0  0  0  0  0  0  0
    2.0170   -2.4170    3.7068 H   0  0  0  0  0  0  0  0  0  0  0  0
    0.9849   -3.9936    5.1905 H   0  0  0  0  0  0  0  0  0  0  0  0
    0.8746   -7.3453    5.2651 H   0  0  0  0  0  0  0  0  0  0  0  0
   -0.1923   -5.9629    5.4255 H   0  0  0  0  0  0  0  0  0  0  0  0
   -0.8523   -7.9860    1.6929 H   0  0  0  0  0  0  0  0  0  0  0  0
    1.3461   -7.3691    0.9390 H   0  0  0  0  0  0  0  0  0  0  0  0
    2.4709   -8.2120    3.8572 H   0  0  0  0  0  0  0  0  0  0  0  0
    3.7483   -7.0191    4.0439 H   0  0  0  0  0  0  0  0  0  0  0  0
    3.5766   -7.9138    2.5340 H   0  0  0  0  0  0  0  0  0  0  0  0
    3.9850   -5.4237    2.4418 H   0  0  0  0  0  0  0  0  0  0  0  0
    3.4969   -6.6308    0.3779 H   0  0  0  0  0  0  0  0  0  0  0  0
    2.2473   -5.4559   -1.2032 H   0  0  0  0  0  0  0  0  0  0  0  0
    5.2554   -4.9898    0.4486 H   0  0  0  0  0  0  0  0  0  0  0  0
    4.4694   -5.0637   -1.0916 H   0  0  0  0  0  0  0  0  0  0  0  0
    2.0152   -2.9255   -0.5455 H   0  0  0  0  0  0  0  0  0  0  0  0
    3.0438   -3.0443   -1.9212 H   0  0  0  0  0  0  0  0  0  0  0  0
    3.0179   -1.5747   -0.9526 H   0  0  0  0  0  0  0  0  0  0  0  0
  1  2  1  0
  1 26  1  0
  1 27  1  0
  1 28  1  0
  2  3  2  0
  2  4  1  0
  4 24  1  0
  4  5  1  0
  4 29  1  6
  5  6  1  0
  5 30  1  0
  5 31  1  0
  6  7  1  0
  6  8  1  0
  6 32  1  1
  7 33  1  0
  8 24  1  0
  8  9  1  0
  8 34  1  6
  9 20  1  0
  9 10  1  0
  9 35  1  6
 10 11  1  0
 10 36  1  0
 10 37  1  0
 11 12  2  0
 11 38  1  0
 12 18  1  0
 12 13  1  0
 13 14  1  0
 13 39  1  0
 13 40  1  0
 14 15  2  0
 14 16  1  0
 16 17  2  0
 16 41  1  0
 17 18  1  0
 17 42  1  0
 18 19  1  1
 18 20  1  0
 19 43  1  0
 19 44  1  0
 19 45  1  0
 20 21  1  0
 20 46  1  1
 21 22  1  0
 21 23  1  0
 21 47  1  1
 22 48  1  0
 23 24  1  0
 23 49  1  0
 23 50  1  0
 24 25  1  6
 25 51  1  0
 25 52  1  0
 25 53  1  0
M  END
>  <i_m_ct_stereo_status>  (270) 
1

>  <s_m_source_file>  (270) 
/var/tmp/pbs.5076255.sched01/tmph7d3_0rd/117btfl79hs.sdf

>  <i_m_source_file_index>  (270) 
7

>  <i_lp_mmshare_version>  (270) 
48012

>  <i_f3d_flags>  (270) 
0

>  <s_epik_input>  (270) 
W09IXVtDQEBIXTFbQ0gyXVtDQEBIXShDKD1PKVtDSDNdKVtDQEBdKFtDSDNdKShbQ0gyXVtDQEBIXShbQ0BASF0yMylbT0hdKVtDQEhdMVtDQEBIXTJbQ0gyXVtDSF09QyhbQ0BdMzRbQ0gzXSlbQ0gyXUMoPU8pW0NIXT1bQ0hdNA==

>  <s_epik_cmdline>  (270) 
J2VwaWtfcHl0aG9uJywgJy1waHQnLCAnMi4wJywgJy1waCcsICc3LjAnLCAnLXRuJywgJzgnLCAnLW1hJywgJzIwMCcsICctaW1hZScsICc8aW5maWxlLm1hZT4nLCAnLW9tYWUnLCAnPG91dGZpbGUubWFlPic=

>  <r_lp_tautomer_probability>  (270) 
1

>  <r_epik_Ionization_Penalty>  (270) 
8.6873e-07

>  <r_epik_Ionization_Penalty_Charging>  (270) 
0

>  <r_epik_Ionization_Penalty_Neutral>  (270) 
8.6873e-07

>  <r_epik_State_Penalty>  (270) 
-0

>  <r_epik_Charging_Adjusted_Penalty>  (270) 
0

>  <i_epik_Tot_Q>  (270) 
0

>  <i_epik_Tot_abs_Q>  (270) 
0

>  <s_lp_Force_Field>  (270) 
OPLS3e

>  <r_lp_Energy>  (270) 
46.3315

>  <b_lp_Chiralities_Consistent>  (270) 
1

>  <s_lp_Variant>  (270) 
92:0-1

>  <s_i_glide_gridfile>  (270) 
pfpi4k_grid

>  <i_i_glide_lignum>  (270) 
7

>  <i_i_glide_rotatable_bonds>  (270) 
3

>  <r_i_docking_score>  (270) 
-4.52068

>  <r_i_glide_ligand_efficiency>  (270) 
-0.180827

>  <r_i_glide_ligand_efficiency_sa>  (270) 
-0.528742

>  <r_i_glide_ligand_efficiency_ln>  (270) 
-1.07154

>  <r_i_glide_gscore>  (270) 
-4.52068

>  <r_i_glide_lipo>  (270) 
-0.348164

>  <r_i_glide_hbond>  (270) 
-0.48003

>  <r_i_glide_metal>  (270) 
-0

>  <r_i_glide_rewards>  (270) 
-1.0606

>  <r_i_glide_evdw>  (270) 
-27.4002

>  <r_i_glide_ecoul>  (270) 
-7.89919

>  <r_i_glide_erotb>  (270) 
0

>  <r_i_glide_esite>  (270) 
-0.0769943

>  <r_i_glide_emodel>  (270) 
-43.9161

>  <r_i_glide_energy>  (270) 
-35.2994

>  <r_i_glide_einternal>  (270) 
1.62384

>  <r_i_glide_intrahb_reward>  (270) 
-0

>  <i_i_glide_confnum>  (270) 
2

>  <i_i_glide_posenum>  (270) 
35

>  <r_i_glide_eff_state_penalty>  (270) 
0

>  <ligand_id>  (270) 
92

>  <original_smiles>  (270) 
CC(=O)C1CC(O)C2C3CC=C4CC(=O)C=CC4(C)C3C(O)CC12C

>  <smiles>  (270) 
[H]OC1([H])C([H])([H])C2(C([H])([H])[H])C([H])(C(=O)C([H])([H])[H])C([H])([H])C([H])(O[H])C2([H])C2([H])C([H])([H])C([H])=C3C([H])([H])C(=O)C([H])=C([H])C3(C([H])([H])[H])C12[H]

$$$$
92:0:1
     RDKit          3D

 53 56  0  0  1  0  0  0  0  0999 V2000
    5.5234   -2.9265   -2.7246 C   0  0  0  0  0  0  0  0  0  0  0  0
    6.2331   -2.7118   -1.3922 C   0  0  0  0  0  0  0  0  0  0  0  0
    7.4630   -2.6696   -1.3461 O   0  0  0  0  0  0  0  0  0  0  0  0
    5.4018   -2.4092   -0.1251 C   0  0  2  0  0  0  0  0  0  0  0  0
    6.1727   -2.5669    1.2007 C   0  0  0  0  0  0  0  0  0  0  0  0
    5.1064   -2.8023    2.2887 C   0  0  1  0  0  0  0  0  0  0  0  0
    5.1217   -1.7226    3.1978 O   0  0  0  0  0  0  0  0  0  0  0  0
    3.7454   -2.8868    1.5612 C   0  0  2  0  0  0  0  0  0  0  0  0
    2.6794   -3.8267    2.2038 C   0  0  2  0  0  0  0  0  0  0  0  0
    2.4274   -3.4796    3.6778 C   0  0  0  0  0  0  0  0  0  0  0  0
    1.4883   -4.4493    4.3457 C   0  0  0  0  0  0  0  0  0  0  0  0
    1.3202   -5.7327    3.9710 C   0  0  0  0  0  0  0  0  0  0  0  0
    0.3185   -6.6166    4.6905 C   0  0  0  0  0  0  0  0  0  0  0  0
   -0.6685   -7.2116    3.6884 C   0  0  0  0  0  0  0  0  0  0  0  0
   -1.8044   -7.4591    4.0780 O   0  0  0  0  0  0  0  0  0  0  0  0
   -0.2293   -7.4543    2.3095 C   0  0  0  0  0  0  0  0  0  0  0  0
    1.0058   -7.0963    1.9059 C   0  0  0  0  0  0  0  0  0  0  0  0
    2.0496   -6.3690    2.7718 C   0  0  2  0  0  0  0  0  0  0  0  0
    2.9710   -7.4844    3.3108 C   0  0  0  0  0  0  0  0  0  0  0  0
    2.9603   -5.3349    1.9912 C   0  0  1  0  0  0  0  0  0  0  0  0
    3.1631   -5.6069    0.4836 C   0  0  1  0  0  0  0  0  0  0  0  0
    1.9873   -5.3827   -0.3011 O   0  0  0  0  0  0  0  0  0  0  0  0
    4.3057   -4.7467   -0.0619 C   0  0  0  0  0  0  0  0  0  0  0  0
    4.0926   -3.2086    0.0838 C   0  0  2  0  0  0  0  0  0  0  0  0
    2.9985   -2.6579   -0.8625 C   0  0  0  0  0  0  0  0  0  0  0  0
    4.9008   -2.0665   -2.9561 H   0  0  0  0  0  0  0  0  0  0  0  0
    4.8972   -3.8110   -2.7241 H   0  0  0  0  0  0  0  0  0  0  0  0
    6.2435   -3.0690   -3.5249 H   0  0  0  0  0  0  0  0  0  0  0  0
    5.1414   -1.3532   -0.1793 H   0  0  0  0  0  0  0  0  0  0  0  0
    6.8336   -3.4374    1.1615 H   0  0  0  0  0  0  0  0  0  0  0  0
    6.8127   -1.7029    1.4203 H   0  0  0  0  0  0  0  0  0  0  0  0
    5.3377   -3.7269    2.8206 H   0  0  0  0  0  0  0  0  0  0  0  0
    4.4547   -1.8850    3.8506 H   0  0  0  0  0  0  0  0  0  0  0  0
    3.3340   -1.8775    1.5654 H   0  0  0  0  0  0  0  0  0  0  0  0
    1.7547   -3.6099    1.6884 H   0  0  0  0  0  0  0  0  0  0  0  0
    3.3513   -3.4967    4.2596 H   0  0  0  0  0  0  0  0  0  0  0  0
    2.0048   -2.4742    3.7493 H   0  0  0  0  0  0  0  0  0  0  0  0
    0.9601   -4.0612    5.2079 H   0  0  0  0  0  0  0  0  0  0  0  0
    0.8224   -7.4102    5.2374 H   0  0  0  0  0  0  0  0  0  0  0  0
   -0.2368   -6.0211    5.4146 H   0  0  0  0  0  0  0  0  0  0  0  0
   -0.9053   -7.9884    1.6518 H   0  0  0  0  0  0  0  0  0  0  0  0
    1.2991   -7.3753    0.9074 H   0  0  0  0  0  0  0  0  0  0  0  0
    2.4108   -8.2703    3.8184 H   0  0  0  0  0  0  0  0  0  0  0  0
    3.6994   -7.0933    4.0264 H   0  0  0  0  0  0  0  0  0  0  0  0
    3.5218   -7.9667    2.5033 H   0  0  0  0  0  0  0  0  0  0  0  0
    3.9426   -5.4756    2.4326 H   0  0  0  0  0  0  0  0  0  0  0  0
    3.4620   -6.6480    0.3554 H   0  0  0  0  0  0  0  0  0  0  0  0
    2.2288   -5.4590   -1.2225 H   0  0  0  0  0  0  0  0  0  0  0  0
    5.2282   -5.0252    0.4509 H   0  0  0  0  0  0  0  0  0  0  0  0
    4.4519   -5.0550   -1.0920 H   0  0  0  0  0  0  0  0  0  0  0  0
    2.0070   -2.9280   -0.5159 H   0  0  0  0  0  0  0  0  0  0  0  0
    3.0421   -3.0223   -1.8881 H   0  0  0  0  0  0  0  0  0  0  0  0
    3.0153   -1.5724   -0.8962 H   0  0  0  0  0  0  0  0  0  0  0  0
  1  2  1  0
  1 26  1  0
  1 27  1  0
  1 28  1  0
  2  3  2  0
  2  4  1  0
  4 24  1  0
  4  5  1  0
  4 29  1  6
  5  6  1  0
  5 30  1  0
  5 31  1  0
  6  7  1  0
  6  8  1  0
  6 32  1  1
  7 33  1  0
  8 24  1  0
  8  9  1  0
  8 34  1  6
  9 20  1  0
  9 10  1  0
  9 35  1  6
 10 11  1  0
 10 36  1  0
 10 37  1  0
 11 12  2  0
 11 38  1  0
 12 18  1  0
 12 13  1  0
 13 14  1  0
 13 39  1  0
 13 40  1  0
 14 15  2  0
 14 16  1  0
 16 17  2  0
 16 41  1  0
 17 18  1  0
 17 42  1  0
 18 19  1  1
 18 20  1  0
 19 43  1  0
 19 44  1  0
 19 45  1  0
 20 21  1  0
 20 46  1  1
 21 22  1  0
 21 23  1  0
 21 47  1  1
 22 48  1  0
 23 24  1  0
 23 49  1  0
 23 50  1  0
 24 25  1  6
 25 51  1  0
 25 52  1  0
 25 53  1  0
M  END
>  <i_m_ct_stereo_status>  (271) 
1

>  <s_m_source_file>  (271) 
/var/tmp/pbs.5076255.sched01/tmph7d3_0rd/117btfl79hs.sdf

>  <i_m_source_file_index>  (271) 
7

>  <i_lp_mmshare_version>  (271) 
48012

>  <i_f3d_flags>  (271) 
0

>  <s_epik_input>  (271) 
W09IXVtDQEBIXTFbQ0gyXVtDQEBIXShDKD1PKVtDSDNdKVtDQEBdKFtDSDNdKShbQ0gyXVtDQEBIXShbQ0BASF0yMylbT0hdKVtDQEhdMVtDQEBIXTJbQ0gyXVtDSF09QyhbQ0BdMzRbQ0gzXSlbQ0gyXUMoPU8pW0NIXT1bQ0hdNA==

>  <s_epik_cmdline>  (271) 
J2VwaWtfcHl0aG9uJywgJy1waHQnLCAnMi4wJywgJy1waCcsICc3LjAnLCAnLXRuJywgJzgnLCAnLW1hJywgJzIwMCcsICctaW1hZScsICc8aW5maWxlLm1hZT4nLCAnLW9tYWUnLCAnPG91dGZpbGUubWFlPic=

>  <r_lp_tautomer_probability>  (271) 
1

>  <r_epik_Ionization_Penalty>  (271) 
8.6873e-07

>  <r_epik_Ionization_Penalty_Charging>  (271) 
0

>  <r_epik_Ionization_Penalty_Neutral>  (271) 
8.6873e-07

>  <r_epik_State_Penalty>  (271) 
-0

>  <r_epik_Charging_Adjusted_Penalty>  (271) 
0

>  <i_epik_Tot_Q>  (271) 
0

>  <i_epik_Tot_abs_Q>  (271) 
0

>  <s_lp_Force_Field>  (271) 
OPLS3e

>  <r_lp_Energy>  (271) 
46.3315

>  <b_lp_Chiralities_Consistent>  (271) 
1

>  <s_lp_Variant>  (271) 
92:0-1

>  <s_i_glide_gridfile>  (271) 
pfpi4k_grid

>  <i_i_glide_lignum>  (271) 
7

>  <i_i_glide_rotatable_bonds>  (271) 
3

>  <r_i_docking_score>  (271) 
-4.51689

>  <r_i_glide_ligand_efficiency>  (271) 
-0.180676

>  <r_i_glide_ligand_efficiency_sa>  (271) 
-0.528299

>  <r_i_glide_ligand_efficiency_ln>  (271) 
-1.07064

>  <r_i_glide_gscore>  (271) 
-4.51689

>  <r_i_glide_lipo>  (271) 
-0.35029

>  <r_i_glide_hbond>  (271) 
-0.461267

>  <r_i_glide_metal>  (271) 
-0

>  <r_i_glide_rewards>  (271) 
-1.0606

>  <r_i_glide_evdw>  (271) 
-27.3106

>  <r_i_glide_ecoul>  (271) 
-8.02258

>  <r_i_glide_erotb>  (271) 
0

>  <r_i_glide_esite>  (271) 
-0.0758162

>  <r_i_glide_emodel>  (271) 
-43.8926

>  <r_i_glide_energy>  (271) 
-35.3332

>  <r_i_glide_einternal>  (271) 
1.82991

>  <r_i_glide_intrahb_reward>  (271) 
-0

>  <i_i_glide_confnum>  (271) 
2

>  <i_i_glide_posenum>  (271) 
40

>  <r_i_glide_eff_state_penalty>  (271) 
0

>  <ligand_id>  (271) 
92

>  <original_smiles>  (271) 
CC(=O)C1CC(O)C2C3CC=C4CC(=O)C=CC4(C)C3C(O)CC12C

>  <smiles>  (271) 
[H]OC1([H])C([H])([H])C2(C([H])([H])[H])C([H])(C(=O)C([H])([H])[H])C([H])([H])C([H])(O[H])C2([H])C2([H])C([H])([H])C([H])=C3C([H])([H])C(=O)C([H])=C([H])C3(C([H])([H])[H])C12[H]

$$$$
92:0:2
     RDKit          3D

 53 56  0  0  1  0  0  0  0  0999 V2000
    5.6133   -3.0508   -2.7786 C   0  0  0  0  0  0  0  0  0  0  0  0
    6.2875   -2.6737   -1.4644 C   0  0  0  0  0  0  0  0  0  0  0  0
    7.5116   -2.6075   -1.3917 O   0  0  0  0  0  0  0  0  0  0  0  0
    5.4109   -2.2478   -0.2618 C   0  0  2  0  0  0  0  0  0  0  0  0
    6.1727   -2.2037    1.0782 C   0  0  0  0  0  0  0  0  0  0  0  0
    5.1000   -2.3478    2.1724 C   0  0  1  0  0  0  0  0  0  0  0  0
    5.0534   -1.1579    2.9331 O   0  0  0  0  0  0  0  0  0  0  0  0
    3.7564   -2.5960    1.4483 C   0  0  2  0  0  0  0  0  0  0  0  0
    2.7257   -3.4990    2.1912 C   0  0  2  0  0  0  0  0  0  0  0  0
    2.4277   -2.9767    3.6059 C   0  0  0  0  0  0  0  0  0  0  0  0
    1.5232   -3.9039    4.3785 C   0  0  0  0  0  0  0  0  0  0  0  0
    1.4213   -5.2244    4.1725 C   0  0  0  0  0  0  0  0  0  0  0  0
    0.4477   -6.0666    4.9847 C   0  0  0  0  0  0  0  0  0  0  0  0
   -0.4983   -6.8330    4.0563 C   0  0  0  0  0  0  0  0  0  0  0  0
   -1.6389   -7.0590    4.4296 O   0  0  0  0  0  0  0  0  0  0  0  0
   -0.0022   -7.2305    2.7288 C   0  0  0  0  0  0  0  0  0  0  0  0
    1.2136   -6.8650    2.3033 C   0  0  0  0  0  0  0  0  0  0  0  0
    2.2089   -5.9753    3.0766 C   0  0  2  0  0  0  0  0  0  0  0  0
    3.1708   -6.9620    3.7685 C   0  0  0  0  0  0  0  0  0  0  0  0
    3.0881   -5.0060    2.1842 C   0  0  1  0  0  0  0  0  0  0  0  0
    3.3417   -5.4687    0.7331 C   0  0  1  0  0  0  0  0  0  0  0  0
    2.1656   -5.4221   -0.0545 O   0  0  0  0  0  0  0  0  0  0  0  0
    4.4277   -4.6094    0.0644 C   0  0  0  0  0  0  0  0  0  0  0  0
    4.1278   -3.0791    0.0222 C   0  0  2  0  0  0  0  0  0  0  0  0
    3.0112   -2.7056   -0.9887 C   0  0  0  0  0  0  0  0  0  0  0  0
    4.9725   -2.2380   -3.1154 H   0  0  0  0  0  0  0  0  0  0  0  0
    5.0135   -3.9512   -2.6870 H   0  0  0  0  0  0  0  0  0  0  0  0
    6.3560   -3.2464   -3.5454 H   0  0  0  0  0  0  0  0  0  0  0  0
    5.1007   -1.2228   -0.4592 H   0  0  0  0  0  0  0  0  0  0  0  0
    6.8736   -3.0402    1.1612 H   0  0  0  0  0  0  0  0  0  0  0  0
    6.7669   -1.2887    1.1876 H   0  0  0  0  0  0  0  0  0  0  0  0
    5.3646   -3.1760    2.8302 H   0  0  0  0  0  0  0  0  0  0  0  0
    5.8862   -1.0514    3.3769 H   0  0  0  0  0  0  0  0  0  0  0  0
    3.2975   -1.6159    1.3286 H   0  0  0  0  0  0  0  0  0  0  0  0
    1.8045   -3.3969    1.6316 H   0  0  0  0  0  0  0  0  0  0  0  0
    3.3411   -2.8649    4.1936 H   0  0  0  0  0  0  0  0  0  0  0  0
    1.9546   -1.9952    3.5370 H   0  0  0  0  0  0  0  0  0  0  0  0
    0.9564   -3.4327    5.1761 H   0  0  0  0  0  0  0  0  0  0  0  0
    0.9807   -6.7535    5.6392 H   0  0  0  0  0  0  0  0  0  0  0  0
   -0.1445   -5.4127    5.6204 H   0  0  0  0  0  0  0  0  0  0  0  0
   -0.6423   -7.8712    2.1326 H   0  0  0  0  0  0  0  0  0  0  0  0
    1.5432   -7.2542    1.3503 H   0  0  0  0  0  0  0  0  0  0  0  0
    2.6397   -7.7043    4.3657 H   0  0  0  0  0  0  0  0  0  0  0  0
    3.8626   -6.4447    4.4337 H   0  0  0  0  0  0  0  0  0  0  0  0
    3.7612   -7.5142    3.0353 H   0  0  0  0  0  0  0  0  0  0  0  0
    4.0702   -5.0387    2.6522 H   0  0  0  0  0  0  0  0  0  0  0  0
    3.6942   -6.5016    0.7344 H   0  0  0  0  0  0  0  0  0  0  0  0
    2.4274   -5.6093   -0.9515 H   0  0  0  0  0  0  0  0  0  0  0  0
    5.3560   -4.7774    0.6139 H   0  0  0  0  0  0  0  0  0  0  0  0
    4.6023   -5.0235   -0.9259 H   0  0  0  0  0  0  0  0  0  0  0  0
    2.0221   -2.9709   -0.6189 H   0  0  0  0  0  0  0  0  0  0  0  0
    3.1033   -3.1922   -1.9596 H   0  0  0  0  0  0  0  0  0  0  0  0
    3.0058   -1.6281   -1.1649 H   0  0  0  0  0  0  0  0  0  0  0  0
  1  2  1  0
  1 26  1  0
  1 27  1  0
  1 28  1  0
  2  3  2  0
  2  4  1  0
  4 24  1  0
  4  5  1  0
  4 29  1  6
  5  6  1  0
  5 30  1  0
  5 31  1  0
  6  7  1  0
  6  8  1  0
  6 32  1  1
  7 33  1  0
  8 24  1  0
  8  9  1  0
  8 34  1  6
  9 20  1  0
  9 10  1  0
  9 35  1  6
 10 11  1  0
 10 36  1  0
 10 37  1  0
 11 12  2  0
 11 38  1  0
 12 18  1  0
 12 13  1  0
 13 14  1  0
 13 39  1  0
 13 40  1  0
 14 15  2  0
 14 16  1  0
 16 17  2  0
 16 41  1  0
 17 18  1  0
 17 42  1  0
 18 19  1  1
 18 20  1  0
 19 43  1  0
 19 44  1  0
 19 45  1  0
 20 21  1  0
 20 46  1  1
 21 22  1  0
 21 23  1  0
 21 47  1  1
 22 48  1  0
 23 24  1  0
 23 49  1  0
 23 50  1  0
 24 25  1  6
 25 51  1  0
 25 52  1  0
 25 53  1  0
M  END
>  <i_m_ct_stereo_status>  (272) 
1

>  <s_m_source_file>  (272) 
/var/tmp/pbs.5076255.sched01/tmph7d3_0rd/117btfl79hs.sdf

>  <i_m_source_file_index>  (272) 
7

>  <i_lp_mmshare_version>  (272) 
48012

>  <i_f3d_flags>  (272) 
0

>  <s_epik_input>  (272) 
W09IXVtDQEBIXTFbQ0gyXVtDQEBIXShDKD1PKVtDSDNdKVtDQEBdKFtDSDNdKShbQ0gyXVtDQEBIXShbQ0BASF0yMylbT0hdKVtDQEhdMVtDQEBIXTJbQ0gyXVtDSF09QyhbQ0BdMzRbQ0gzXSlbQ0gyXUMoPU8pW0NIXT1bQ0hdNA==

>  <s_epik_cmdline>  (272) 
J2VwaWtfcHl0aG9uJywgJy1waHQnLCAnMi4wJywgJy1waCcsICc3LjAnLCAnLXRuJywgJzgnLCAnLW1hJywgJzIwMCcsICctaW1hZScsICc8aW5maWxlLm1hZT4nLCAnLW9tYWUnLCAnPG91dGZpbGUubWFlPic=

>  <r_lp_tautomer_probability>  (272) 
1

>  <r_epik_Ionization_Penalty>  (272) 
8.6873e-07

>  <r_epik_Ionization_Penalty_Charging>  (272) 
0

>  <r_epik_Ionization_Penalty_Neutral>  (272) 
8.6873e-07

>  <r_epik_State_Penalty>  (272) 
-0

>  <r_epik_Charging_Adjusted_Penalty>  (272) 
0

>  <i_epik_Tot_Q>  (272) 
0

>  <i_epik_Tot_abs_Q>  (272) 
0

>  <s_lp_Force_Field>  (272) 
OPLS3e

>  <r_lp_Energy>  (272) 
46.3315

>  <b_lp_Chiralities_Consistent>  (272) 
1

>  <s_lp_Variant>  (272) 
92:0-1

>  <s_i_glide_gridfile>  (272) 
pfpi4k_grid

>  <i_i_glide_lignum>  (272) 
7

>  <i_i_glide_rotatable_bonds>  (272) 
3

>  <r_i_docking_score>  (272) 
-4.29595

>  <r_i_glide_ligand_efficiency>  (272) 
-0.171838

>  <r_i_glide_ligand_efficiency_sa>  (272) 
-0.502458

>  <r_i_glide_ligand_efficiency_ln>  (272) 
-1.01827

>  <r_i_glide_gscore>  (272) 
-4.29595

>  <r_i_glide_lipo>  (272) 
-0.38145

>  <r_i_glide_hbond>  (272) 
-0.48

>  <r_i_glide_metal>  (272) 
-0

>  <r_i_glide_rewards>  (272) 
-1.0606

>  <r_i_glide_evdw>  (272) 
-27.6351

>  <r_i_glide_ecoul>  (272) 
-6.12609

>  <r_i_glide_erotb>  (272) 
0

>  <r_i_glide_esite>  (272) 
-0.07323

>  <r_i_glide_emodel>  (272) 
-42.0405

>  <r_i_glide_energy>  (272) 
-33.7612

>  <r_i_glide_einternal>  (272) 
1.5474

>  <r_i_glide_intrahb_reward>  (272) 
-0

>  <i_i_glide_confnum>  (272) 
2

>  <i_i_glide_posenum>  (272) 
10

>  <r_i_glide_eff_state_penalty>  (272) 
0

>  <ligand_id>  (272) 
92

>  <original_smiles>  (272) 
CC(=O)C1CC(O)C2C3CC=C4CC(=O)C=CC4(C)C3C(O)CC12C

>  <smiles>  (272) 
[H]OC1([H])C([H])([H])C2(C([H])([H])[H])C([H])(C(=O)C([H])([H])[H])C([H])([H])C([H])(O[H])C2([H])C2([H])C([H])([H])C([H])=C3C([H])([H])C(=O)C([H])=C([H])C3(C([H])([H])[H])C12[H]

$$$$
93:0:0
     RDKit          3D

 67 72  0  0  1  0  0  0  0  0999 V2000
    3.3415   -1.8336    7.9653 C   0  0  0  0  0  0  0  0  0  0  0  0
    3.7318   -1.6661    6.4797 C   0  0  2  0  0  0  0  0  0  0  0  0
    2.5826   -1.0064    5.7297 C   0  0  0  0  0  0  0  0  0  0  0  0
    2.8929   -0.6031    4.2808 C   0  0  0  0  0  0  0  0  0  0  0  0
    4.0405   -1.3186    3.4497 C   0  0  2  0  0  0  0  0  0  0  0  0
    5.2377   -0.3073    3.5989 C   0  0  0  0  0  0  0  0  0  0  0  0
    3.3667   -1.2152    1.8261 C   0  0  1  0  0  0  0  0  0  0  0  0
    3.2179    0.1683    1.5778 O   0  0  0  0  0  0  0  0  0  0  0  0
    3.7936   -1.7124    0.2603 C   0  0  0  0  0  0  0  0  0  0  0  0
    3.9831   -3.2435   -0.3030 C   0  0  2  0  0  0  0  0  0  0  0  0
    2.6605   -3.9577   -0.3872 C   0  0  0  0  0  0  0  0  0  0  0  0
    2.7364   -5.2722    0.3976 C   0  0  0  0  0  0  0  0  0  0  0  0
    3.8551   -5.3426    1.4946 C   0  0  1  0  0  0  0  0  0  0  0  0
    3.4463   -6.6128    2.3260 C   0  0  0  0  0  0  0  0  0  0  0  0
    5.1880   -5.4780    0.8267 C   0  0  2  0  0  0  0  0  0  0  0  0
    6.1377   -5.7925    2.1315 C   0  0  0  0  0  0  0  0  0  0  0  0
    5.8106   -5.0416    3.5052 C   0  0  0  0  0  0  0  0  0  0  0  0
    4.8070   -4.1068    3.5568 C   0  0  0  0  0  0  0  0  0  0  0  0
    4.6254   -2.7150    4.3164 C   0  0  2  0  0  0  0  0  0  0  0  0
    4.0404   -2.9842    5.7411 C   0  0  1  0  0  0  0  0  0  0  0  0
    4.9394   -3.9156    6.5902 C   0  0  0  0  0  0  0  0  0  0  0  0
    4.1282   -3.9846    2.3168 C   0  0  2  0  0  0  0  0  0  0  0  0
    2.6086   -3.7265    2.7742 C   0  0  0  0  0  0  0  0  0  0  0  0
    5.5314   -3.0246    1.8392 C   0  0  0  0  0  0  0  0  0  0  0  0
    6.3146   -3.3407    0.6027 C   0  0  0  0  0  0  0  0  0  0  0  0
    5.3110   -4.1163   -0.0374 C   0  0  2  0  0  0  0  0  0  0  0  0
    4.8940   -3.7079   -1.4287 C   0  0  0  0  0  0  0  0  0  0  0  0
    2.5394   -2.5608    8.1001 H   0  0  0  0  0  0  0  0  0  0  0  0
    3.0041   -0.8883    8.3955 H   0  0  0  0  0  0  0  0  0  0  0  0
    4.1914   -2.1537    8.5687 H   0  0  0  0  0  0  0  0  0  0  0  0
    4.6074   -1.0165    6.4632 H   0  0  0  0  0  0  0  0  0  0  0  0
    1.7315   -1.6893    5.7231 H   0  0  0  0  0  0  0  0  0  0  0  0
    2.2330   -0.1239    6.2665 H   0  0  0  0  0  0  0  0  0  0  0  0
    1.9324   -0.6900    3.7758 H   0  0  0  0  0  0  0  0  0  0  0  0
    3.0642    0.4758    4.2772 H   0  0  0  0  0  0  0  0  0  0  0  0
    6.1909   -0.6586    3.2075 H   0  0  0  0  0  0  0  0  0  0  0  0
    5.4327   -0.0730    4.6454 H   0  0  0  0  0  0  0  0  0  0  0  0
    5.0459    0.6492    3.1257 H   0  0  0  0  0  0  0  0  0  0  0  0
    2.3162   -1.4790    1.8751 H   0  0  0  0  0  0  0  0  0  0  0  0
    2.5374    0.2811    0.9284 H   0  0  0  0  0  0  0  0  0  0  0  0
    3.0247   -1.2981   -0.3959 H   0  0  0  0  0  0  0  0  0  0  0  0
    4.6784   -1.1541   -0.0484 H   0  0  0  0  0  0  0  0  0  0  0  0
    1.8541   -3.3008   -0.0712 H   0  0  0  0  0  0  0  0  0  0  0  0
    2.4272   -4.1842   -1.4295 H   0  0  0  0  0  0  0  0  0  0  0  0
    1.7488   -5.4784    0.8098 H   0  0  0  0  0  0  0  0  0  0  0  0
    2.9173   -6.0881   -0.3080 H   0  0  0  0  0  0  0  0  0  0  0  0
    3.9306   -6.7082    3.2959 H   0  0  0  0  0  0  0  0  0  0  0  0
    3.6607   -7.5240    1.7680 H   0  0  0  0  0  0  0  0  0  0  0  0
    2.3795   -6.6403    2.5468 H   0  0  0  0  0  0  0  0  0  0  0  0
    5.2169   -6.3243    0.1362 H   0  0  0  0  0  0  0  0  0  0  0  0
    6.0817   -6.8558    2.3563 H   0  0  0  0  0  0  0  0  0  0  0  0
    7.1886   -5.6385    1.8970 H   0  0  0  0  0  0  0  0  0  0  0  0
    6.5634   -5.0854    4.2737 H   0  0  0  0  0  0  0  0  0  0  0  0
    5.6598   -2.4716    4.5532 H   0  0  0  0  0  0  0  0  0  0  0  0
    3.0999   -3.5234    5.6230 H   0  0  0  0  0  0  0  0  0  0  0  0
    5.9087   -3.4619    6.8027 H   0  0  0  0  0  0  0  0  0  0  0  0
    5.1118   -4.8754    6.1062 H   0  0  0  0  0  0  0  0  0  0  0  0
    4.4694   -4.1640    7.5422 H   0  0  0  0  0  0  0  0  0  0  0  0
    1.9022   -3.5116    1.9852 H   0  0  0  0  0  0  0  0  0  0  0  0
    2.3630   -3.0005    3.5307 H   0  0  0  0  0  0  0  0  0  0  0  0
    2.2091   -4.6099    3.2628 H   0  0  0  0  0  0  0  0  0  0  0  0
    5.5236   -1.9640    1.7684 H   0  0  0  0  0  0  0  0  0  0  0  0
    6.4018   -2.9805    2.4941 H   0  0  0  0  0  0  0  0  0  0  0  0
    6.5658   -2.4518    0.0233 H   0  0  0  0  0  0  0  0  0  0  0  0
    7.2403   -3.8947    0.7405 H   0  0  0  0  0  0  0  0  0  0  0  0
    4.5950   -4.5284   -2.0821 H   0  0  0  0  0  0  0  0  0  0  0  0
    5.4730   -2.9382   -1.9364 H   0  0  0  0  0  0  0  0  0  0  0  0
  1  2  1  0
  1 28  1  0
  1 29  1  0
  1 30  1  0
  2 20  1  0
  2  3  1  0
  2 31  1  1
  3  4  1  0
  3 32  1  0
  3 33  1  0
  4  5  1  0
  4 34  1  0
  4 35  1  0
  5 19  1  0
  5  6  1  6
  5  7  1  0
  6 36  1  0
  6 37  1  0
  6 38  1  0
  7  8  1  0
  7  9  1  0
  7 39  1  1
  8 40  1  0
  9 10  1  0
  9 41  1  0
  9 42  1  0
 10 26  1  0
 10 27  1  6
 10 11  1  0
 11 12  1  0
 11 43  1  0
 11 44  1  0
 12 13  1  0
 12 45  1  0
 12 46  1  0
 13 22  1  0
 13 14  1  1
 13 15  1  0
 14 47  1  0
 14 48  1  0
 14 49  1  0
 15 26  1  0
 15 16  1  0
 15 50  1  6
 16 17  1  0
 16 51  1  0
 16 52  1  0
 17 18  2  0
 17 53  1  0
 18 19  1  0
 18 22  1  0
 19 20  1  0
 19 54  1  1
 20 21  1  0
 20 55  1  6
 21 56  1  0
 21 57  1  0
 21 58  1  0
 22 23  1  1
 22 24  1  0
 23 59  1  0
 23 60  1  0
 23 61  1  0
 24 25  1  0
 24 62  1  0
 24 63  1  0
 25 26  1  0
 25 64  1  0
 25 65  1  0
 26 27  1  6
 27 66  1  0
 27 67  1  0
M  END
>  <i_m_ct_stereo_status>  (273) 
1

>  <s_m_source_file>  (273) 
/var/tmp/pbs.5076255.sched01/tmph7d3_0rd/117btfl79hs.sdf

>  <i_m_source_file_index>  (273) 
8

>  <i_lp_mmshare_version>  (273) 
48012

>  <i_f3d_flags>  (273) 
0

>  <s_epik_input>  (273) 
W0NIM11bQ0BIXTFbQ0BIXShbQ0gzXSlbQ0gyXVtDSDJdW0NAXShbQ0gzXSkoW0NAQEhdKFtPSF0pW0NIMl0yKVtDQEBIXTFDKD1bQ0hdW0NIMl0zKVtDQEBdKFtDSDNdKShbQ0gyXVtDSDJdNClbQ0BAXShbQ0gzXSkoW0NIMl1bQ0gyXTUpW0NASF0zW0NAXTQoW0NAXTI1NilbQ0gyXTY=

>  <s_epik_cmdline>  (273) 
J2VwaWtfcHl0aG9uJywgJy1waHQnLCAnMi4wJywgJy1waCcsICc3LjAnLCAnLXRuJywgJzgnLCAnLW1hJywgJzIwMCcsICctaW1hZScsICc8aW5maWxlLm1hZT4nLCAnLW9tYWUnLCAnPG91dGZpbGUubWFlPic=

>  <r_lp_tautomer_probability>  (273) 
1

>  <r_epik_Ionization_Penalty>  (273) 
1.93705e-06

>  <r_epik_Ionization_Penalty_Charging>  (273) 
0

>  <r_epik_Ionization_Penalty_Neutral>  (273) 
1.93705e-06

>  <r_epik_State_Penalty>  (273) 
-0

>  <r_epik_Charging_Adjusted_Penalty>  (273) 
0

>  <i_epik_Tot_Q>  (273) 
0

>  <i_epik_Tot_abs_Q>  (273) 
0

>  <s_lp_Force_Field>  (273) 
OPLS3e

>  <r_lp_Energy>  (273) 
367.879

>  <b_lp_Chiralities_Consistent>  (273) 
1

>  <s_lp_Variant>  (273) 
93:0-1

>  <s_i_glide_gridfile>  (273) 
pfpi4k_grid

>  <i_i_glide_lignum>  (273) 
8

>  <i_i_glide_rotatable_bonds>  (273) 
1

>  <r_i_docking_score>  (273) 
-2.61676

>  <r_i_glide_ligand_efficiency>  (273) 
-0.0969171

>  <r_i_glide_ligand_efficiency_sa>  (273) 
-0.290751

>  <r_i_glide_ligand_efficiency_ln>  (273) 
-0.609139

>  <r_i_glide_gscore>  (273) 
-2.61676

>  <r_i_glide_lipo>  (273) 
-0.540549

>  <r_i_glide_hbond>  (273) 
0

>  <r_i_glide_metal>  (273) 
-0

>  <r_i_glide_rewards>  (273) 
-0.895942

>  <r_i_glide_evdw>  (273) 
-21.6441

>  <r_i_glide_ecoul>  (273) 
-0.65376

>  <r_i_glide_erotb>  (273) 
0

>  <r_i_glide_esite>  (273) 
0

>  <r_i_glide_emodel>  (273) 
-25.9686

>  <r_i_glide_energy>  (273) 
-22.2979

>  <r_i_glide_einternal>  (273) 
0.415813

>  <r_i_glide_intrahb_reward>  (273) 
-0

>  <i_i_glide_confnum>  (273) 
2

>  <i_i_glide_posenum>  (273) 
4

>  <r_i_glide_eff_state_penalty>  (273) 
0

>  <ligand_id>  (273) 
93

>  <original_smiles>  (273) 
CC1CCC2(C)C(O)CC34CCC5(C)C6CC=C(C2C1C)C5(C)CCC63C4

>  <smiles>  (273) 
[H]OC1([H])C([H])([H])C23C([H])([H])C([H])([H])C4(C([H])([H])[H])C5([H])C([H])([H])C([H])=C(C6([H])C([H])(C([H])([H])[H])C([H])(C([H])([H])[H])C([H])([H])C([H])([H])C16C([H])([H])[H])C4(C([H])([H])[H])C([H])([H])C([H])([H])C52C3([H])[H]

$$$$
93:0:1
     RDKit          3D

 67 72  0  0  1  0  0  0  0  0999 V2000
    5.7817   -3.0606   -1.4430 C   0  0  0  0  0  0  0  0  0  0  0  0
    5.0988   -3.2517   -0.0704 C   0  0  2  0  0  0  0  0  0  0  0  0
    3.7100   -3.8352   -0.2749 C   0  0  0  0  0  0  0  0  0  0  0  0
    2.9861   -4.2660    1.0095 C   0  0  0  0  0  0  0  0  0  0  0  0
    3.3366   -3.6218    2.4174 C   0  0  2  0  0  0  0  0  0  0  0  0
    4.2855   -4.7083    3.0514 C   0  0  0  0  0  0  0  0  0  0  0  0
    1.7657   -3.6830    3.2037 C   0  0  1  0  0  0  0  0  0  0  0  0
    1.4125   -5.0571    3.2294 O   0  0  0  0  0  0  0  0  0  0  0  0
    1.0823   -3.2006    4.6803 C   0  0  0  0  0  0  0  0  0  0  0  0
    0.9217   -1.6823    5.2853 C   0  0  2  0  0  0  0  0  0  0  0  0
   -0.1070   -0.8873    4.5211 C   0  0  0  0  0  0  0  0  0  0  0  0
    0.5220    0.4196    4.0288 C   0  0  0  0  0  0  0  0  0  0  0  0
    2.0929    0.4155    3.9252 C   0  0  1  0  0  0  0  0  0  0  0  0
    2.3850    1.7039    3.0738 C   0  0  0  0  0  0  0  0  0  0  0  0
    2.6746    0.4718    5.3009 C   0  0  2  0  0  0  0  0  0  0  0  0
    4.2599    0.7266    4.9466 C   0  0  0  0  0  0  0  0  0  0  0  0
    4.8788   -0.0129    3.6723 C   0  0  0  0  0  0  0  0  0  0  0  0
    4.1104   -0.8794    2.9362 C   0  0  0  0  0  0  0  0  0  0  0  0
    4.4079   -2.2619    2.1933 C   0  0  2  0  0  0  0  0  0  0  0  0
    4.9049   -1.9578    0.7425 C   0  0  1  0  0  0  0  0  0  0  0  0
    6.1781   -1.0822    0.7213 C   0  0  0  0  0  0  0  0  0  0  0  0
    2.7807   -0.9575    3.4302 C   0  0  2  0  0  0  0  0  0  0  0  0
    1.9221   -1.1277    2.0828 C   0  0  0  0  0  0  0  0  0  0  0  0
    3.4964   -1.9989    4.6701 C   0  0  0  0  0  0  0  0  0  0  0  0
    3.2826   -1.7261    6.1271 C   0  0  0  0  0  0  0  0  0  0  0  0
    2.1379   -0.8912    5.9846 C   0  0  2  0  0  0  0  0  0  0  0  0
    0.8894   -1.2689    6.7441 C   0  0  0  0  0  0  0  0  0  0  0  0
    5.2960   -2.2882   -2.0393 H   0  0  0  0  0  0  0  0  0  0  0  0
    5.7583   -3.9842   -2.0246 H   0  0  0  0  0  0  0  0  0  0  0  0
    6.8345   -2.7987   -1.3351 H   0  0  0  0  0  0  0  0  0  0  0  0
    5.7164   -3.9534    0.4893 H   0  0  0  0  0  0  0  0  0  0  0  0
    3.0897   -3.1026   -0.7949 H   0  0  0  0  0  0  0  0  0  0  0  0
    3.7625   -4.6867   -0.9496 H   0  0  0  0  0  0  0  0  0  0  0  0
    1.9363   -4.1156    0.7712 H   0  0  0  0  0  0  0  0  0  0  0  0
    3.0617   -5.3541    1.0765 H   0  0  0  0  0  0  0  0  0  0  0  0
    4.7749   -4.4026    3.9748 H   0  0  0  0  0  0  0  0  0  0  0  0
    5.1043   -4.9533    2.3750 H   0  0  0  0  0  0  0  0  0  0  0  0
    3.7998   -5.6595    3.2627 H   0  0  0  0  0  0  0  0  0  0  0  0
    1.0242   -3.3390    2.4933 H   0  0  0  0  0  0  0  0  0  0  0  0
    1.9982   -5.5056    3.8189 H   0  0  0  0  0  0  0  0  0  0  0  0
    0.0569   -3.5714    4.6523 H   0  0  0  0  0  0  0  0  0  0  0  0
    1.5190   -3.8046    5.4773 H   0  0  0  0  0  0  0  0  0  0  0  0
   -0.5342   -1.4832    3.7188 H   0  0  0  0  0  0  0  0  0  0  0  0
   -0.9569   -0.6489    5.1639 H   0  0  0  0  0  0  0  0  0  0  0  0
    0.0537    0.6769    3.0771 H   0  0  0  0  0  0  0  0  0  0  0  0
    0.2340    1.2302    4.7029 H   0  0  0  0  0  0  0  0  0  0  0  0
    3.3900    1.7622    2.6609 H   0  0  0  0  0  0  0  0  0  0  0  0
    2.2270    2.6039    3.6679 H   0  0  0  0  0  0  0  0  0  0  0  0
    1.7245    1.7959    2.2107 H   0  0  0  0  0  0  0  0  0  0  0  0
    2.2865    1.3155    5.8736 H   0  0  0  0  0  0  0  0  0  0  0  0
    4.4113    1.7910    4.7745 H   0  0  0  0  0  0  0  0  0  0  0  0
    4.8890    0.5135    5.8070 H   0  0  0  0  0  0  0  0  0  0  0  0
    5.9519   -0.0151    3.5830 H   0  0  0  0  0  0  0  0  0  0  0  0
    5.3345   -2.5669    2.6779 H   0  0  0  0  0  0  0  0  0  0  0  0
    4.1416   -1.3626    0.2406 H   0  0  0  0  0  0  0  0  0  0  0  0
    7.0293   -1.5874    1.1776 H   0  0  0  0  0  0  0  0  0  0  0  0
    6.0301   -0.1355    1.2339 H   0  0  0  0  0  0  0  0  0  0  0  0
    6.4523   -0.8077   -0.2951 H   0  0  0  0  0  0  0  0  0  0  0  0
    0.8613   -1.2908    2.2097 H   0  0  0  0  0  0  0  0  0  0  0  0
    2.1954   -1.8398    1.3211 H   0  0  0  0  0  0  0  0  0  0  0  0
    1.9750   -0.2230    1.4837 H   0  0  0  0  0  0  0  0  0  0  0  0
    3.3883   -3.0570    4.6832 H   0  0  0  0  0  0  0  0  0  0  0  0
    4.5875   -2.1045    4.7211 H   0  0  0  0  0  0  0  0  0  0  0  0
    3.0509   -2.6296    6.6940 H   0  0  0  0  0  0  0  0  0  0  0  0
    4.0939   -1.2292    6.6524 H   0  0  0  0  0  0  0  0  0  0  0  0
    0.2531   -0.4389    7.0585 H   0  0  0  0  0  0  0  0  0  0  0  0
    0.9591   -2.0675    7.4820 H   0  0  0  0  0  0  0  0  0  0  0  0
  1  2  1  0
  1 28  1  0
  1 29  1  0
  1 30  1  0
  2 20  1  0
  2  3  1  0
  2 31  1  1
  3  4  1  0
  3 32  1  0
  3 33  1  0
  4  5  1  0
  4 34  1  0
  4 35  1  0
  5 19  1  0
  5  6  1  1
  5  7  1  0
  6 36  1  0
  6 37  1  0
  6 38  1  0
  7  8  1  0
  7  9  1  0
  7 39  1  6
  8 40  1  0
  9 10  1  0
  9 41  1  0
  9 42  1  0
 10 26  1  0
 10 27  1  1
 10 11  1  0
 11 12  1  0
 11 43  1  0
 11 44  1  0
 12 13  1  0
 12 45  1  0
 12 46  1  0
 13 22  1  0
 13 14  1  6
 13 15  1  0
 14 47  1  0
 14 48  1  0
 14 49  1  0
 15 26  1  0
 15 16  1  0
 15 50  1  1
 16 17  1  0
 16 51  1  0
 16 52  1  0
 17 18  2  0
 17 53  1  0
 18 19  1  0
 18 22  1  0
 19 20  1  0
 19 54  1  1
 20 21  1  0
 20 55  1  6
 21 56  1  0
 21 57  1  0
 21 58  1  0
 22 23  1  6
 22 24  1  0
 23 59  1  0
 23 60  1  0
 23 61  1  0
 24 25  1  0
 24 62  1  0
 24 63  1  0
 25 26  1  0
 25 64  1  0
 25 65  1  0
 26 27  1  1
 27 66  1  0
 27 67  1  0
M  END
>  <i_m_ct_stereo_status>  (274) 
1

>  <s_m_source_file>  (274) 
/var/tmp/pbs.5076255.sched01/tmph7d3_0rd/117btfl79hs.sdf

>  <i_m_source_file_index>  (274) 
8

>  <i_lp_mmshare_version>  (274) 
48012

>  <i_f3d_flags>  (274) 
0

>  <s_epik_input>  (274) 
W0NIM11bQ0BIXTFbQ0BIXShbQ0gzXSlbQ0gyXVtDSDJdW0NAXShbQ0gzXSkoW0NAQEhdKFtPSF0pW0NIMl0yKVtDQEBIXTFDKD1bQ0hdW0NIMl0zKVtDQEBdKFtDSDNdKShbQ0gyXVtDSDJdNClbQ0BAXShbQ0gzXSkoW0NIMl1bQ0gyXTUpW0NASF0zW0NAXTQoW0NAXTI1NilbQ0gyXTY=

>  <s_epik_cmdline>  (274) 
J2VwaWtfcHl0aG9uJywgJy1waHQnLCAnMi4wJywgJy1waCcsICc3LjAnLCAnLXRuJywgJzgnLCAnLW1hJywgJzIwMCcsICctaW1hZScsICc8aW5maWxlLm1hZT4nLCAnLW9tYWUnLCAnPG91dGZpbGUubWFlPic=

>  <r_lp_tautomer_probability>  (274) 
1

>  <r_epik_Ionization_Penalty>  (274) 
1.93705e-06

>  <r_epik_Ionization_Penalty_Charging>  (274) 
0

>  <r_epik_Ionization_Penalty_Neutral>  (274) 
1.93705e-06

>  <r_epik_State_Penalty>  (274) 
-0

>  <r_epik_Charging_Adjusted_Penalty>  (274) 
0

>  <i_epik_Tot_Q>  (274) 
0

>  <i_epik_Tot_abs_Q>  (274) 
0

>  <s_lp_Force_Field>  (274) 
OPLS3e

>  <r_lp_Energy>  (274) 
367.879

>  <b_lp_Chiralities_Consistent>  (274) 
1

>  <s_lp_Variant>  (274) 
93:0-1

>  <s_i_glide_gridfile>  (274) 
pfpi4k_grid

>  <i_i_glide_lignum>  (274) 
8

>  <i_i_glide_rotatable_bonds>  (274) 
1

>  <r_i_docking_score>  (274) 
-2.60011

>  <r_i_glide_ligand_efficiency>  (274) 
-0.0963004

>  <r_i_glide_ligand_efficiency_sa>  (274) 
-0.288901

>  <r_i_glide_ligand_efficiency_ln>  (274) 
-0.605263

>  <r_i_glide_gscore>  (274) 
-2.60011

>  <r_i_glide_lipo>  (274) 
-0.387225

>  <r_i_glide_hbond>  (274) 
0

>  <r_i_glide_metal>  (274) 
-0

>  <r_i_glide_rewards>  (274) 
-0.895942

>  <r_i_glide_evdw>  (274) 
-23.8409

>  <r_i_glide_ecoul>  (274) 
-0.832661

>  <r_i_glide_erotb>  (274) 
0

>  <r_i_glide_esite>  (274) 
0

>  <r_i_glide_emodel>  (274) 
-28.6006

>  <r_i_glide_energy>  (274) 
-24.6736

>  <r_i_glide_einternal>  (274) 
0.0101167

>  <r_i_glide_intrahb_reward>  (274) 
-0

>  <i_i_glide_confnum>  (274) 
1

>  <i_i_glide_posenum>  (274) 
7

>  <r_i_glide_eff_state_penalty>  (274) 
0

>  <ligand_id>  (274) 
93

>  <original_smiles>  (274) 
CC1CCC2(C)C(O)CC34CCC5(C)C6CC=C(C2C1C)C5(C)CCC63C4

>  <smiles>  (274) 
[H]OC1([H])C([H])([H])C23C([H])([H])C([H])([H])C4(C([H])([H])[H])C5([H])C([H])([H])C([H])=C(C6([H])C([H])(C([H])([H])[H])C([H])(C([H])([H])[H])C([H])([H])C([H])([H])C16C([H])([H])[H])C4(C([H])([H])[H])C([H])([H])C([H])([H])C52C3([H])[H]

$$$$
93:0:2
     RDKit          3D

 67 72  0  0  1  0  0  0  0  0999 V2000
    4.2358   -2.4596   -2.0667 C   0  0  0  0  0  0  0  0  0  0  0  0
    4.2182   -2.9425   -0.5988 C   0  0  2  0  0  0  0  0  0  0  0  0
    2.9167   -3.6786   -0.3237 C   0  0  0  0  0  0  0  0  0  0  0  0
    2.8511   -4.3931    1.0304 C   0  0  0  0  0  0  0  0  0  0  0  0
    3.7081   -3.9180    2.2681 C   0  0  2  0  0  0  0  0  0  0  0  0
    4.8995   -4.9473    2.2378 C   0  0  0  0  0  0  0  0  0  0  0  0
    2.6150   -4.3086    3.5900 C   0  0  1  0  0  0  0  0  0  0  0  0
    2.4022   -5.7052    3.4898 O   0  0  0  0  0  0  0  0  0  0  0  0
    2.5976   -4.1533    5.2810 C   0  0  0  0  0  0  0  0  0  0  0  0
    2.6217   -2.7785    6.1803 C   0  0  2  0  0  0  0  0  0  0  0  0
    1.3197   -2.0257    6.0734 C   0  0  0  0  0  0  0  0  0  0  0  0
    1.6011   -0.5873    5.6296 C   0  0  0  0  0  0  0  0  0  0  0  0
    2.9740   -0.3608    4.8956 C   0  0  1  0  0  0  0  0  0  0  0  0
    2.8003    1.0695    4.2683 C   0  0  0  0  0  0  0  0  0  0  0  0
    4.0804   -0.4321    5.8996 C   0  0  2  0  0  0  0  0  0  0  0  0
    5.3451    0.0873    4.9862 C   0  0  0  0  0  0  0  0  0  0  0  0
    5.4046   -0.3578    3.4518 C   0  0  0  0  0  0  0  0  0  0  0  0
    4.4516   -1.2030    2.9436 C   0  0  0  0  0  0  0  0  0  0  0  0
    4.4901   -2.4037    1.8929 C   0  0  2  0  0  0  0  0  0  0  0  0
    4.3061   -1.8206    0.4540 C   0  0  1  0  0  0  0  0  0  0  0  0
    5.3957   -0.7874    0.0896 C   0  0  0  0  0  0  0  0  0  0  0  0
    3.4659   -1.5370    3.9084 C   0  0  2  0  0  0  0  0  0  0  0  0
    2.1269   -1.6203    3.0248 C   0  0  0  0  0  0  0  0  0  0  0  0
    4.7017   -2.6438    4.5233 C   0  0  0  0  0  0  0  0  0  0  0  0
    5.1139   -2.6247    5.9634 C   0  0  0  0  0  0  0  0  0  0  0  0
    3.9706   -1.9424    6.4633 C   0  0  2  0  0  0  0  0  0  0  0  0
    3.1893   -2.5973    7.5772 C   0  0  0  0  0  0  0  0  0  0  0  0
    3.4928   -1.6807   -2.2504 H   0  0  0  0  0  0  0  0  0  0  0  0
    4.0260   -3.2828   -2.7538 H   0  0  0  0  0  0  0  0  0  0  0  0
    5.2142   -2.0692   -2.3477 H   0  0  0  0  0  0  0  0  0  0  0  0
    5.0577   -3.6285   -0.4887 H   0  0  0  0  0  0  0  0  0  0  0  0
    2.0918   -2.9675   -0.3940 H   0  0  0  0  0  0  0  0  0  0  0  0
    2.7165   -4.4144   -1.1019 H   0  0  0  0  0  0  0  0  0  0  0  0
    1.8053   -4.3530    1.2861 H   0  0  0  0  0  0  0  0  0  0  0  0
    3.0069   -5.4575    0.8452 H   0  0  0  0  0  0  0  0  0  0  0  0
    5.7133   -4.7179    2.9230 H   0  0  0  0  0  0  0  0  0  0  0  0
    5.3638   -4.9715    1.2511 H   0  0  0  0  0  0  0  0  0  0  0  0
    4.6061   -5.9776    2.4354 H   0  0  0  0  0  0  0  0  0  0  0  0
    1.6163   -3.9791    3.3231 H   0  0  0  0  0  0  0  0  0  0  0  0
    3.2088   -6.1502    3.7023 H   0  0  0  0  0  0  0  0  0  0  0  0
    1.6842   -4.6540    5.6068 H   0  0  0  0  0  0  0  0  0  0  0  0
    3.3699   -4.8032    5.6938 H   0  0  0  0  0  0  0  0  0  0  0  0
    0.6270   -2.5489    5.4196 H   0  0  0  0  0  0  0  0  0  0  0  0
    0.8159   -2.0081    7.0425 H   0  0  0  0  0  0  0  0  0  0  0  0
    0.7571   -0.2566    5.0220 H   0  0  0  0  0  0  0  0  0  0  0  0
    1.5779    0.0645    6.5067 H   0  0  0  0  0  0  0  0  0  0  0  0
    3.5264    1.3317    3.5013 H   0  0  0  0  0  0  0  0  0  0  0  0
    2.8527    1.8389    5.0382 H   0  0  0  0  0  0  0  0  0  0  0  0
    1.8317    1.1946    3.7847 H   0  0  0  0  0  0  0  0  0  0  0  0
    3.9224    0.2535    6.7344 H   0  0  0  0  0  0  0  0  0  0  0  0
    5.3450    1.1755    4.9802 H   0  0  0  0  0  0  0  0  0  0  0  0
    6.2921   -0.1648    5.4558 H   0  0  0  0  0  0  0  0  0  0  0  0
    6.3391   -0.2102    2.9384 H   0  0  0  0  0  0  0  0  0  0  0  0
    5.5514   -2.6491    1.8891 H   0  0  0  0  0  0  0  0  0  0  0  0
    3.3646   -1.2684    0.4268 H   0  0  0  0  0  0  0  0  0  0  0  0
    6.3874   -1.2390    0.0552 H   0  0  0  0  0  0  0  0  0  0  0  0
    5.4256    0.0470    0.7883 H   0  0  0  0  0  0  0  0  0  0  0  0
    5.1934   -0.3295   -0.8779 H   0  0  0  0  0  0  0  0  0  0  0  0
    1.2340   -1.9475    3.5389 H   0  0  0  0  0  0  0  0  0  0  0  0
    2.0972   -2.1664    2.0958 H   0  0  0  0  0  0  0  0  0  0  0  0
    1.8684   -0.6367    2.6428 H   0  0  0  0  0  0  0  0  0  0  0  0
    4.6728   -3.6953    4.3769 H   0  0  0  0  0  0  0  0  0  0  0  0
    5.7150   -2.6070    4.1034 H   0  0  0  0  0  0  0  0  0  0  0  0
    5.2002   -3.6250    6.3892 H   0  0  0  0  0  0  0  0  0  0  0  0
    6.0409   -2.1067    6.1975 H   0  0  0  0  0  0  0  0  0  0  0  0
    2.6958   -1.9202    8.2768 H   0  0  0  0  0  0  0  0  0  0  0  0
    3.6120   -3.4824    8.0519 H   0  0  0  0  0  0  0  0  0  0  0  0
  1  2  1  0
  1 28  1  0
  1 29  1  0
  1 30  1  0
  2 20  1  0
  2  3  1  0
  2 31  1  6
  3  4  1  0
  3 32  1  0
  3 33  1  0
  4  5  1  0
  4 34  1  0
  4 35  1  0
  5 19  1  0
  5  6  1  1
  5  7  1  0
  6 36  1  0
  6 37  1  0
  6 38  1  0
  7  8  1  0
  7  9  1  0
  7 39  1  6
  8 40  1  0
  9 10  1  0
  9 41  1  0
  9 42  1  0
 10 26  1  0
 10 27  1  1
 10 11  1  0
 11 12  1  0
 11 43  1  0
 11 44  1  0
 12 13  1  0
 12 45  1  0
 12 46  1  0
 13 22  1  0
 13 14  1  6
 13 15  1  0
 14 47  1  0
 14 48  1  0
 14 49  1  0
 15 26  1  0
 15 16  1  0
 15 50  1  1
 16 17  1  0
 16 51  1  0
 16 52  1  0
 17 18  2  0
 17 53  1  0
 18 19  1  0
 18 22  1  0
 19 20  1  0
 19 54  1  6
 20 21  1  0
 20 55  1  1
 21 56  1  0
 21 57  1  0
 21 58  1  0
 22 23  1  6
 22 24  1  0
 23 59  1  0
 23 60  1  0
 23 61  1  0
 24 25  1  0
 24 62  1  0
 24 63  1  0
 25 26  1  0
 25 64  1  0
 25 65  1  0
 26 27  1  1
 27 66  1  0
 27 67  1  0
M  END
>  <i_m_ct_stereo_status>  (275) 
1

>  <s_m_source_file>  (275) 
/var/tmp/pbs.5076255.sched01/tmph7d3_0rd/117btfl79hs.sdf

>  <i_m_source_file_index>  (275) 
8

>  <i_lp_mmshare_version>  (275) 
48012

>  <i_f3d_flags>  (275) 
0

>  <s_epik_input>  (275) 
W0NIM11bQ0BIXTFbQ0BIXShbQ0gzXSlbQ0gyXVtDSDJdW0NAXShbQ0gzXSkoW0NAQEhdKFtPSF0pW0NIMl0yKVtDQEBIXTFDKD1bQ0hdW0NIMl0zKVtDQEBdKFtDSDNdKShbQ0gyXVtDSDJdNClbQ0BAXShbQ0gzXSkoW0NIMl1bQ0gyXTUpW0NASF0zW0NAXTQoW0NAXTI1NilbQ0gyXTY=

>  <s_epik_cmdline>  (275) 
J2VwaWtfcHl0aG9uJywgJy1waHQnLCAnMi4wJywgJy1waCcsICc3LjAnLCAnLXRuJywgJzgnLCAnLW1hJywgJzIwMCcsICctaW1hZScsICc8aW5maWxlLm1hZT4nLCAnLW9tYWUnLCAnPG91dGZpbGUubWFlPic=

>  <r_lp_tautomer_probability>  (275) 
1

>  <r_epik_Ionization_Penalty>  (275) 
1.93705e-06

>  <r_epik_Ionization_Penalty_Charging>  (275) 
0

>  <r_epik_Ionization_Penalty_Neutral>  (275) 
1.93705e-06

>  <r_epik_State_Penalty>  (275) 
-0

>  <r_epik_Charging_Adjusted_Penalty>  (275) 
0

>  <i_epik_Tot_Q>  (275) 
0

>  <i_epik_Tot_abs_Q>  (275) 
0

>  <s_lp_Force_Field>  (275) 
OPLS3e

>  <r_lp_Energy>  (275) 
367.879

>  <b_lp_Chiralities_Consistent>  (275) 
1

>  <s_lp_Variant>  (275) 
93:0-1

>  <s_i_glide_gridfile>  (275) 
pfpi4k_grid

>  <i_i_glide_lignum>  (275) 
8

>  <i_i_glide_rotatable_bonds>  (275) 
1

>  <r_i_docking_score>  (275) 
-2.42442

>  <r_i_glide_ligand_efficiency>  (275) 
-0.0897935

>  <r_i_glide_ligand_efficiency_sa>  (275) 
-0.26938

>  <r_i_glide_ligand_efficiency_ln>  (275) 
-0.564366

>  <r_i_glide_gscore>  (275) 
-2.42442

>  <r_i_glide_lipo>  (275) 
-0.378566

>  <r_i_glide_hbond>  (275) 
0

>  <r_i_glide_metal>  (275) 
-0

>  <r_i_glide_rewards>  (275) 
-0.895942

>  <r_i_glide_evdw>  (275) 
-21.5034

>  <r_i_glide_ecoul>  (275) 
-0.4983

>  <r_i_glide_erotb>  (275) 
0

>  <r_i_glide_esite>  (275) 
0

>  <r_i_glide_emodel>  (275) 
-25.6377

>  <r_i_glide_energy>  (275) 
-22.0017

>  <r_i_glide_einternal>  (275) 
0.0105945

>  <r_i_glide_intrahb_reward>  (275) 
-0

>  <i_i_glide_confnum>  (275) 
2

>  <i_i_glide_posenum>  (275) 
22

>  <r_i_glide_eff_state_penalty>  (275) 
0

>  <ligand_id>  (275) 
93

>  <original_smiles>  (275) 
CC1CCC2(C)C(O)CC34CCC5(C)C6CC=C(C2C1C)C5(C)CCC63C4

>  <smiles>  (275) 
[H]OC1([H])C([H])([H])C23C([H])([H])C([H])([H])C4(C([H])([H])[H])C5([H])C([H])([H])C([H])=C(C6([H])C([H])(C([H])([H])[H])C([H])(C([H])([H])[H])C([H])([H])C([H])([H])C16C([H])([H])[H])C4(C([H])([H])[H])C([H])([H])C([H])([H])C52C3([H])[H]

$$$$
95:0:0
     RDKit          3D

131143  0  0  1  0  0  0  0  0999 V2000
   -1.6926   -9.0406    2.4632 C   0  0  0  0  0  0  0  0  0  0  0  0
   -0.8912   -7.7742    2.1281 C   0  0  0  0  0  0  0  0  0  0  0  0
    0.3488   -7.5721    3.0177 C   0  0  0  0  0  0  0  0  0  0  0  0
    0.0109   -7.2690    4.4925 C   0  0  0  0  0  0  0  0  0  0  0  0
    1.2600   -7.1092    5.3738 C   0  0  0  0  0  0  0  0  0  0  0  0
    0.9410   -6.8636    6.8054 C   0  0  0  0  0  0  0  0  0  0  0  0
    0.4107   -7.7625    7.6148 N   0  0  0  0  0  0  0  0  0  0  0  0
    0.2367   -7.1059    8.8038 N   0  0  0  0  0  0  0  0  0  0  0  0
    0.6365   -5.8625    8.6936 N   0  0  0  0  0  0  0  0  0  0  0  0
    1.1491   -5.7005    7.4556 N   0  0  0  0  0  0  0  0  0  0  0  0
    1.6754   -4.4112    6.9744 C   0  0  2  0  0  0  0  0  0  0  0  0
    3.1546   -4.4394    6.4850 C   0  0  1  0  0  0  0  0  0  0  0  0
    3.1162   -3.8881    5.0969 C   0  0  0  0  0  0  0  0  0  0  0  0
    2.3761   -2.8136    4.7495 C   0  0  0  0  0  0  0  0  0  0  0  0
    2.0357   -2.6619    3.2726 C   0  0  0  0  0  0  0  0  0  0  0  0
    1.8848   -1.7345    5.7884 C   0  0  1  0  0  0  0  0  0  0  0  0
    2.4531   -1.9453    7.2647 C   0  0  1  0  0  0  0  0  0  0  0  0
    1.6854   -3.2044    7.9321 C   0  0  2  0  0  0  0  0  0  0  0  0
    2.3446   -3.7139    9.1022 O   0  0  0  0  0  0  0  0  0  0  0  0
    3.6391   -4.2858    8.8313 C   0  0  0  0  0  0  0  0  0  0  0  0
    4.1312   -3.7023    7.4793 C   0  0  2  0  0  0  0  0  0  0  0  0
    4.0224   -2.0888    7.5143 C   0  0  2  0  0  0  0  0  0  0  0  0
    4.2166   -1.6620    9.0322 C   0  0  0  0  0  0  0  0  0  0  0  0
    5.1775   -1.1776    6.6957 C   0  0  2  0  0  0  0  0  0  0  0  0
    6.4374   -2.0946    6.7049 C   0  0  0  0  0  0  0  0  0  0  0  0
    5.7154    0.1232    7.5481 C   0  0  1  0  0  0  0  0  0  0  0  0
    7.1753    0.6154    7.2601 C   0  0  0  0  0  0  0  0  0  0  0  0
    4.7306    1.3625    7.7066 C   0  0  0  0  0  0  0  0  0  0  0  0
    4.0504    1.6245    6.3755 C   0  0  2  0  0  0  0  0  0  0  0  0
    3.8119    2.9687    5.9817 O   0  0  0  0  0  0  0  0  0  0  0  0
    3.6524    3.0331    4.4917 C   0  0  2  0  0  0  0  0  0  0  0  0
    2.3446    3.7194    3.8226 C   0  0  1  0  0  0  0  0  0  0  0  0
    1.1020    2.7880    3.4549 C   0  0  0  0  0  0  0  0  0  0  0  0
    0.2753    2.0336    4.5996 C   0  0  2  0  0  0  0  0  0  0  0  0
   -1.0544    2.3513    4.2004 O   0  0  0  0  0  0  0  0  0  0  0  0
   -1.6196    3.6422    4.4390 C   0  0  0  0  0  0  0  0  0  0  0  0
   -2.1603    4.1996    3.0992 C   0  0  0  0  0  0  0  0  0  0  0  0
   -2.8827    3.2818    5.2481 C   0  0  0  0  0  0  0  0  0  0  0  0
   -0.6490    4.6291    5.2036 C   0  0  2  0  0  0  0  0  0  0  0  0
    0.3888    5.4777    4.3498 C   0  0  1  0  0  0  0  0  0  0  0  0
    0.2160    6.8613    4.6484 O   0  0  0  0  0  0  0  0  0  0  0  0
    1.9250    5.1393    4.3482 C   0  0  1  0  0  0  0  0  0  0  0  0
    2.4971    5.4407    5.6051 O   0  0  0  0  0  0  0  0  0  0  0  0
   -0.0756    3.9467    6.4532 C   0  0  1  0  0  0  0  0  0  0  0  0
   -1.0802    3.8475    7.4391 O   0  0  0  0  0  0  0  0  0  0  0  0
    0.6176    2.6282    6.0137 C   0  0  1  0  0  0  0  0  0  0  0  0
    1.4196    1.6801    6.9367 C   0  0  1  0  0  0  0  0  0  0  0  0
    1.8015    2.3848    8.2622 C   0  0  0  0  0  0  0  0  0  0  0  0
    0.6456    0.5732    7.3677 O   0  0  0  0  0  0  0  0  0  0  0  0
   -0.6669    0.5579    7.3628 C   0  0  0  0  0  0  0  0  0  0  0  0
   -1.3975    1.2635    8.0538 O   0  0  0  0  0  0  0  0  0  0  0  0
   -1.2304   -0.5080    6.4514 C   0  0  0  0  0  0  0  0  0  0  0  0
   -0.7908   -0.4528    4.9916 C   0  0  1  0  0  0  0  0  0  0  0  0
   -2.0109   -0.1868    4.1532 C   0  0  0  0  0  0  0  0  0  0  0  0
    0.4617    0.3867    4.5991 C   0  0  2  0  0  0  0  0  0  0  0  0
    1.8761   -0.2361    5.1947 C   0  0  1  0  0  0  0  0  0  0  0  0
    2.5841    0.9701    6.0634 C   0  0  2  0  0  0  0  0  0  0  0  0
    2.6588    1.3125    4.6997 O   0  0  0  0  0  0  0  0  0  0  0  0
    3.8085    1.5600    3.9593 C   0  0  2  0  0  0  0  0  0  0  0  0
    4.9807    0.6636    4.4902 C   0  0  1  0  0  0  0  0  0  0  0  0
    5.1693    1.3730    5.5933 O   0  0  0  0  0  0  0  0  0  0  0  0
    4.8937   -0.7956    5.1200 C   0  0  1  0  0  0  0  0  0  0  0  0
    5.4091   -1.7030    4.1777 O   0  0  0  0  0  0  0  0  0  0  0  0
   -2.5513   -9.1447    1.8015 H   0  0  0  0  0  0  0  0  0  0  0  0
   -2.0793   -9.0318    3.4813 H   0  0  0  0  0  0  0  0  0  0  0  0
   -1.0716   -9.9296    2.3513 H   0  0  0  0  0  0  0  0  0  0  0  0
   -0.5725   -7.8417    1.0864 H   0  0  0  0  0  0  0  0  0  0  0  0
   -1.5398   -6.9025    2.1920 H   0  0  0  0  0  0  0  0  0  0  0  0
    0.9822   -8.4571    2.9452 H   0  0  0  0  0  0  0  0  0  0  0  0
    0.9462   -6.7536    2.6118 H   0  0  0  0  0  0  0  0  0  0  0  0
   -0.5956   -6.3623    4.5436 H   0  0  0  0  0  0  0  0  0  0  0  0
   -0.5895   -8.0772    4.9117 H   0  0  0  0  0  0  0  0  0  0  0  0
    1.8659   -8.0150    5.3404 H   0  0  0  0  0  0  0  0  0  0  0  0
    1.8692   -6.3063    4.9832 H   0  0  0  0  0  0  0  0  0  0  0  0
    0.9725   -4.2001    6.1769 H   0  0  0  0  0  0  0  0  0  0  0  0
    3.4851   -5.4716    6.3987 H   0  0  0  0  0  0  0  0  0  0  0  0
    3.4683   -4.5787    4.3488 H   0  0  0  0  0  0  0  0  0  0  0  0
    1.0109   -2.3189    3.1399 H   0  0  0  0  0  0  0  0  0  0  0  0
    2.1180   -3.6277    2.7778 H   0  0  0  0  0  0  0  0  0  0  0  0
    2.7241   -1.9897    2.7573 H   0  0  0  0  0  0  0  0  0  0  0  0
    0.8588   -2.0233    5.9229 H   0  0  0  0  0  0  0  0  0  0  0  0
    2.1673   -1.0956    7.8652 H   0  0  0  0  0  0  0  0  0  0  0  0
    0.6760   -2.9256    8.2058 H   0  0  0  0  0  0  0  0  0  0  0  0
    4.3270   -4.1188    9.6599 H   0  0  0  0  0  0  0  0  0  0  0  0
    3.5546   -5.3698    8.7695 H   0  0  0  0  0  0  0  0  0  0  0  0
    5.1293   -4.0964    7.3523 H   0  0  0  0  0  0  0  0  0  0  0  0
    5.1942   -1.9462    9.4278 H   0  0  0  0  0  0  0  0  0  0  0  0
    3.5083   -2.0071    9.7699 H   0  0  0  0  0  0  0  0  0  0  0  0
    4.0367   -0.6207    9.2295 H   0  0  0  0  0  0  0  0  0  0  0  0
    7.3220   -1.6242    6.3018 H   0  0  0  0  0  0  0  0  0  0  0  0
    6.3228   -2.9905    6.0983 H   0  0  0  0  0  0  0  0  0  0  0  0
    6.7125   -2.4058    7.7120 H   0  0  0  0  0  0  0  0  0  0  0  0
    5.9507   -0.1571    8.5606 H   0  0  0  0  0  0  0  0  0  0  0  0
    7.4038    0.7116    6.1994 H   0  0  0  0  0  0  0  0  0  0  0  0
    7.9221   -0.0560    7.6884 H   0  0  0  0  0  0  0  0  0  0  0  0
    7.3716    1.5842    7.7187 H   0  0  0  0  0  0  0  0  0  0  0  0
    3.9935    1.2059    8.4678 H   0  0  0  0  0  0  0  0  0  0  0  0
    5.2799    2.2580    8.0057 H   0  0  0  0  0  0  0  0  0  0  0  0
    4.4827    3.6480    4.1827 H   0  0  0  0  0  0  0  0  0  0  0  0
    2.7062    3.9489    2.8226 H   0  0  0  0  0  0  0  0  0  0  0  0
    0.4439    3.3531    2.8116 H   0  0  0  0  0  0  0  0  0  0  0  0
    1.4382    2.0391    2.7399 H   0  0  0  0  0  0  0  0  0  0  0  0
   -2.5475    5.2115    3.1621 H   0  0  0  0  0  0  0  0  0  0  0  0
   -2.9459    3.5726    2.6752 H   0  0  0  0  0  0  0  0  0  0  0  0
   -1.3997    4.2332    2.3403 H   0  0  0  0  0  0  0  0  0  0  0  0
   -3.2640    4.1375    5.7858 H   0  0  0  0  0  0  0  0  0  0  0  0
   -2.7252    2.5262    6.0152 H   0  0  0  0  0  0  0  0  0  0  0  0
   -3.6906    2.9426    4.5962 H   0  0  0  0  0  0  0  0  0  0  0  0
   -1.3078    5.3819    5.6041 H   0  0  0  0  0  0  0  0  0  0  0  0
    0.0872    5.4536    3.3108 H   0  0  0  0  0  0  0  0  0  0  0  0
    0.5456    7.3866    3.9199 H   0  0  0  0  0  0  0  0  0  0  0  0
    2.3957    5.8611    3.6774 H   0  0  0  0  0  0  0  0  0  0  0  0
    3.4269    5.2687    5.5645 H   0  0  0  0  0  0  0  0  0  0  0  0
    0.6360    4.6174    6.9403 H   0  0  0  0  0  0  0  0  0  0  0  0
   -1.6618    3.1320    7.2083 H   0  0  0  0  0  0  0  0  0  0  0  0
    1.5048    3.1695    5.8659 H   0  0  0  0  0  0  0  0  0  0  0  0
    2.5698    3.1470    8.1388 H   0  0  0  0  0  0  0  0  0  0  0  0
    2.1041    1.6609    9.0126 H   0  0  0  0  0  0  0  0  0  0  0  0
    0.9420    2.8750    8.7113 H   0  0  0  0  0  0  0  0  0  0  0  0
   -0.9662   -1.4775    6.8643 H   0  0  0  0  0  0  0  0  0  0  0  0
   -2.3181   -0.4391    6.4170 H   0  0  0  0  0  0  0  0  0  0  0  0
   -0.6056   -1.4755    4.6824 H   0  0  0  0  0  0  0  0  0  0  0  0
   -2.5498    0.6686    4.5389 H   0  0  0  0  0  0  0  0  0  0  0  0
   -2.7113   -1.0191    4.1810 H   0  0  0  0  0  0  0  0  0  0  0  0
   -1.7051    0.0318    3.1352 H   0  0  0  0  0  0  0  0  0  0  0  0
    0.5052    0.1639    3.5359 H   0  0  0  0  0  0  0  0  0  0  0  0
    2.2988   -0.4974    4.2100 H   0  0  0  0  0  0  0  0  0  0  0  0
    3.6582    1.4507    2.8925 H   0  0  0  0  0  0  0  0  0  0  0  0
    5.8939    0.8046    3.9036 H   0  0  0  0  0  0  0  0  0  0  0  0
    3.9813   -1.1589    4.8431 H   0  0  0  0  0  0  0  0  0  0  0  0
    5.2687   -1.3396    3.3093 H   0  0  0  0  0  0  0  0  0  0  0  0
  1  2  1  0
  1 64  1  0
  1 65  1  0
  1 66  1  0
  2  3  1  0
  2 67  1  0
  2 68  1  0
  3  4  1  0
  3 69  1  0
  3 70  1  0
  4  5  1  0
  4 71  1  0
  4 72  1  0
  5  6  1  0
  5 73  1  0
  5 74  1  0
  6 10  1  0
  6  7  2  0
  7  8  1  0
  8  9  2  0
  9 10  1  0
 10 11  1  0
 11 18  1  0
 11 12  1  0
 11 75  1  6
 12 21  1  0
 12 13  1  0
 12 76  1  6
 13 14  2  0
 13 77  1  0
 14 15  1  0
 14 16  1  0
 15 78  1  0
 15 79  1  0
 15 80  1  0
 16 56  1  0
 16 17  1  0
 16 81  1  1
 17 22  1  0
 17 18  1  0
 17 82  1  1
 18 19  1  0
 18 83  1  1
 19 20  1  0
 20 21  1  0
 20 84  1  0
 20 85  1  0
 21 22  1  0
 21 86  1  6
 22 23  1  1
 22 24  1  0
 23 87  1  0
 23 88  1  0
 23 89  1  0
 24 62  1  0
 24 25  1  6
 24 26  1  0
 25 90  1  0
 25 91  1  0
 25 92  1  0
 26 27  1  0
 26 28  1  0
 26 93  1  1
 27 94  1  0
 27 95  1  0
 27 96  1  0
 29 28  1  1
 28 97  1  0
 28 98  1  0
 29 57  1  0
 29 61  1  0
 29 30  1  0
 30 31  1  0
 31 59  1  0
 31 32  1  0
 31 99  1  6
 32 42  1  0
 32 33  1  0
 32100  1  6
 33 34  1  0
 33101  1  0
 33102  1  0
 34 46  1  0
 34 55  1  0
 34 35  1  6
 35 36  1  0
 36 37  1  0
 36 38  1  0
 36 39  1  0
 37103  1  0
 37104  1  0
 37105  1  0
 38106  1  0
 38107  1  0
 38108  1  0
 39 40  1  0
 39 44  1  0
 39109  1  1
 40 41  1  0
 40 42  1  0
 40110  1  6
 41111  1  0
 42 43  1  0
 42112  1  6
 43113  1  0
 44 45  1  0
 44 46  1  0
 44114  1  1
 45115  1  0
 46 47  1  0
 46116  1  6
 47 57  1  0
 47 48  1  1
 47 49  1  0
 48117  1  0
 48118  1  0
 48119  1  0
 49 50  1  0
 50 51  2  0
 50 52  1  0
 52 53  1  0
 52120  1  0
 52121  1  0
 53 54  1  0
 53 55  1  0
 53122  1  6
 54123  1  0
 54124  1  0
 54125  1  0
 55 56  1  0
 55126  1  6
 56 57  1  0
 56127  1  6
 57 58  1  6
 58 59  1  0
 59 60  1  0
 59128  1  6
 60 61  1  0
 60 62  1  0
 60129  1  6
 62 63  1  0
 62130  1  1
 63131  1  0
M  END
>  <i_m_ct_stereo_status>  (276) 
1

>  <s_m_source_file>  (276) 
/var/tmp/pbs.5076255.sched01/tmph7d3_0rd/117btfl79hs.sdf

>  <i_m_source_file_index>  (276) 
10

>  <i_lp_mmshare_version>  (276) 
48012

>  <i_f3d_flags>  (276) 
0

>  <s_epik_input>  (276) 
W0NIM11bQ0gyXVtDSDJdW0NIMl1bQ0gyXWMxbm5ubjFbQ0BASF0oW0NAQEhdMltDQEBIXTNbQ0BIXTRbQ0BIXTVbQ0BASF0oW0NASF0oW0NIM10pW0NIMl1DKE82KT1PKVtDQEBdNzhbQ0BASF05W0NAXTYoW0NIM10pW0NAXTE1W0NAXTU2JTEwKVtDQEBIXShbQ0hdPUM0W0NIM10pW0NASF0oW0NIMl1PMilbQ0BAXTMoW0NIM10pW0NAXShbQ0gzXSkoW0NAQEhdKFtDSDNdKVtDSDJdNSlbQ0BIXShbT0hdKVtDQEhdKE8lMTApW0NAQEhdKE8xKVtDQEhdKE82KVtDSF0oW0NIMl03KVtDQEhdKFtPSF0pW0NASF0oW09IXSlbQ0BASF0oQyhPOCkoW0NIM10pW0NIM10pW0NASF05W09IXQ==

>  <s_epik_cmdline>  (276) 
J2VwaWtfcHl0aG9uJywgJy1waHQnLCAnMi4wJywgJy1waCcsICc3LjAnLCAnLXRuJywgJzgnLCAnLW1hJywgJzIwMCcsICctaW1hZScsICc8aW5maWxlLm1hZT4nLCAnLW9tYWUnLCAnPG91dGZpbGUubWFlPic=

>  <r_lp_tautomer_probability>  (276) 
1

>  <r_epik_Ionization_Penalty>  (276) 
1.97692e-07

>  <r_epik_Ionization_Penalty_Charging>  (276) 
0

>  <r_epik_Ionization_Penalty_Neutral>  (276) 
1.97692e-07

>  <r_epik_State_Penalty>  (276) 
-0

>  <r_epik_Charging_Adjusted_Penalty>  (276) 
0

>  <i_epik_Tot_Q>  (276) 
0

>  <i_epik_Tot_abs_Q>  (276) 
0

>  <s_epik_Chemistry_Notes>  (276) 
This compound has an ester and may undergo hydrolysis at high or low pH.

>  <s_lp_Force_Field>  (276) 
OPLS3e

>  <r_lp_Energy>  (276) 
483.978

>  <b_lp_Chiralities_Consistent>  (276) 
1

>  <s_lp_Variant>  (276) 
95:0-1

>  <s_i_glide_gridfile>  (276) 
pfpi4k_grid

>  <i_i_glide_lignum>  (276) 
10

>  <i_i_glide_rotatable_bonds>  (276) 
9

>  <r_i_docking_score>  (276) 
-3.26528

>  <r_i_glide_ligand_efficiency>  (276) 
-0.0518298

>  <r_i_glide_ligand_efficiency_sa>  (276) 
-0.206234

>  <r_i_glide_ligand_efficiency_ln>  (276) 
-0.634881

>  <r_i_glide_gscore>  (276) 
-3.26528

>  <r_i_glide_lipo>  (276) 
-0.454331

>  <r_i_glide_hbond>  (276) 
-0.053585

>  <r_i_glide_metal>  (276) 
-0

>  <r_i_glide_rewards>  (276) 
-0.5

>  <r_i_glide_evdw>  (276) 
-27.5657

>  <r_i_glide_ecoul>  (276) 
-5.66817

>  <r_i_glide_erotb>  (276) 
0.114357

>  <r_i_glide_esite>  (276) 
-0.143207

>  <r_i_glide_emodel>  (276) 
-42.2483

>  <r_i_glide_energy>  (276) 
-33.2339

>  <r_i_glide_einternal>  (276) 
2.73136

>  <r_i_glide_intrahb_reward>  (276) 
-0.5

>  <i_i_glide_confnum>  (276) 
1

>  <i_i_glide_posenum>  (276) 
25

>  <r_i_glide_eff_state_penalty>  (276) 
0

>  <ligand_id>  (276) 
95

>  <original_smiles>  (276) 
CCCCCc1nnnn1C1C2C=C(C)C3C4C1OCC2C4(C)C1(C)C(C)CC24OC5C6CC78OC(C)(C)C(C(O)C6O)C(O)C7C6(C)OC(=O)CC(C)C8C3C26OC5C(O4)C1O

>  <smiles>  (276) 
[H]OC1([H])C([H])(O[H])C2([H])C([H])(O[H])C3([H])C4(OC2(C([H])([H])[H])C([H])([H])[H])C([H])([H])C1([H])C1([H])OC25OC6([H])C1([H])OC21C([H])(C2([H])C(C([H])([H])[H])=C([H])C7([H])C([H])(n8nnnc8C([H])([H])C([H])([H])C([H])([H])C([H])([H])C([H])([H])[H])C8([H])OC([H])([H])C7([H])C(C([H])([H])[H])(C82[H])C(C([H])([H])[H])(C6([H])O[H])C([H])(C([H])([H])[H])C5([H])[H])C4([H])C([H])(C([H])([H])[H])C([H])([H])C(=O)OC31C([H])([H])[H]

$$$$
95:0:1
     RDKit          3D

131143  0  0  1  0  0  0  0  0999 V2000
   -1.0572    1.7063    2.3752 C   0  0  0  0  0  0  0  0  0  0  0  0
    0.4515    1.7729    2.6449 C   0  0  0  0  0  0  0  0  0  0  0  0
    0.7878    2.2852    4.0545 C   0  0  0  0  0  0  0  0  0  0  0  0
    2.3005    2.2661    4.3567 C   0  0  0  0  0  0  0  0  0  0  0  0
    2.6157    2.6262    5.8216 C   0  0  0  0  0  0  0  0  0  0  0  0
    4.0384    2.3731    6.2267 C   0  0  0  0  0  0  0  0  0  0  0  0
    5.0099    3.2656    6.0853 N   0  0  0  0  0  0  0  0  0  0  0  0
    6.1339    2.5823    6.5015 N   0  0  0  0  0  0  0  0  0  0  0  0
    5.8507    1.3900    6.8513 N   0  0  0  0  0  0  0  0  0  0  0  0
    4.5015    1.2289    6.7438 N   0  0  0  0  0  0  0  0  0  0  0  0
    3.8126   -0.0449    7.0344 C   0  0  2  0  0  0  0  0  0  0  0  0
    2.7122    0.0434    8.1401 C   0  0  1  0  0  0  0  0  0  0  0  0
    1.4714   -0.4983    7.5009 C   0  0  0  0  0  0  0  0  0  0  0  0
    1.4615   -1.6040    6.7321 C   0  0  0  0  0  0  0  0  0  0  0  0
    0.2909   -1.7520    5.7670 C   0  0  0  0  0  0  0  0  0  0  0  0
    2.5938   -2.7085    6.7787 C   0  0  1  0  0  0  0  0  0  0  0  0
    3.6704   -2.4850    7.9369 C   0  0  1  0  0  0  0  0  0  0  0  0
    4.6417   -1.2565    7.5068 C   0  0  2  0  0  0  0  0  0  0  0  0
    5.4025   -0.7200    8.6032 O   0  0  0  0  0  0  0  0  0  0  0  0
    4.5911   -0.1026    9.6248 C   0  0  0  0  0  0  0  0  0  0  0  0
    3.1515   -0.6652    9.4789 C   0  0  2  0  0  0  0  0  0  0  0  0
    3.1936   -2.2807    9.4495 C   0  0  2  0  0  0  0  0  0  0  0  0
    4.4673   -2.7095   10.3070 C   0  0  0  0  0  0  0  0  0  0  0  0
    1.9128   -3.1439   10.1595 C   0  0  2  0  0  0  0  0  0  0  0  0
    1.3921   -2.1725   11.2701 C   0  0  0  0  0  0  0  0  0  0  0  0
    2.4230   -4.4272   11.0470 C   0  0  1  0  0  0  0  0  0  0  0  0
    1.5115   -4.8696   12.2385 C   0  0  0  0  0  0  0  0  0  0  0  0
    2.9770   -5.6981   10.2657 C   0  0  0  0  0  0  0  0  0  0  0  0
    2.0649   -5.9878    9.0765 C   0  0  2  0  0  0  0  0  0  0  0  0
    1.7738   -7.3394    8.7475 O   0  0  0  0  0  0  0  0  0  0  0  0
    0.5059   -7.4133    7.9482 C   0  0  2  0  0  0  0  0  0  0  0  0
    0.5154   -8.1315    6.4839 C   0  0  1  0  0  0  0  0  0  0  0  0
    0.7598   -7.2407    5.1715 C   0  0  0  0  0  0  0  0  0  0  0  0
    2.1781   -6.5338    4.9014 C   0  0  2  0  0  0  0  0  0  0  0  0
    2.4273   -6.9049    3.5394 O   0  0  0  0  0  0  0  0  0  0  0  0
    2.8432   -8.2343    3.1892 C   0  0  0  0  0  0  0  0  0  0  0  0
    1.8282   -8.7934    2.1604 C   0  0  0  0  0  0  0  0  0  0  0  0
    4.1404   -7.9948    2.3693 C   0  0  0  0  0  0  0  0  0  0  0  0
    3.0966   -9.1828    4.4220 C   0  0  2  0  0  0  0  0  0  0  0  0
    1.8495   -9.9648    5.0262 C   0  0  1  0  0  0  0  0  0  0  0  0
    2.2113  -11.3309    5.1275 O   0  0  0  0  0  0  0  0  0  0  0  0
    1.1681   -9.5552    6.3848 C   0  0  1  0  0  0  0  0  0  0  0  0
    2.0048   -9.8549    7.4836 O   0  0  0  0  0  0  0  0  0  0  0  0
    3.9587   -8.4584    5.4779 C   0  0  1  0  0  0  0  0  0  0  0  0
    5.2944   -8.3276    5.0386 O   0  0  0  0  0  0  0  0  0  0  0  0
    3.2695   -7.1121    5.8639 C   0  0  1  0  0  0  0  0  0  0  0  0
    3.7705   -6.1281    6.9503 C   0  0  1  0  0  0  0  0  0  0  0  0
    4.7615   -6.8247    7.9131 C   0  0  0  0  0  0  0  0  0  0  0  0
    4.5634   -5.0579    6.4114 O   0  0  0  0  0  0  0  0  0  0  0  0
    5.1958   -5.0647    5.2297 C   0  0  0  0  0  0  0  0  0  0  0  0
    6.2051   -5.7031    4.9478 O   0  0  0  0  0  0  0  0  0  0  0  0
    4.6267   -4.0164    4.2852 C   0  0  0  0  0  0  0  0  0  0  0  0
    3.1034   -4.1157    3.9849 C   0  0  1  0  0  0  0  0  0  0  0  0
    2.8665   -4.3970    2.4864 C   0  0  0  0  0  0  0  0  0  0  0  0
    2.1542   -4.8792    5.0054 C   0  0  2  0  0  0  0  0  0  0  0  0
    2.0469   -4.2008    6.5350 C   0  0  1  0  0  0  0  0  0  0  0  0
    2.4609   -5.3873    7.5842 C   0  0  2  0  0  0  0  0  0  0  0  0
    1.1776   -5.7015    7.0682 O   0  0  0  0  0  0  0  0  0  0  0  0
   -0.0000   -5.9261    7.7986 C   0  0  2  0  0  0  0  0  0  0  0  0
   -0.0151   -4.9876    9.0608 C   0  0  1  0  0  0  0  0  0  0  0  0
    0.8838   -5.6923    9.7235 O   0  0  0  0  0  0  0  0  0  0  0  0
    0.5678   -3.5087    9.2516 C   0  0  1  0  0  0  0  0  0  0  0  0
   -0.5754   -2.7384    9.6036 O   0  0  0  0  0  0  0  0  0  0  0  0
   -1.2459    1.3428    1.3650 H   0  0  0  0  0  0  0  0  0  0  0  0
   -1.5199    2.6897    2.4586 H   0  0  0  0  0  0  0  0  0  0  0  0
   -1.5626    1.0333    3.0672 H   0  0  0  0  0  0  0  0  0  0  0  0
    0.8777    0.7806    2.4977 H   0  0  0  0  0  0  0  0  0  0  0  0
    0.9213    2.4214    1.9044 H   0  0  0  0  0  0  0  0  0  0  0  0
    0.4037    3.2995    4.1716 H   0  0  0  0  0  0  0  0  0  0  0  0
    0.2635    1.6725    4.7874 H   0  0  0  0  0  0  0  0  0  0  0  0
    2.6789    1.2643    4.1500 H   0  0  0  0  0  0  0  0  0  0  0  0
    2.8296    2.9404    3.6827 H   0  0  0  0  0  0  0  0  0  0  0  0
    2.4091    3.6868    5.9903 H   0  0  0  0  0  0  0  0  0  0  0  0
    1.9597    2.0881    6.4944 H   0  0  0  0  0  0  0  0  0  0  0  0
    3.4078   -0.2769    6.0472 H   0  0  0  0  0  0  0  0  0  0  0  0
    2.5189    1.0928    8.3767 H   0  0  0  0  0  0  0  0  0  0  0  0
    0.6641    0.2153    7.4440 H   0  0  0  0  0  0  0  0  0  0  0  0
    0.6270   -2.1301    4.8036 H   0  0  0  0  0  0  0  0  0  0  0  0
   -0.1697   -0.7799    5.5817 H   0  0  0  0  0  0  0  0  0  0  0  0
   -0.4885   -2.3980    6.1690 H   0  0  0  0  0  0  0  0  0  0  0  0
    3.1684   -2.4622    5.9027 H   0  0  0  0  0  0  0  0  0  0  0  0
    4.3189   -3.3509    7.9627 H   0  0  0  0  0  0  0  0  0  0  0  0
    5.3389   -1.5732    6.7244 H   0  0  0  0  0  0  0  0  0  0  0  0
    5.0250   -0.2536   10.6160 H   0  0  0  0  0  0  0  0  0  0  0  0
    4.6029    0.9820    9.4957 H   0  0  0  0  0  0  0  0  0  0  0  0
    2.6015   -0.2301   10.3076 H   0  0  0  0  0  0  0  0  0  0  0  0
    4.3974   -2.3928   11.3489 H   0  0  0  0  0  0  0  0  0  0  0  0
    5.4526   -2.3913    9.9868 H   0  0  0  0  0  0  0  0  0  0  0  0
    4.7042   -3.7583   10.2657 H   0  0  0  0  0  0  0  0  0  0  0  0
    0.5898   -2.5884   11.8768 H   0  0  0  0  0  0  0  0  0  0  0  0
    0.9449   -1.2673   10.8613 H   0  0  0  0  0  0  0  0  0  0  0  0
    2.1809   -1.8696   11.9611 H   0  0  0  0  0  0  0  0  0  0  0  0
    3.2462   -4.1464   11.6979 H   0  0  0  0  0  0  0  0  0  0  0  0
    0.4591   -4.9544   11.9693 H   0  0  0  0  0  0  0  0  0  0  0  0
    1.5728   -4.1739   13.0746 H   0  0  0  0  0  0  0  0  0  0  0  0
    1.8164   -5.8341   12.6438 H   0  0  0  0  0  0  0  0  0  0  0  0
    3.9872   -5.5735    9.9346 H   0  0  0  0  0  0  0  0  0  0  0  0
    2.9931   -6.5777   10.9114 H   0  0  0  0  0  0  0  0  0  0  0  0
   -0.2058   -7.9581    8.5681 H   0  0  0  0  0  0  0  0  0  0  0  0
   -0.5389   -8.3767    6.3399 H   0  0  0  0  0  0  0  0  0  0  0  0
    0.4447   -7.8277    4.3193 H   0  0  0  0  0  0  0  0  0  0  0  0
   -0.0083   -6.4714    5.1386 H   0  0  0  0  0  0  0  0  0  0  0  0
    2.0734   -9.8178    1.8789 H   0  0  0  0  0  0  0  0  0  0  0  0
    1.8159   -8.1971    1.2489 H   0  0  0  0  0  0  0  0  0  0  0  0
    0.7996   -8.7933    2.5112 H   0  0  0  0  0  0  0  0  0  0  0  0
    4.6854   -8.9214    2.1854 H   0  0  0  0  0  0  0  0  0  0  0  0
    4.8189   -7.3010    2.8670 H   0  0  0  0  0  0  0  0  0  0  0  0
    3.9392   -7.5469    1.3965 H   0  0  0  0  0  0  0  0  0  0  0  0
    3.7225   -9.9799    4.0162 H   0  0  0  0  0  0  0  0  0  0  0  0
    1.0459   -9.9822    4.2930 H   0  0  0  0  0  0  0  0  0  0  0  0
    1.8097  -11.7200    5.8977 H   0  0  0  0  0  0  0  0  0  0  0  0
    0.3405  -10.2546    6.5206 H   0  0  0  0  0  0  0  0  0  0  0  0
    1.8946  -10.8060    7.6600 H   0  0  0  0  0  0  0  0  0  0  0  0
    4.0681   -9.1064    6.3489 H   0  0  0  0  0  0  0  0  0  0  0  0
    5.6470   -9.1820    4.8603 H   0  0  0  0  0  0  0  0  0  0  0  0
    2.7312   -7.6211    6.6207 H   0  0  0  0  0  0  0  0  0  0  0  0
    4.2924   -7.5576    8.5695 H   0  0  0  0  0  0  0  0  0  0  0  0
    5.3165   -6.1035    8.5059 H   0  0  0  0  0  0  0  0  0  0  0  0
    5.5423   -7.3537    7.3716 H   0  0  0  0  0  0  0  0  0  0  0  0
    4.8579   -3.0457    4.7228 H   0  0  0  0  0  0  0  0  0  0  0  0
    5.1922   -4.0542    3.3521 H   0  0  0  0  0  0  0  0  0  0  0  0
    2.7478   -3.0897    4.0192 H   0  0  0  0  0  0  0  0  0  0  0  0
    3.4325   -5.2547    2.1250 H   0  0  0  0  0  0  0  0  0  0  0  0
    3.1924   -3.5468    1.8856 H   0  0  0  0  0  0  0  0  0  0  0  0
    1.8124   -4.5595    2.2654 H   0  0  0  0  0  0  0  0  0  0  0  0
    1.1844   -4.6423    4.5680 H   0  0  0  0  0  0  0  0  0  0  0  0
    0.9969   -3.8992    6.4794 H   0  0  0  0  0  0  0  0  0  0  0  0
   -0.9109   -5.8400    7.1960 H   0  0  0  0  0  0  0  0  0  0  0  0
   -0.9528   -5.1102    9.6067 H   0  0  0  0  0  0  0  0  0  0  0  0
    0.7048   -3.1469    8.2852 H   0  0  0  0  0  0  0  0  0  0  0  0
   -0.7447   -2.9033   10.5154 H   0  0  0  0  0  0  0  0  0  0  0  0
  1  2  1  0
  1 64  1  0
  1 65  1  0
  1 66  1  0
  2  3  1  0
  2 67  1  0
  2 68  1  0
  3  4  1  0
  3 69  1  0
  3 70  1  0
  4  5  1  0
  4 71  1  0
  4 72  1  0
  5  6  1  0
  5 73  1  0
  5 74  1  0
  6 10  1  0
  6  7  2  0
  7  8  1  0
  8  9  2  0
  9 10  1  0
 10 11  1  0
 11 18  1  0
 11 12  1  0
 11 75  1  6
 12 21  1  0
 12 13  1  0
 12 76  1  1
 13 14  2  0
 13 77  1  0
 14 15  1  0
 14 16  1  0
 15 78  1  0
 15 79  1  0
 15 80  1  0
 16 56  1  0
 16 17  1  0
 16 81  1  6
 17 22  1  0
 17 18  1  0
 17 82  1  1
 18 19  1  0
 18 83  1  6
 19 20  1  0
 20 21  1  0
 20 84  1  0
 20 85  1  0
 21 22  1  0
 21 86  1  1
 22 23  1  1
 22 24  1  0
 23 87  1  0
 23 88  1  0
 23 89  1  0
 24 62  1  0
 24 25  1  1
 24 26  1  0
 25 90  1  0
 25 91  1  0
 25 92  1  0
 26 27  1  0
 26 28  1  0
 26 93  1  1
 27 94  1  0
 27 95  1  0
 27 96  1  0
 29 28  1  1
 28 97  1  0
 28 98  1  0
 29 57  1  0
 29 61  1  0
 29 30  1  0
 30 31  1  0
 31 59  1  0
 31 32  1  0
 31 99  1  1
 32 42  1  0
 32 33  1  0
 32100  1  6
 33 34  1  0
 33101  1  0
 33102  1  0
 34 46  1  0
 34 55  1  0
 34 35  1  6
 35 36  1  0
 36 37  1  0
 36 38  1  0
 36 39  1  0
 37103  1  0
 37104  1  0
 37105  1  0
 38106  1  0
 38107  1  0
 38108  1  0
 39 40  1  0
 39 44  1  0
 39109  1  6
 40 41  1  0
 40 42  1  0
 40110  1  6
 41111  1  0
 42 43  1  0
 42112  1  1
 43113  1  0
 44 45  1  0
 44 46  1  0
 44114  1  1
 45115  1  0
 46 47  1  0
 46116  1  1
 47 57  1  0
 47 48  1  1
 47 49  1  0
 48117  1  0
 48118  1  0
 48119  1  0
 49 50  1  0
 50 51  2  0
 50 52  1  0
 52 53  1  0
 52120  1  0
 52121  1  0
 53 54  1  0
 53 55  1  0
 53122  1  6
 54123  1  0
 54124  1  0
 54125  1  0
 55 56  1  0
 55126  1  6
 56 57  1  0
 56127  1  1
 57 58  1  6
 58 59  1  0
 59 60  1  0
 59128  1  6
 60 61  1  0
 60 62  1  0
 60129  1  1
 62 63  1  0
 62130  1  6
 63131  1  0
M  END
>  <i_m_ct_stereo_status>  (277) 
1

>  <s_m_source_file>  (277) 
/var/tmp/pbs.5076255.sched01/tmph7d3_0rd/117btfl79hs.sdf

>  <i_m_source_file_index>  (277) 
10

>  <i_lp_mmshare_version>  (277) 
48012

>  <i_f3d_flags>  (277) 
0

>  <s_epik_input>  (277) 
W0NIM11bQ0gyXVtDSDJdW0NIMl1bQ0gyXWMxbm5ubjFbQ0BASF0oW0NAQEhdMltDQEBIXTNbQ0BIXTRbQ0BIXTVbQ0BASF0oW0NASF0oW0NIM10pW0NIMl1DKE82KT1PKVtDQEBdNzhbQ0BASF05W0NAXTYoW0NIM10pW0NAXTE1W0NAXTU2JTEwKVtDQEBIXShbQ0hdPUM0W0NIM10pW0NASF0oW0NIMl1PMilbQ0BAXTMoW0NIM10pW0NAXShbQ0gzXSkoW0NAQEhdKFtDSDNdKVtDSDJdNSlbQ0BIXShbT0hdKVtDQEhdKE8lMTApW0NAQEhdKE8xKVtDQEhdKE82KVtDSF0oW0NIMl03KVtDQEhdKFtPSF0pW0NASF0oW09IXSlbQ0BASF0oQyhPOCkoW0NIM10pW0NIM10pW0NASF05W09IXQ==

>  <s_epik_cmdline>  (277) 
J2VwaWtfcHl0aG9uJywgJy1waHQnLCAnMi4wJywgJy1waCcsICc3LjAnLCAnLXRuJywgJzgnLCAnLW1hJywgJzIwMCcsICctaW1hZScsICc8aW5maWxlLm1hZT4nLCAnLW9tYWUnLCAnPG91dGZpbGUubWFlPic=

>  <r_lp_tautomer_probability>  (277) 
1

>  <r_epik_Ionization_Penalty>  (277) 
1.97692e-07

>  <r_epik_Ionization_Penalty_Charging>  (277) 
0

>  <r_epik_Ionization_Penalty_Neutral>  (277) 
1.97692e-07

>  <r_epik_State_Penalty>  (277) 
-0

>  <r_epik_Charging_Adjusted_Penalty>  (277) 
0

>  <i_epik_Tot_Q>  (277) 
0

>  <i_epik_Tot_abs_Q>  (277) 
0

>  <s_epik_Chemistry_Notes>  (277) 
This compound has an ester and may undergo hydrolysis at high or low pH.

>  <s_lp_Force_Field>  (277) 
OPLS3e

>  <r_lp_Energy>  (277) 
483.978

>  <b_lp_Chiralities_Consistent>  (277) 
1

>  <s_lp_Variant>  (277) 
95:0-1

>  <s_i_glide_gridfile>  (277) 
pfpi4k_grid

>  <i_i_glide_lignum>  (277) 
10

>  <i_i_glide_rotatable_bonds>  (277) 
9

>  <r_i_docking_score>  (277) 
-2.88996

>  <r_i_glide_ligand_efficiency>  (277) 
-0.0458724

>  <r_i_glide_ligand_efficiency_sa>  (277) 
-0.182529

>  <r_i_glide_ligand_efficiency_ln>  (277) 
-0.561907

>  <r_i_glide_gscore>  (277) 
-2.88996

>  <r_i_glide_lipo>  (277) 
-0.00758819

>  <r_i_glide_hbond>  (277) 
0

>  <r_i_glide_metal>  (277) 
-0

>  <r_i_glide_rewards>  (277) 
-0.00147373

>  <r_i_glide_evdw>  (277) 
-22.7052

>  <r_i_glide_ecoul>  (277) 
-12.3998

>  <r_i_glide_erotb>  (277) 
0.114357

>  <r_i_glide_esite>  (277) 
-2.64406e-05

>  <r_i_glide_emodel>  (277) 
-40.3152

>  <r_i_glide_energy>  (277) 
-35.105

>  <r_i_glide_einternal>  (277) 
3.47346

>  <r_i_glide_intrahb_reward>  (277) 
-0

>  <i_i_glide_confnum>  (277) 
1

>  <i_i_glide_posenum>  (277) 
26

>  <r_i_glide_eff_state_penalty>  (277) 
0

>  <ligand_id>  (277) 
95

>  <original_smiles>  (277) 
CCCCCc1nnnn1C1C2C=C(C)C3C4C1OCC2C4(C)C1(C)C(C)CC24OC5C6CC78OC(C)(C)C(C(O)C6O)C(O)C7C6(C)OC(=O)CC(C)C8C3C26OC5C(O4)C1O

>  <smiles>  (277) 
[H]OC1([H])C([H])(O[H])C2([H])C([H])(O[H])C3([H])C4(OC2(C([H])([H])[H])C([H])([H])[H])C([H])([H])C1([H])C1([H])OC25OC6([H])C1([H])OC21C([H])(C2([H])C(C([H])([H])[H])=C([H])C7([H])C([H])(n8nnnc8C([H])([H])C([H])([H])C([H])([H])C([H])([H])C([H])([H])[H])C8([H])OC([H])([H])C7([H])C(C([H])([H])[H])(C82[H])C(C([H])([H])[H])(C6([H])O[H])C([H])(C([H])([H])[H])C5([H])[H])C4([H])C([H])(C([H])([H])[H])C([H])([H])C(=O)OC31C([H])([H])[H]

$$$$
95:0:2
     RDKit          3D

131143  0  0  1  0  0  0  0  0999 V2000
    2.9962   -0.1512   -5.4866 C   0  0  0  0  0  0  0  0  0  0  0  0
    3.9688    0.5092   -4.5317 C   0  0  0  0  0  0  0  0  0  0  0  0
    4.3843   -0.4046   -3.3615 C   0  0  0  0  0  0  0  0  0  0  0  0
    3.2251   -0.9587   -2.5207 C   0  0  0  0  0  0  0  0  0  0  0  0
    3.6080   -1.2161   -1.0429 C   0  0  0  0  0  0  0  0  0  0  0  0
    4.2480   -2.5281   -0.8192 C   0  0  0  0  0  0  0  0  0  0  0  0
    4.8458   -3.2218   -1.7685 N   0  0  0  0  0  0  0  0  0  0  0  0
    5.4197   -4.2643   -1.1305 N   0  0  0  0  0  0  0  0  0  0  0  0
    5.1700   -4.1818    0.1541 N   0  0  0  0  0  0  0  0  0  0  0  0
    4.3832   -3.1058    0.3642 N   0  0  0  0  0  0  0  0  0  0  0  0
    4.0129   -2.6844    1.7379 C   0  0  2  0  0  0  0  0  0  0  0  0
    4.5421   -3.5273    2.9580 C   0  0  1  0  0  0  0  0  0  0  0  0
    5.0886   -2.5235    3.9254 C   0  0  0  0  0  0  0  0  0  0  0  0
    4.5104   -1.3408    4.2029 C   0  0  0  0  0  0  0  0  0  0  0  0
    5.3792   -0.2277    4.7859 C   0  0  0  0  0  0  0  0  0  0  0  0
    2.9732   -1.0957    4.0049 C   0  0  1  0  0  0  0  0  0  0  0  0
    2.1629   -2.4001    3.5660 C   0  0  1  0  0  0  0  0  0  0  0  0
    2.5068   -2.7024    2.0125 C   0  0  2  0  0  0  0  0  0  0  0  0
    2.2201   -4.0467    1.5514 O   0  0  0  0  0  0  0  0  0  0  0  0
    2.8719   -5.1142    2.2746 C   0  0  0  0  0  0  0  0  0  0  0  0
    3.4469   -4.4935    3.5633 C   0  0  2  0  0  0  0  0  0  0  0  0
    2.2772   -3.7549    4.4077 C   0  0  2  0  0  0  0  0  0  0  0  0
    0.9349   -4.5117    4.0377 C   0  0  0  0  0  0  0  0  0  0  0  0
    2.3259   -3.8105    6.0961 C   0  0  2  0  0  0  0  0  0  0  0  0
    3.0910   -5.1378    6.3886 C   0  0  0  0  0  0  0  0  0  0  0  0
    0.8555   -4.1170    6.7717 C   0  0  1  0  0  0  0  0  0  0  0  0
    0.8606   -4.8364    8.1622 C   0  0  0  0  0  0  0  0  0  0  0  0
   -0.2152   -2.9401    6.7468 C   0  0  0  0  0  0  0  0  0  0  0  0
    0.4740   -1.6351    7.0801 C   0  0  2  0  0  0  0  0  0  0  0  0
   -0.1972   -0.7048    7.9186 O   0  0  0  0  0  0  0  0  0  0  0  0
    0.7690    0.2361    8.5818 C   0  0  2  0  0  0  0  0  0  0  0  0
    0.5922    1.8424    8.3937 C   0  0  1  0  0  0  0  0  0  0  0  0
    1.3597    2.5784    7.2037 C   0  0  0  0  0  0  0  0  0  0  0  0
    0.9965    2.2894    5.6612 C   0  0  2  0  0  0  0  0  0  0  0  0
    0.9007    3.6255    5.1607 O   0  0  0  0  0  0  0  0  0  0  0  0
   -0.2488    4.4365    5.4291 C   0  0  0  0  0  0  0  0  0  0  0  0
    0.2468    5.7548    6.0736 C   0  0  0  0  0  0  0  0  0  0  0  0
   -0.7198    4.8411    4.0109 C   0  0  0  0  0  0  0  0  0  0  0  0
   -1.3745    3.6964    6.2579 C   0  0  2  0  0  0  0  0  0  0  0  0
   -1.2488    3.7345    7.8412 C   0  0  1  0  0  0  0  0  0  0  0  0
   -2.4966    4.1494    8.3843 O   0  0  0  0  0  0  0  0  0  0  0  0
   -0.8146    2.4676    8.6545 C   0  0  1  0  0  0  0  0  0  0  0  0
   -1.8337    1.5211    8.5414 O   0  0  0  0  0  0  0  0  0  0  0  0
   -1.6851    2.3287    5.6350 C   0  0  1  0  0  0  0  0  0  0  0  0
   -2.3961    2.5284    4.4332 O   0  0  0  0  0  0  0  0  0  0  0  0
   -0.3686    1.5143    5.5493 C   0  0  1  0  0  0  0  0  0  0  0  0
   -0.2638    0.0460    5.0746 C   0  0  1  0  0  0  0  0  0  0  0  0
   -1.6469   -0.6486    5.1123 C   0  0  0  0  0  0  0  0  0  0  0  0
    0.1231   -0.0642    3.6996 O   0  0  0  0  0  0  0  0  0  0  0  0
   -0.0390    0.8930    2.7833 C   0  0  0  0  0  0  0  0  0  0  0  0
   -1.1170    1.2929    2.3553 O   0  0  0  0  0  0  0  0  0  0  0  0
    1.3008    1.3679    2.2382 C   0  0  0  0  0  0  0  0  0  0  0  0
    2.3106    1.9031    3.2993 C   0  0  1  0  0  0  0  0  0  0  0  0
    2.6051    3.3970    3.0373 C   0  0  0  0  0  0  0  0  0  0  0  0
    2.1630    1.4770    4.8205 C   0  0  2  0  0  0  0  0  0  0  0  0
    2.3385   -0.1570    5.1401 C   0  0  1  0  0  0  0  0  0  0  0  0
    0.9742   -0.6368    5.8915 C   0  0  2  0  0  0  0  0  0  0  0  0
    1.7060    0.1679    6.7989 O   0  0  0  0  0  0  0  0  0  0  0  0
    2.1809   -0.1952    8.0660 C   0  0  2  0  0  0  0  0  0  0  0  0
    2.5538   -1.7284    8.0742 C   0  0  1  0  0  0  0  0  0  0  0  0
    1.3047   -2.1621    8.0559 O   0  0  0  0  0  0  0  0  0  0  0  0
    3.1723   -2.6441    6.9143 C   0  0  1  0  0  0  0  0  0  0  0  0
    4.3904   -3.1092    7.4654 O   0  0  0  0  0  0  0  0  0  0  0  0
    2.7534    0.5224   -6.3097 H   0  0  0  0  0  0  0  0  0  0  0  0
    2.0679   -0.4170   -4.9739 H   0  0  0  0  0  0  0  0  0  0  0  0
    3.4590   -1.0499   -5.8834 H   0  0  0  0  0  0  0  0  0  0  0  0
    4.8264    0.8089   -5.1185 H   0  0  0  0  0  0  0  0  0  0  0  0
    3.5622    1.4465   -4.1628 H   0  0  0  0  0  0  0  0  0  0  0  0
    4.9834   -1.2457   -3.7120 H   0  0  0  0  0  0  0  0  0  0  0  0
    5.0179    0.1909   -2.7107 H   0  0  0  0  0  0  0  0  0  0  0  0
    2.4232   -0.2309   -2.5359 H   0  0  0  0  0  0  0  0  0  0  0  0
    2.7840   -1.8404   -2.9907 H   0  0  0  0  0  0  0  0  0  0  0  0
    4.2455   -0.4400   -0.6238 H   0  0  0  0  0  0  0  0  0  0  0  0
    2.7140   -1.2226   -0.4480 H   0  0  0  0  0  0  0  0  0  0  0  0
    4.3975   -1.6631    1.7522 H   0  0  0  0  0  0  0  0  0  0  0  0
    5.4085   -4.1261    2.6905 H   0  0  0  0  0  0  0  0  0  0  0  0
    6.1199   -2.6915    4.1447 H   0  0  0  0  0  0  0  0  0  0  0  0
    5.0838    0.7362    4.3816 H   0  0  0  0  0  0  0  0  0  0  0  0
    6.4202   -0.3308    4.5113 H   0  0  0  0  0  0  0  0  0  0  0  0
    5.3480   -0.2137    5.8773 H   0  0  0  0  0  0  0  0  0  0  0  0
    2.9736   -0.5190    3.0912 H   0  0  0  0  0  0  0  0  0  0  0  0
    1.1056   -2.1504    3.5671 H   0  0  0  0  0  0  0  0  0  0  0  0
    1.9604   -1.9856    1.4037 H   0  0  0  0  0  0  0  0  0  0  0  0
    2.1692   -5.9290    2.4364 H   0  0  0  0  0  0  0  0  0  0  0  0
    3.6523   -5.5822    1.6877 H   0  0  0  0  0  0  0  0  0  0  0  0
    3.9233   -5.3200    4.0698 H   0  0  0  0  0  0  0  0  0  0  0  0
    0.9525   -5.5623    4.3349 H   0  0  0  0  0  0  0  0  0  0  0  0
    0.6310   -4.5028    3.0027 H   0  0  0  0  0  0  0  0  0  0  0  0
    0.0342   -4.0567    4.4089 H   0  0  0  0  0  0  0  0  0  0  0  0
    3.1821   -5.3659    7.4493 H   0  0  0  0  0  0  0  0  0  0  0  0
    4.1281   -5.0935    6.0583 H   0  0  0  0  0  0  0  0  0  0  0  0
    2.6210   -5.9992    5.9120 H   0  0  0  0  0  0  0  0  0  0  0  0
    0.3625   -4.9409    6.2721 H   0  0  0  0  0  0  0  0  0  0  0  0
    1.5598   -4.4003    8.8746 H   0  0  0  0  0  0  0  0  0  0  0  0
    1.1199   -5.8890    8.0573 H   0  0  0  0  0  0  0  0  0  0  0  0
   -0.1249   -4.8235    8.6245 H   0  0  0  0  0  0  0  0  0  0  0  0
   -0.7319   -2.8736    5.8095 H   0  0  0  0  0  0  0  0  0  0  0  0
   -0.9952   -3.1345    7.4888 H   0  0  0  0  0  0  0  0  0  0  0  0
    0.6915    0.0150    9.6419 H   0  0  0  0  0  0  0  0  0  0  0  0
    1.1566    2.2150    9.2416 H   0  0  0  0  0  0  0  0  0  0  0  0
    1.3440    3.6415    7.4164 H   0  0  0  0  0  0  0  0  0  0  0  0
    2.4257    2.3935    7.3273 H   0  0  0  0  0  0  0  0  0  0  0  0
   -0.5846    6.4083    6.3400 H   0  0  0  0  0  0  0  0  0  0  0  0
    0.8942    6.3051    5.3873 H   0  0  0  0  0  0  0  0  0  0  0  0
    0.8477    5.6122    6.9676 H   0  0  0  0  0  0  0  0  0  0  0  0
   -1.7101    5.2755    4.0249 H   0  0  0  0  0  0  0  0  0  0  0  0
   -0.7693    3.9962    3.3285 H   0  0  0  0  0  0  0  0  0  0  0  0
   -0.0498    5.5615    3.5363 H   0  0  0  0  0  0  0  0  0  0  0  0
   -2.2851    4.2380    6.0487 H   0  0  0  0  0  0  0  0  0  0  0  0
   -0.5805    4.5324    8.1431 H   0  0  0  0  0  0  0  0  0  0  0  0
   -2.3911    4.3220    9.3139 H   0  0  0  0  0  0  0  0  0  0  0  0
   -0.8348    2.7442    9.7107 H   0  0  0  0  0  0  0  0  0  0  0  0
   -2.5669    1.8885    9.0176 H   0  0  0  0  0  0  0  0  0  0  0  0
   -2.4342    1.8189    6.2415 H   0  0  0  0  0  0  0  0  0  0  0  0
   -2.4888    1.7046    3.9671 H   0  0  0  0  0  0  0  0  0  0  0  0
   -0.5403    1.1532    6.5232 H   0  0  0  0  0  0  0  0  0  0  0  0
   -2.0120   -0.8393    6.1137 H   0  0  0  0  0  0  0  0  0  0  0  0
   -1.6253   -1.5685    4.5473 H   0  0  0  0  0  0  0  0  0  0  0  0
   -2.4114   -0.0626    4.6203 H   0  0  0  0  0  0  0  0  0  0  0  0
    1.7344    0.5208    1.7040 H   0  0  0  0  0  0  0  0  0  0  0  0
    1.1138    2.1299    1.4761 H   0  0  0  0  0  0  0  0  0  0  0  0
    3.2685    1.4910    3.0060 H   0  0  0  0  0  0  0  0  0  0  0  0
    1.7007    4.0019    2.9530 H   0  0  0  0  0  0  0  0  0  0  0  0
    3.1223    3.5284    2.0818 H   0  0  0  0  0  0  0  0  0  0  0  0
    3.2408    3.8231    3.8179 H   0  0  0  0  0  0  0  0  0  0  0  0
    3.0763    1.9090    5.2312 H   0  0  0  0  0  0  0  0  0  0  0  0
    3.2555   -0.0881    5.7509 H   0  0  0  0  0  0  0  0  0  0  0  0
    2.9784    0.4259    8.4528 H   0  0  0  0  0  0  0  0  0  0  0  0
    2.9461   -2.0264    9.0547 H   0  0  0  0  0  0  0  0  0  0  0  0
    3.5787   -1.9798    6.2266 H   0  0  0  0  0  0  0  0  0  0  0  0
    4.1748   -3.7209    8.1578 H   0  0  0  0  0  0  0  0  0  0  0  0
  1  2  1  0
  1 64  1  0
  1 65  1  0
  1 66  1  0
  2  3  1  0
  2 67  1  0
  2 68  1  0
  3  4  1  0
  3 69  1  0
  3 70  1  0
  4  5  1  0
  4 71  1  0
  4 72  1  0
  5  6  1  0
  5 73  1  0
  5 74  1  0
  6 10  1  0
  6  7  2  0
  7  8  1  0
  8  9  2  0
  9 10  1  0
 10 11  1  0
 11 18  1  0
 11 12  1  0
 11 75  1  1
 12 21  1  0
 12 13  1  0
 12 76  1  6
 13 14  2  0
 13 77  1  0
 14 15  1  0
 14 16  1  0
 15 78  1  0
 15 79  1  0
 15 80  1  0
 16 56  1  0
 16 17  1  0
 16 81  1  6
 17 22  1  0
 17 18  1  0
 17 82  1  6
 18 19  1  0
 18 83  1  6
 19 20  1  0
 20 21  1  0
 20 84  1  0
 20 85  1  0
 21 22  1  0
 21 86  1  1
 22 23  1  6
 22 24  1  0
 23 87  1  0
 23 88  1  0
 23 89  1  0
 24 62  1  0
 24 25  1  6
 24 26  1  0
 25 90  1  0
 25 91  1  0
 25 92  1  0
 26 27  1  0
 26 28  1  0
 26 93  1  6
 27 94  1  0
 27 95  1  0
 27 96  1  0
 29 28  1  6
 28 97  1  0
 28 98  1  0
 29 57  1  0
 29 61  1  0
 29 30  1  0
 30 31  1  0
 31 59  1  0
 31 32  1  0
 31 99  1  1
 32 42  1  0
 32 33  1  0
 32100  1  1
 33 34  1  0
 33101  1  0
 33102  1  0
 34 46  1  0
 34 55  1  0
 34 35  1  6
 35 36  1  0
 36 37  1  0
 36 38  1  0
 36 39  1  0
 37103  1  0
 37104  1  0
 37105  1  0
 38106  1  0
 38107  1  0
 38108  1  0
 39 40  1  0
 39 44  1  0
 39109  1  1
 40 41  1  0
 40 42  1  0
 40110  1  6
 41111  1  0
 42 43  1  0
 42112  1  1
 43113  1  0
 44 45  1  0
 44 46  1  0
 44114  1  1
 45115  1  0
 46 47  1  0
 46116  1  1
 47 57  1  0
 47 48  1  6
 47 49  1  0
 48117  1  0
 48118  1  0
 48119  1  0
 49 50  1  0
 50 51  2  0
 50 52  1  0
 52 53  1  0
 52120  1  0
 52121  1  0
 53 54  1  0
 53 55  1  0
 53122  1  6
 54123  1  0
 54124  1  0
 54125  1  0
 55 56  1  0
 55126  1  1
 56 57  1  0
 56127  1  1
 57 58  1  1
 58 59  1  0
 59 60  1  0
 59128  1  1
 60 61  1  0
 60 62  1  0
 60129  1  1
 62 63  1  0
 62130  1  6
 63131  1  0
M  END
>  <i_m_ct_stereo_status>  (278) 
1

>  <s_m_source_file>  (278) 
/var/tmp/pbs.5076255.sched01/tmph7d3_0rd/117btfl79hs.sdf

>  <i_m_source_file_index>  (278) 
10

>  <i_lp_mmshare_version>  (278) 
48012

>  <i_f3d_flags>  (278) 
0

>  <s_epik_input>  (278) 
W0NIM11bQ0gyXVtDSDJdW0NIMl1bQ0gyXWMxbm5ubjFbQ0BASF0oW0NAQEhdMltDQEBIXTNbQ0BIXTRbQ0BIXTVbQ0BASF0oW0NASF0oW0NIM10pW0NIMl1DKE82KT1PKVtDQEBdNzhbQ0BASF05W0NAXTYoW0NIM10pW0NAXTE1W0NAXTU2JTEwKVtDQEBIXShbQ0hdPUM0W0NIM10pW0NASF0oW0NIMl1PMilbQ0BAXTMoW0NIM10pW0NAXShbQ0gzXSkoW0NAQEhdKFtDSDNdKVtDSDJdNSlbQ0BIXShbT0hdKVtDQEhdKE8lMTApW0NAQEhdKE8xKVtDQEhdKE82KVtDSF0oW0NIMl03KVtDQEhdKFtPSF0pW0NASF0oW09IXSlbQ0BASF0oQyhPOCkoW0NIM10pW0NIM10pW0NASF05W09IXQ==

>  <s_epik_cmdline>  (278) 
J2VwaWtfcHl0aG9uJywgJy1waHQnLCAnMi4wJywgJy1waCcsICc3LjAnLCAnLXRuJywgJzgnLCAnLW1hJywgJzIwMCcsICctaW1hZScsICc8aW5maWxlLm1hZT4nLCAnLW9tYWUnLCAnPG91dGZpbGUubWFlPic=

>  <r_lp_tautomer_probability>  (278) 
1

>  <r_epik_Ionization_Penalty>  (278) 
1.97692e-07

>  <r_epik_Ionization_Penalty_Charging>  (278) 
0

>  <r_epik_Ionization_Penalty_Neutral>  (278) 
1.97692e-07

>  <r_epik_State_Penalty>  (278) 
-0

>  <r_epik_Charging_Adjusted_Penalty>  (278) 
0

>  <i_epik_Tot_Q>  (278) 
0

>  <i_epik_Tot_abs_Q>  (278) 
0

>  <s_epik_Chemistry_Notes>  (278) 
This compound has an ester and may undergo hydrolysis at high or low pH.

>  <s_lp_Force_Field>  (278) 
OPLS3e

>  <r_lp_Energy>  (278) 
483.978

>  <b_lp_Chiralities_Consistent>  (278) 
1

>  <s_lp_Variant>  (278) 
95:0-1

>  <s_i_glide_gridfile>  (278) 
pfpi4k_grid

>  <i_i_glide_lignum>  (278) 
10

>  <i_i_glide_rotatable_bonds>  (278) 
9

>  <r_i_docking_score>  (278) 
-2.87285

>  <r_i_glide_ligand_efficiency>  (278) 
-0.0456009

>  <r_i_glide_ligand_efficiency_sa>  (278) 
-0.181448

>  <r_i_glide_ligand_efficiency_ln>  (278) 
-0.55858

>  <r_i_glide_gscore>  (278) 
-2.87285

>  <r_i_glide_lipo>  (278) 
-0.550092

>  <r_i_glide_hbond>  (278) 
-0.017261

>  <r_i_glide_metal>  (278) 
-0

>  <r_i_glide_rewards>  (278) 
-0.0612602

>  <r_i_glide_evdw>  (278) 
-34.4165

>  <r_i_glide_ecoul>  (278) 
-3.62448

>  <r_i_glide_erotb>  (278) 
0.114357

>  <r_i_glide_esite>  (278) 
-0.0941007

>  <r_i_glide_emodel>  (278) 
-40.1723

>  <r_i_glide_energy>  (278) 
-38.041

>  <r_i_glide_einternal>  (278) 
8.89002

>  <r_i_glide_intrahb_reward>  (278) 
-0

>  <i_i_glide_confnum>  (278) 
2

>  <i_i_glide_posenum>  (278) 
2

>  <r_i_glide_eff_state_penalty>  (278) 
0

>  <ligand_id>  (278) 
95

>  <original_smiles>  (278) 
CCCCCc1nnnn1C1C2C=C(C)C3C4C1OCC2C4(C)C1(C)C(C)CC24OC5C6CC78OC(C)(C)C(C(O)C6O)C(O)C7C6(C)OC(=O)CC(C)C8C3C26OC5C(O4)C1O

>  <smiles>  (278) 
[H]OC1([H])C([H])(O[H])C2([H])C([H])(O[H])C3([H])C4(OC2(C([H])([H])[H])C([H])([H])[H])C([H])([H])C1([H])C1([H])OC25OC6([H])C1([H])OC21C([H])(C2([H])C(C([H])([H])[H])=C([H])C7([H])C([H])(n8nnnc8C([H])([H])C([H])([H])C([H])([H])C([H])([H])C([H])([H])[H])C8([H])OC([H])([H])C7([H])C(C([H])([H])[H])(C82[H])C(C([H])([H])[H])(C6([H])O[H])C([H])(C([H])([H])[H])C5([H])[H])C4([H])C([H])(C([H])([H])[H])C([H])([H])C(=O)OC31C([H])([H])[H]

$$$$
96:0:0
     RDKit          3D

 50 55  0  0  1  0  0  0  0  0999 V2000
    0.7941   -8.0553    6.3026 C   0  0  0  0  0  0  0  0  0  0  0  0
    0.6267   -6.6463    6.1686 O   0  0  0  0  0  0  0  0  0  0  0  0
    1.6478   -5.8115    6.4103 C   0  0  0  0  0  0  0  0  0  0  0  0
    2.8002   -6.1920    6.6163 O   0  0  0  0  0  0  0  0  0  0  0  0
    1.2521   -4.3784    6.4019 C   0  0  0  0  0  0  0  0  0  0  0  0
    0.0231   -3.8531    6.7401 C   0  0  0  0  0  0  0  0  0  0  0  0
   -1.0782   -4.6138    7.3222 C   0  0  0  0  0  0  0  0  0  0  0  0
   -2.2756   -4.0880    7.0037 N   0  0  0  0  0  0  0  0  0  0  0  0
   -0.9640   -5.5832    8.0576 O   0  0  0  0  0  0  0  0  0  0  0  0
   -0.2480   -2.5075    6.5801 O   0  0  0  0  0  0  0  0  0  0  0  0
    0.6684   -1.7341    5.7971 C   0  0  2  0  0  0  0  0  0  0  0  0
    0.1271   -1.6516    4.3146 C   0  0  0  0  0  0  0  0  0  0  0  0
    1.0011   -0.7826    3.3428 C   0  0  0  0  0  0  0  0  0  0  0  0
    1.4545    0.4805    4.0905 C   0  0  2  0  0  0  0  0  0  0  0  0
    2.7817    1.2293    3.8249 C   0  0  0  0  0  0  0  0  0  0  0  0
    2.8954    1.3868    5.3633 C   0  0  0  0  0  0  0  0  0  0  0  0
    2.1100    0.0620    5.4403 C   0  0  2  0  0  0  0  0  0  0  0  0
    2.9893   -1.2080    5.4605 C   0  0  0  0  0  0  0  0  0  0  0  0
    4.2098   -1.3114    5.3120 O   0  0  0  0  0  0  0  0  0  0  0  0
    2.0630   -2.3371    5.7623 C   0  0  0  0  0  0  0  0  0  0  0  0
    2.3042   -3.5554    6.0049 N   0  0  0  0  0  0  0  0  0  0  0  0
    1.0150   -0.3455    6.4191 C   0  0  1  0  0  0  0  0  0  0  0  0
   -0.1503    0.6490    6.5934 C   0  0  0  0  0  0  0  0  0  0  0  0
   -0.5902    1.3944    5.3551 C   0  0  0  0  0  0  0  0  0  0  0  0
   -1.7758    2.1475    5.4132 C   0  0  0  0  0  0  0  0  0  0  0  0
   -2.1987    2.8782    4.2976 C   0  0  0  0  0  0  0  0  0  0  0  0
   -1.4307    2.8675    3.1261 C   0  0  0  0  0  0  0  0  0  0  0  0
   -0.2357    2.1306    3.0610 C   0  0  0  0  0  0  0  0  0  0  0  0
    0.4878    2.1371    1.9045 O   0  0  0  0  0  0  0  0  0  0  0  0
    0.1865    1.3698    4.1752 C   0  0  0  0  0  0  0  0  0  0  0  0
   -0.1955   -8.5032    6.2558 H   0  0  0  0  0  0  0  0  0  0  0  0
    1.2221   -8.3329    7.2659 H   0  0  0  0  0  0  0  0  0  0  0  0
    1.3998   -8.4784    5.5027 H   0  0  0  0  0  0  0  0  0  0  0  0
   -2.3125   -3.2480    6.4413 H   0  0  0  0  0  0  0  0  0  0  0  0
   -3.1339   -4.5553    7.2910 H   0  0  0  0  0  0  0  0  0  0  0  0
   -0.0015   -2.6576    3.8992 H   0  0  0  0  0  0  0  0  0  0  0  0
   -0.8793   -1.2323    4.3548 H   0  0  0  0  0  0  0  0  0  0  0  0
    1.8484   -1.3761    2.9902 H   0  0  0  0  0  0  0  0  0  0  0  0
    0.4335   -0.5467    2.4440 H   0  0  0  0  0  0  0  0  0  0  0  0
    3.5660    0.5879    3.4096 H   0  0  0  0  0  0  0  0  0  0  0  0
    2.7081    2.1652    3.2671 H   0  0  0  0  0  0  0  0  0  0  0  0
    3.9182    1.3407    5.7541 H   0  0  0  0  0  0  0  0  0  0  0  0
    2.3440    2.2551    5.7490 H   0  0  0  0  0  0  0  0  0  0  0  0
    1.4320   -0.5110    7.4224 H   0  0  0  0  0  0  0  0  0  0  0  0
   -0.9960    0.1503    7.0517 H   0  0  0  0  0  0  0  0  0  0  0  0
    0.1817    1.4086    7.2947 H   0  0  0  0  0  0  0  0  0  0  0  0
   -2.3620    2.1564    6.3080 H   0  0  0  0  0  0  0  0  0  0  0  0
   -3.1155    3.4334    4.3329 H   0  0  0  0  0  0  0  0  0  0  0  0
   -1.7515    3.4393    2.2728 H   0  0  0  0  0  0  0  0  0  0  0  0
    0.2270    2.8725    1.3369 H   0  0  0  0  0  0  0  0  0  0  0  0
  1  2  1  0
  1 31  1  0
  1 32  1  0
  1 33  1  0
  2  3  1  0
  3  4  2  0
  3  5  1  0
  5 21  1  0
  5  6  2  0
  6  7  1  0
  6 10  1  0
  7  8  1  0
  7  9  2  0
  8 34  1  0
  8 35  1  0
 11 10  1  1
 11 20  1  0
 11 22  1  0
 11 12  1  0
 12 13  1  0
 12 36  1  0
 12 37  1  0
 14 13  1  6
 13 38  1  0
 13 39  1  0
 14 17  1  0
 14 30  1  0
 14 15  1  0
 15 16  1  0
 15 40  1  0
 15 41  1  0
 17 16  1  1
 16 42  1  0
 16 43  1  0
 17 18  1  0
 17 22  1  0
 18 19  2  0
 18 20  1  0
 20 21  2  0
 22 23  1  0
 22 44  1  1
 23 24  1  0
 23 45  1  0
 23 46  1  0
 24 30  2  0
 24 25  1  0
 25 26  2  0
 25 47  1  0
 26 27  1  0
 26 48  1  0
 27 28  2  0
 27 49  1  0
 28 29  1  0
 28 30  1  0
 29 50  1  0
M  END
>  <i_m_ct_stereo_status>  (279) 
1

>  <s_m_source_file>  (279) 
/var/tmp/pbs.5076255.sched01/tmph7d3_0rd/117btfl79hs.sdf

>  <i_m_source_file_index>  (279) 
11

>  <i_lp_mmshare_version>  (279) 
48012

>  <i_f3d_flags>  (279) 
0

>  <s_epik_input>  (279) 
W0NIM11PQyg9TylDKD1DKE8xKUMoPU8pW05IMl0pTj1DKFtDQF0xMjMpQyg9TylbQ0BdNDVbQ0BdKFtDSDJdW0NIMl0yKShbQ0gyXVtDSDJdNCljNmMoW0NIMl1bQ0BASF0zNSlbY0hdW2NIXVtjSF1jNltPSF0=

>  <s_epik_cmdline>  (279) 
J2VwaWtfcHl0aG9uJywgJy1waHQnLCAnMi4wJywgJy1waCcsICc3LjAnLCAnLXRuJywgJzgnLCAnLW1hJywgJzIwMCcsICctaW1hZScsICc8aW5maWxlLm1hZT4nLCAnLW9tYWUnLCAnPG91dGZpbGUubWFlPic=

>  <r_lp_tautomer_probability>  (279) 
1

>  <r_epik_Ionization_Penalty>  (279) 
0.280136

>  <r_epik_Ionization_Penalty_Charging>  (279) 
0

>  <r_epik_Ionization_Penalty_Neutral>  (279) 
0.280136

>  <r_epik_State_Penalty>  (279) 
0.457286

>  <r_epik_Charging_Adjusted_Penalty>  (279) 
0.457286

>  <i_epik_Tot_Q>  (279) 
0

>  <i_epik_Tot_abs_Q>  (279) 
0

>  <s_epik_Chemistry_Notes>  (279) 
This compound has an ester and may undergo hydrolysis at high or low pH. This compound has an imine and may undergo hydrolysis.

>  <s_lp_Force_Field>  (279) 
OPLS3e

>  <r_lp_Energy>  (279) 
100.716

>  <b_lp_Chiralities_Consistent>  (279) 
1

>  <s_lp_Variant>  (279) 
96:0-1

>  <s_i_glide_gridfile>  (279) 
pfpi4k_grid

>  <i_i_glide_lignum>  (279) 
11

>  <i_i_glide_rotatable_bonds>  (279) 
4

>  <r_i_docking_score>  (279) 
-2.734

>  <r_i_glide_ligand_efficiency>  (279) 
-0.0911335

>  <r_i_glide_ligand_efficiency_sa>  (279) 
-0.283173

>  <r_i_glide_ligand_efficiency_ln>  (279) 
-0.621196

>  <r_i_glide_gscore>  (279) 
-2.734

>  <r_i_glide_lipo>  (279) 
0

>  <r_i_glide_hbond>  (279) 
-0.212328

>  <r_i_glide_metal>  (279) 
-0

>  <r_i_glide_rewards>  (279) 
-0.636899

>  <r_i_glide_evdw>  (279) 
-20.5267

>  <r_i_glide_ecoul>  (279) 
-6.39034

>  <r_i_glide_erotb>  (279) 
0.117996

>  <r_i_glide_esite>  (279) 
-0.017885

>  <r_i_glide_emodel>  (279) 
-31.0553

>  <r_i_glide_energy>  (279) 
-26.9171

>  <r_i_glide_einternal>  (279) 
1.0962

>  <r_i_glide_intrahb_reward>  (279) 
-0

>  <i_i_glide_confnum>  (279) 
2

>  <i_i_glide_posenum>  (279) 
1

>  <r_i_glide_eff_state_penalty>  (279) 
0

>  <ligand_id>  (279) 
96

>  <original_smiles>  (279) 
COC(=O)C1=C(C(N)=O)OC23CCC45CCC4(C(=O)C2=N1)C3Cc1cccc(O)c15

>  <smiles>  (279) 
[H]Oc1c([H])c([H])c([H])c2c1C13C([H])([H])C([H])([H])C45OC(C(=O)N([H])[H])=C(C(=O)OC([H])([H])[H])N=C4C(=O)C1(C([H])([H])C3([H])[H])C5([H])C2([H])[H]

$$$$
96:0:1
     RDKit          3D

 50 55  0  0  1  0  0  0  0  0999 V2000
    1.4925   -7.6733    3.8554 C   0  0  0  0  0  0  0  0  0  0  0  0
    1.6062   -6.3247    4.2574 O   0  0  0  0  0  0  0  0  0  0  0  0
    1.4421   -5.3321    3.3809 C   0  0  0  0  0  0  0  0  0  0  0  0
    1.4054   -5.5136    2.1584 O   0  0  0  0  0  0  0  0  0  0  0  0
    1.3033   -3.9877    4.0064 C   0  0  0  0  0  0  0  0  0  0  0  0
    0.7573   -3.6810    5.2365 C   0  0  0  0  0  0  0  0  0  0  0  0
    0.0660   -4.6278    6.1239 C   0  0  0  0  0  0  0  0  0  0  0  0
   -0.0099   -4.1680    7.3809 N   0  0  0  0  0  0  0  0  0  0  0  0
   -0.4555   -5.6936    5.8232 O   0  0  0  0  0  0  0  0  0  0  0  0
    0.7770   -2.3752    5.6887 O   0  0  0  0  0  0  0  0  0  0  0  0
    0.9830   -1.3273    4.7155 C   0  0  2  0  0  0  0  0  0  0  0  0
   -0.3959   -0.8095    4.1519 C   0  0  0  0  0  0  0  0  0  0  0  0
   -0.2875    0.3726    3.1197 C   0  0  0  0  0  0  0  0  0  0  0  0
    0.7698    1.3685    3.6174 C   0  0  2  0  0  0  0  0  0  0  0  0
    1.6710    2.2460    2.7206 C   0  0  0  0  0  0  0  0  0  0  0  0
    2.8128    1.9191    3.7173 C   0  0  0  0  0  0  0  0  0  0  0  0
    2.0797    0.5949    3.9577 C   0  0  2  0  0  0  0  0  0  0  0  0
    2.4928   -0.5527    3.0166 C   0  0  0  0  0  0  0  0  0  0  0  0
    3.2532   -0.5410    2.0472 O   0  0  0  0  0  0  0  0  0  0  0  0
    1.8211   -1.7877    3.5436 C   0  0  0  0  0  0  0  0  0  0  0  0
    1.9074   -2.9969    3.2095 N   0  0  0  0  0  0  0  0  0  0  0  0
    1.8860   -0.1809    5.2537 C   0  0  1  0  0  0  0  0  0  0  0  0
    1.3401    0.6303    6.4432 C   0  0  0  0  0  0  0  0  0  0  0  0
    0.3245    1.7071    6.1188 C   0  0  0  0  0  0  0  0  0  0  0  0
   -0.3644    2.3165    7.1899 C   0  0  0  0  0  0  0  0  0  0  0  0
   -1.3004    3.3314    6.9371 C   0  0  0  0  0  0  0  0  0  0  0  0
   -1.5369    3.7372    5.6142 C   0  0  0  0  0  0  0  0  0  0  0  0
   -0.8576    3.1378    4.5377 C   0  0  0  0  0  0  0  0  0  0  0  0
   -1.1501    3.5801    3.2765 O   0  0  0  0  0  0  0  0  0  0  0  0
    0.0806    2.1044    4.7810 C   0  0  0  0  0  0  0  0  0  0  0  0
    1.4490   -8.2914    4.7479 H   0  0  0  0  0  0  0  0  0  0  0  0
    2.3427   -8.0047    3.2515 H   0  0  0  0  0  0  0  0  0  0  0  0
    0.5752   -7.8606    3.2982 H   0  0  0  0  0  0  0  0  0  0  0  0
    0.3828   -3.2670    7.6160 H   0  0  0  0  0  0  0  0  0  0  0  0
   -0.4104   -4.7711    8.0855 H   0  0  0  0  0  0  0  0  0  0  0  0
   -0.9384   -1.6317    3.6942 H   0  0  0  0  0  0  0  0  0  0  0  0
   -1.0230   -0.4826    4.9815 H   0  0  0  0  0  0  0  0  0  0  0  0
   -0.0182   -0.0093    2.1324 H   0  0  0  0  0  0  0  0  0  0  0  0
   -1.2589    0.8465    2.9673 H   0  0  0  0  0  0  0  0  0  0  0  0
    1.8339    1.8180    1.7281 H   0  0  0  0  0  0  0  0  0  0  0  0
    1.4107    3.3023    2.6475 H   0  0  0  0  0  0  0  0  0  0  0  0
    3.8023    1.8039    3.2760 H   0  0  0  0  0  0  0  0  0  0  0  0
    2.8259    2.5820    4.5836 H   0  0  0  0  0  0  0  0  0  0  0  0
    2.8323   -0.6148    5.5909 H   0  0  0  0  0  0  0  0  0  0  0  0
    0.9532   -0.0346    7.2151 H   0  0  0  0  0  0  0  0  0  0  0  0
    2.1811    1.1592    6.8945 H   0  0  0  0  0  0  0  0  0  0  0  0
   -0.1697    2.0101    8.2082 H   0  0  0  0  0  0  0  0  0  0  0  0
   -1.8227    3.7991    7.7567 H   0  0  0  0  0  0  0  0  0  0  0  0
   -2.2424    4.5193    5.4005 H   0  0  0  0  0  0  0  0  0  0  0  0
   -0.5097    3.3769    2.6034 H   0  0  0  0  0  0  0  0  0  0  0  0
  1  2  1  0
  1 31  1  0
  1 32  1  0
  1 33  1  0
  2  3  1  0
  3  4  2  0
  3  5  1  0
  5 21  1  0
  5  6  2  0
  6  7  1  0
  6 10  1  0
  7  8  1  0
  7  9  2  0
  8 34  1  0
  8 35  1  0
 11 10  1  1
 11 20  1  0
 11 22  1  0
 11 12  1  0
 12 13  1  0
 12 36  1  0
 12 37  1  0
 14 13  1  6
 13 38  1  0
 13 39  1  0
 14 17  1  0
 14 30  1  0
 14 15  1  0
 15 16  1  0
 15 40  1  0
 15 41  1  0
 17 16  1  1
 16 42  1  0
 16 43  1  0
 17 18  1  0
 17 22  1  0
 18 19  2  0
 18 20  1  0
 20 21  2  0
 22 23  1  0
 22 44  1  1
 23 24  1  0
 23 45  1  0
 23 46  1  0
 24 30  2  0
 24 25  1  0
 25 26  2  0
 25 47  1  0
 26 27  1  0
 26 48  1  0
 27 28  2  0
 27 49  1  0
 28 29  1  0
 28 30  1  0
 29 50  1  0
M  END
>  <i_m_ct_stereo_status>  (280) 
1

>  <s_m_source_file>  (280) 
/var/tmp/pbs.5076255.sched01/tmph7d3_0rd/117btfl79hs.sdf

>  <i_m_source_file_index>  (280) 
11

>  <i_lp_mmshare_version>  (280) 
48012

>  <i_f3d_flags>  (280) 
0

>  <s_epik_input>  (280) 
W0NIM11PQyg9TylDKD1DKE8xKUMoPU8pW05IMl0pTj1DKFtDQF0xMjMpQyg9TylbQ0BdNDVbQ0BdKFtDSDJdW0NIMl0yKShbQ0gyXVtDSDJdNCljNmMoW0NIMl1bQ0BASF0zNSlbY0hdW2NIXVtjSF1jNltPSF0=

>  <s_epik_cmdline>  (280) 
J2VwaWtfcHl0aG9uJywgJy1waHQnLCAnMi4wJywgJy1waCcsICc3LjAnLCAnLXRuJywgJzgnLCAnLW1hJywgJzIwMCcsICctaW1hZScsICc8aW5maWxlLm1hZT4nLCAnLW9tYWUnLCAnPG91dGZpbGUubWFlPic=

>  <r_lp_tautomer_probability>  (280) 
1

>  <r_epik_Ionization_Penalty>  (280) 
0.280136

>  <r_epik_Ionization_Penalty_Charging>  (280) 
0

>  <r_epik_Ionization_Penalty_Neutral>  (280) 
0.280136

>  <r_epik_State_Penalty>  (280) 
0.457286

>  <r_epik_Charging_Adjusted_Penalty>  (280) 
0.457286

>  <i_epik_Tot_Q>  (280) 
0

>  <i_epik_Tot_abs_Q>  (280) 
0

>  <s_epik_Chemistry_Notes>  (280) 
This compound has an ester and may undergo hydrolysis at high or low pH. This compound has an imine and may undergo hydrolysis.

>  <s_lp_Force_Field>  (280) 
OPLS3e

>  <r_lp_Energy>  (280) 
100.716

>  <b_lp_Chiralities_Consistent>  (280) 
1

>  <s_lp_Variant>  (280) 
96:0-1

>  <s_i_glide_gridfile>  (280) 
pfpi4k_grid

>  <i_i_glide_lignum>  (280) 
11

>  <i_i_glide_rotatable_bonds>  (280) 
4

>  <r_i_docking_score>  (280) 
-2.38407

>  <r_i_glide_ligand_efficiency>  (280) 
-0.079469

>  <r_i_glide_ligand_efficiency_sa>  (280) 
-0.246929

>  <r_i_glide_ligand_efficiency_ln>  (280) 
-0.541687

>  <r_i_glide_gscore>  (280) 
-2.38407

>  <r_i_glide_lipo>  (280) 
-0.0282121

>  <r_i_glide_hbond>  (280) 
-0.115671

>  <r_i_glide_metal>  (280) 
-0

>  <r_i_glide_rewards>  (280) 
-0.62978

>  <r_i_glide_evdw>  (280) 
-23.5018

>  <r_i_glide_ecoul>  (280) 
-3.42091

>  <r_i_glide_erotb>  (280) 
0.117996

>  <r_i_glide_esite>  (280) 
-0.0401758

>  <r_i_glide_emodel>  (280) 
-30.1776

>  <r_i_glide_energy>  (280) 
-26.9227

>  <r_i_glide_einternal>  (280) 
1.32137

>  <r_i_glide_intrahb_reward>  (280) 
-0

>  <i_i_glide_confnum>  (280) 
2

>  <i_i_glide_posenum>  (280) 
32

>  <r_i_glide_eff_state_penalty>  (280) 
0

>  <ligand_id>  (280) 
96

>  <original_smiles>  (280) 
COC(=O)C1=C(C(N)=O)OC23CCC45CCC4(C(=O)C2=N1)C3Cc1cccc(O)c15

>  <smiles>  (280) 
[H]Oc1c([H])c([H])c([H])c2c1C13C([H])([H])C([H])([H])C45OC(C(=O)N([H])[H])=C(C(=O)OC([H])([H])[H])N=C4C(=O)C1(C([H])([H])C3([H])[H])C5([H])C2([H])[H]

$$$$
96:0:2
     RDKit          3D

 50 55  0  0  1  0  0  0  0  0999 V2000
    3.1052   -5.6966    0.9229 C   0  0  0  0  0  0  0  0  0  0  0  0
    2.8071   -4.6415    1.8272 O   0  0  0  0  0  0  0  0  0  0  0  0
    1.8096   -4.7999    2.7400 C   0  0  0  0  0  0  0  0  0  0  0  0
    1.1229   -5.8089    2.7817 O   0  0  0  0  0  0  0  0  0  0  0  0
    1.5929   -3.5843    3.5930 C   0  0  0  0  0  0  0  0  0  0  0  0
    1.0275   -3.5497    4.8500 C   0  0  0  0  0  0  0  0  0  0  0  0
    0.5533   -4.7264    5.5898 C   0  0  0  0  0  0  0  0  0  0  0  0
    0.4041   -4.4615    6.9002 N   0  0  0  0  0  0  0  0  0  0  0  0
    0.2854   -5.8245    5.1522 O   0  0  0  0  0  0  0  0  0  0  0  0
    0.8735   -2.3384    5.5083 O   0  0  0  0  0  0  0  0  0  0  0  0
    0.9324   -1.1271    4.7212 C   0  0  2  0  0  0  0  0  0  0  0  0
   -0.5202   -0.7117    4.2629 C   0  0  0  0  0  0  0  0  0  0  0  0
   -0.5958    0.6165    3.4308 C   0  0  0  0  0  0  0  0  0  0  0  0
    0.3407    1.6579    4.0743 C   0  0  2  0  0  0  0  0  0  0  0  0
    1.0944    2.7713    3.3160 C   0  0  0  0  0  0  0  0  0  0  0  0
    2.3105    2.4491    4.2256 C   0  0  0  0  0  0  0  0  0  0  0  0
    1.7544    1.0152    4.2686 C   0  0  2  0  0  0  0  0  0  0  0  0
    2.2781    0.0852    3.1469 C   0  0  0  0  0  0  0  0  0  0  0  0
    2.9923    0.3624    2.1807 O   0  0  0  0  0  0  0  0  0  0  0  0
    1.7977   -1.2886    3.4900 C   0  0  0  0  0  0  0  0  0  0  0  0
    2.0511   -2.4111    2.9800 N   0  0  0  0  0  0  0  0  0  0  0  0
    1.7018    0.0295    5.4282 C   0  0  1  0  0  0  0  0  0  0  0  0
    1.1001    0.5637    6.7404 C   0  0  0  0  0  0  0  0  0  0  0  0
   -0.0562    1.5315    6.6066 C   0  0  0  0  0  0  0  0  0  0  0  0
   -0.7769    1.8711    7.7716 C   0  0  0  0  0  0  0  0  0  0  0  0
   -1.8425    2.7806    7.7023 C   0  0  0  0  0  0  0  0  0  0  0  0
   -2.1811    3.3522    6.4692 C   0  0  0  0  0  0  0  0  0  0  0  0
   -1.4684    3.0258    5.2988 C   0  0  0  0  0  0  0  0  0  0  0  0
   -1.8394    3.6160    4.1225 O   0  0  0  0  0  0  0  0  0  0  0  0
   -0.3974    2.0989    5.3562 C   0  0  0  0  0  0  0  0  0  0  0  0
    3.8907   -5.4128    0.2157 H   0  0  0  0  0  0  0  0  0  0  0  0
    2.2170   -5.9828    0.3577 H   0  0  0  0  0  0  0  0  0  0  0  0
    3.4392   -6.5671    1.4871 H   0  0  0  0  0  0  0  0  0  0  0  0
    0.6387   -3.5557    7.2696 H   0  0  0  0  0  0  0  0  0  0  0  0
    0.1096   -5.2163    7.4980 H   0  0  0  0  0  0  0  0  0  0  0  0
   -0.9647   -1.5206    3.6874 H   0  0  0  0  0  0  0  0  0  0  0  0
   -1.1555   -0.6081    5.1434 H   0  0  0  0  0  0  0  0  0  0  0  0
   -0.3167    0.4277    2.3919 H   0  0  0  0  0  0  0  0  0  0  0  0
   -1.6263    0.9749    3.3728 H   0  0  0  0  0  0  0  0  0  0  0  0
    1.2790    2.5306    2.2668 H   0  0  0  0  0  0  0  0  0  0  0  0
    0.7041    3.7828    3.4181 H   0  0  0  0  0  0  0  0  0  0  0  0
    3.2826    2.5460    3.7384 H   0  0  0  0  0  0  0  0  0  0  0  0
    2.2756    2.9577    5.1903 H   0  0  0  0  0  0  0  0  0  0  0  0
    2.7065   -0.3305    5.6796 H   0  0  0  0  0  0  0  0  0  0  0  0
    0.8320   -0.2605    7.4014 H   0  0  0  0  0  0  0  0  0  0  0  0
    1.8844    1.1173    7.2582 H   0  0  0  0  0  0  0  0  0  0  0  0
   -0.5068    1.4396    8.7245 H   0  0  0  0  0  0  0  0  0  0  0  0
   -2.3849    3.0472    8.5939 H   0  0  0  0  0  0  0  0  0  0  0  0
   -2.9857    4.0660    6.4208 H   0  0  0  0  0  0  0  0  0  0  0  0
   -1.2994    3.3532    3.3875 H   0  0  0  0  0  0  0  0  0  0  0  0
  1  2  1  0
  1 31  1  0
  1 32  1  0
  1 33  1  0
  2  3  1  0
  3  4  2  0
  3  5  1  0
  5 21  1  0
  5  6  2  0
  6  7  1  0
  6 10  1  0
  7  8  1  0
  7  9  2  0
  8 34  1  0
  8 35  1  0
 11 10  1  1
 11 20  1  0
 11 22  1  0
 11 12  1  0
 12 13  1  0
 12 36  1  0
 12 37  1  0
 14 13  1  6
 13 38  1  0
 13 39  1  0
 14 17  1  0
 14 30  1  0
 14 15  1  0
 15 16  1  0
 15 40  1  0
 15 41  1  0
 17 16  1  1
 16 42  1  0
 16 43  1  0
 17 18  1  0
 17 22  1  0
 18 19  2  0
 18 20  1  0
 20 21  2  0
 22 23  1  0
 22 44  1  1
 23 24  1  0
 23 45  1  0
 23 46  1  0
 24 30  2  0
 24 25  1  0
 25 26  2  0
 25 47  1  0
 26 27  1  0
 26 48  1  0
 27 28  2  0
 27 49  1  0
 28 29  1  0
 28 30  1  0
 29 50  1  0
M  END
>  <i_m_ct_stereo_status>  (281) 
1

>  <s_m_source_file>  (281) 
/var/tmp/pbs.5076255.sched01/tmph7d3_0rd/117btfl79hs.sdf

>  <i_m_source_file_index>  (281) 
11

>  <i_lp_mmshare_version>  (281) 
48012

>  <i_f3d_flags>  (281) 
0

>  <s_epik_input>  (281) 
W0NIM11PQyg9TylDKD1DKE8xKUMoPU8pW05IMl0pTj1DKFtDQF0xMjMpQyg9TylbQ0BdNDVbQ0BdKFtDSDJdW0NIMl0yKShbQ0gyXVtDSDJdNCljNmMoW0NIMl1bQ0BASF0zNSlbY0hdW2NIXVtjSF1jNltPSF0=

>  <s_epik_cmdline>  (281) 
J2VwaWtfcHl0aG9uJywgJy1waHQnLCAnMi4wJywgJy1waCcsICc3LjAnLCAnLXRuJywgJzgnLCAnLW1hJywgJzIwMCcsICctaW1hZScsICc8aW5maWxlLm1hZT4nLCAnLW9tYWUnLCAnPG91dGZpbGUubWFlPic=

>  <r_lp_tautomer_probability>  (281) 
1

>  <r_epik_Ionization_Penalty>  (281) 
0.280136

>  <r_epik_Ionization_Penalty_Charging>  (281) 
0

>  <r_epik_Ionization_Penalty_Neutral>  (281) 
0.280136

>  <r_epik_State_Penalty>  (281) 
0.457286

>  <r_epik_Charging_Adjusted_Penalty>  (281) 
0.457286

>  <i_epik_Tot_Q>  (281) 
0

>  <i_epik_Tot_abs_Q>  (281) 
0

>  <s_epik_Chemistry_Notes>  (281) 
This compound has an ester and may undergo hydrolysis at high or low pH. This compound has an imine and may undergo hydrolysis.

>  <s_lp_Force_Field>  (281) 
OPLS3e

>  <r_lp_Energy>  (281) 
100.716

>  <b_lp_Chiralities_Consistent>  (281) 
1

>  <s_lp_Variant>  (281) 
96:0-1

>  <s_i_glide_gridfile>  (281) 
pfpi4k_grid

>  <i_i_glide_lignum>  (281) 
11

>  <i_i_glide_rotatable_bonds>  (281) 
4

>  <r_i_docking_score>  (281) 
-2.36141

>  <r_i_glide_ligand_efficiency>  (281) 
-0.0787135

>  <r_i_glide_ligand_efficiency_sa>  (281) 
-0.244581

>  <r_i_glide_ligand_efficiency_ln>  (281) 
-0.536537

>  <r_i_glide_gscore>  (281) 
-2.36141

>  <r_i_glide_lipo>  (281) 
-0.125312

>  <r_i_glide_hbond>  (281) 
0

>  <r_i_glide_metal>  (281) 
-0

>  <r_i_glide_rewards>  (281) 
-0.624518

>  <r_i_glide_evdw>  (281) 
-26.105

>  <r_i_glide_ecoul>  (281) 
-2.62794

>  <r_i_glide_erotb>  (281) 
0.117996

>  <r_i_glide_esite>  (281) 
-0.0301327

>  <r_i_glide_emodel>  (281) 
-31.9637

>  <r_i_glide_energy>  (281) 
-28.7329

>  <r_i_glide_einternal>  (281) 
1.58124

>  <r_i_glide_intrahb_reward>  (281) 
-0

>  <i_i_glide_confnum>  (281) 
3

>  <i_i_glide_posenum>  (281) 
2

>  <r_i_glide_eff_state_penalty>  (281) 
0

>  <ligand_id>  (281) 
96

>  <original_smiles>  (281) 
COC(=O)C1=C(C(N)=O)OC23CCC45CCC4(C(=O)C2=N1)C3Cc1cccc(O)c15

>  <smiles>  (281) 
[H]Oc1c([H])c([H])c([H])c2c1C13C([H])([H])C([H])([H])C45OC(C(=O)N([H])[H])=C(C(=O)OC([H])([H])[H])N=C4C(=O)C1(C([H])([H])C3([H])[H])C5([H])C2([H])[H]

$$$$
97:0:0
     RDKit          3D

 32 33  0  0  1  0  0  0  0  0999 V2000
    3.8119    0.7061   -4.4300 C   0  0  0  0  0  0  0  0  0  0  0  0
    3.7691   -0.5937   -3.6846 C   0  0  0  0  0  0  0  0  0  0  0  0
    4.0636   -0.8518   -2.3198 C   0  0  0  0  0  0  0  0  0  0  0  0
    3.8228   -2.1885   -2.1712 C   0  0  0  0  0  0  0  0  0  0  0  0
    3.9025   -3.1281   -1.0011 C   0  0  1  0  0  0  0  0  0  0  0  0
    2.5249   -3.7379   -0.6821 C   0  0  0  0  0  0  0  0  0  0  0  0
    4.7197   -4.2380   -1.3020 O   0  0  0  0  0  0  0  0  0  0  0  0
    4.5376   -2.4647    0.2439 C   0  0  0  0  0  0  0  0  0  0  0  0
    3.7116   -1.3959    0.7935 N   0  0  0  0  0  0  0  0  0  0  0  0
    4.0680   -0.5982    1.8094 C   0  0  0  0  0  0  0  0  0  0  0  0
    5.1654   -0.6721    2.3657 O   0  0  0  0  0  0  0  0  0  0  0  0
    3.0434    0.3873    2.2248 C   0  0  0  0  0  0  0  0  0  0  0  0
    1.8009    0.6559    1.7137 C   0  0  0  0  0  0  0  0  0  0  0  0
    1.2496    1.7124    2.4880 C   0  0  0  0  0  0  0  0  0  0  0  0
    2.1976    2.0201    3.4223 C   0  0  0  0  0  0  0  0  0  0  0  0
    3.2910    1.2167    3.2845 O   0  0  0  0  0  0  0  0  0  0  0  0
    3.4521   -2.7190   -3.3619 O   0  0  0  0  0  0  0  0  0  0  0  0
    3.4345   -1.6992   -4.3181 N   0  0  0  0  0  0  0  0  0  0  0  0
    4.1245    1.5182   -3.7770 H   0  0  0  0  0  0  0  0  0  0  0  0
    2.8341    0.9595   -4.8466 H   0  0  0  0  0  0  0  0  0  0  0  0
    4.5249    0.6706   -5.2485 H   0  0  0  0  0  0  0  0  0  0  0  0
    4.3752   -0.1559   -1.5559 H   0  0  0  0  0  0  0  0  0  0  0  0
    1.8146   -2.9726   -0.3833 H   0  0  0  0  0  0  0  0  0  0  0  0
    2.5892   -4.4634    0.1314 H   0  0  0  0  0  0  0  0  0  0  0  0
    2.0916   -4.2501   -1.5469 H   0  0  0  0  0  0  0  0  0  0  0  0
    4.2463   -4.7905   -1.9109 H   0  0  0  0  0  0  0  0  0  0  0  0
    4.6778   -3.2103    1.0268 H   0  0  0  0  0  0  0  0  0  0  0  0
    5.5313   -2.0831   -0.0036 H   0  0  0  0  0  0  0  0  0  0  0  0
    2.8068   -1.2374    0.3667 H   0  0  0  0  0  0  0  0  0  0  0  0
    1.3491    0.1490    0.8839 H   0  0  0  0  0  0  0  0  0  0  0  0
    0.2838    2.1929    2.3682 H   0  0  0  0  0  0  0  0  0  0  0  0
    2.2531    2.7454    4.2173 H   0  0  0  0  0  0  0  0  0  0  0  0
  1  2  1  0
  1 19  1  0
  1 20  1  0
  1 21  1  0
  2 18  2  0
  2  3  1  0
  3  4  2  0
  3 22  1  0
  4  5  1  0
  4 17  1  0
  5  6  1  0
  5  7  1  6
  5  8  1  0
  6 23  1  0
  6 24  1  0
  6 25  1  0
  7 26  1  0
  8  9  1  0
  8 27  1  0
  8 28  1  0
  9 10  1  0
  9 29  1  0
 10 11  2  0
 10 12  1  0
 12 16  1  0
 12 13  2  0
 13 14  1  0
 13 30  1  0
 14 15  2  0
 14 31  1  0
 15 16  1  0
 15 32  1  0
 17 18  1  0
M  END
>  <i_m_ct_stereo_status>  (282) 
1

>  <s_m_source_file>  (282) 
/var/tmp/pbs.5076255.sched01/tmph7d3_0rd/117btfl79hs.sdf

>  <i_m_source_file_index>  (282) 
13

>  <i_lp_mmshare_version>  (282) 
48012

>  <i_f3d_flags>  (282) 
0

>  <s_epik_input>  (282) 
W0NIM11jMVtjSF1jKG9uMSlbQ0BAXShbQ0gzXSkoW09IXSlbQ0gyXVtOSF1DKD1PKWMyW2NIXVtjSF1bY0hdbzI=

>  <s_epik_cmdline>  (282) 
J2VwaWtfcHl0aG9uJywgJy1waHQnLCAnMi4wJywgJy1waCcsICc3LjAnLCAnLXRuJywgJzgnLCAnLW1hJywgJzIwMCcsICctaW1hZScsICc8aW5maWxlLm1hZT4nLCAnLW9tYWUnLCAnPG91dGZpbGUubWFlPic=

>  <r_lp_tautomer_probability>  (282) 
1

>  <r_epik_Ionization_Penalty>  (282) 
6.68588e-06

>  <r_epik_Ionization_Penalty_Charging>  (282) 
0

>  <r_epik_Ionization_Penalty_Neutral>  (282) 
6.68588e-06

>  <r_epik_State_Penalty>  (282) 
-0

>  <r_epik_Charging_Adjusted_Penalty>  (282) 
0

>  <i_epik_Tot_Q>  (282) 
0

>  <i_epik_Tot_abs_Q>  (282) 
0

>  <s_lp_Force_Field>  (282) 
OPLS3e

>  <r_lp_Energy>  (282) 
3.47847

>  <b_lp_Chiralities_Consistent>  (282) 
1

>  <s_lp_Variant>  (282) 
97:0-1

>  <s_i_glide_gridfile>  (282) 
pfpi4k_grid

>  <i_i_glide_lignum>  (282) 
13

>  <i_i_glide_rotatable_bonds>  (282) 
6

>  <r_i_docking_score>  (282) 
-3.47013

>  <r_i_glide_ligand_efficiency>  (282) 
-0.192785

>  <r_i_glide_ligand_efficiency_sa>  (282) 
-0.50524

>  <r_i_glide_ligand_efficiency_ln>  (282) 
-0.891979

>  <r_i_glide_gscore>  (282) 
-3.47013

>  <r_i_glide_lipo>  (282) 
-0.352943

>  <r_i_glide_hbond>  (282) 
-0.013204

>  <r_i_glide_metal>  (282) 
-0

>  <r_i_glide_rewards>  (282) 
-1.78039

>  <r_i_glide_evdw>  (282) 
-25.8804

>  <r_i_glide_ecoul>  (282) 
-7.19041

>  <r_i_glide_erotb>  (282) 
1.11808

>  <r_i_glide_esite>  (282) 
-0.0690946

>  <r_i_glide_emodel>  (282) 
-39.4668

>  <r_i_glide_energy>  (282) 
-33.0708

>  <r_i_glide_einternal>  (282) 
1.9575

>  <r_i_glide_intrahb_reward>  (282) 
-0

>  <i_i_glide_confnum>  (282) 
3

>  <i_i_glide_posenum>  (282) 
1

>  <r_i_glide_eff_state_penalty>  (282) 
0

>  <ligand_id>  (282) 
97

>  <original_smiles>  (282) 
Cc1cc(C(C)(O)CNC(=O)c2ccco2)on1

>  <smiles>  (282) 
[H]OC(c1onc(C([H])([H])[H])c1[H])(C([H])([H])[H])C([H])([H])N([H])C(=O)c1oc([H])c([H])c1[H]

$$$$
97:0:1
     RDKit          3D

 32 33  0  0  1  0  0  0  0  0999 V2000
    3.8761    0.7836   -4.3714 C   0  0  0  0  0  0  0  0  0  0  0  0
    3.8114   -0.5330   -3.6579 C   0  0  0  0  0  0  0  0  0  0  0  0
    4.1227   -0.8346   -2.3078 C   0  0  0  0  0  0  0  0  0  0  0  0
    3.8470   -2.1686   -2.1866 C   0  0  0  0  0  0  0  0  0  0  0  0
    3.9050   -3.1478   -1.0463 C   0  0  1  0  0  0  0  0  0  0  0  0
    2.5262   -3.7859   -0.7937 C   0  0  0  0  0  0  0  0  0  0  0  0
    4.7449   -4.2359   -1.3656 O   0  0  0  0  0  0  0  0  0  0  0  0
    4.5038   -2.5244    0.2442 C   0  0  0  0  0  0  0  0  0  0  0  0
    3.6907   -1.4548    0.8313 N   0  0  0  0  0  0  0  0  0  0  0  0
    2.6970   -1.6212    1.7196 C   0  0  0  0  0  0  0  0  0  0  0  0
    2.3680   -2.7149    2.1768 O   0  0  0  0  0  0  0  0  0  0  0  0
    1.9843   -0.3863    2.1056 C   0  0  0  0  0  0  0  0  0  0  0  0
    0.8725   -0.2082    2.8855 C   0  0  0  0  0  0  0  0  0  0  0  0
    0.6152    1.1923    2.9181 C   0  0  0  0  0  0  0  0  0  0  0  0
    1.5843    1.7667    2.1503 C   0  0  0  0  0  0  0  0  0  0  0  0
    2.4329    0.8229    1.6563 O   0  0  0  0  0  0  0  0  0  0  0  0
    3.4584   -2.6615   -3.3906 O   0  0  0  0  0  0  0  0  0  0  0  0
    3.4510   -1.6135   -4.3194 N   0  0  0  0  0  0  0  0  0  0  0  0
    4.2120    1.5720   -3.7015 H   0  0  0  0  0  0  0  0  0  0  0  0
    2.9032    1.0705   -4.7798 H   0  0  0  0  0  0  0  0  0  0  0  0
    4.5873    0.7502   -5.1961 H   0  0  0  0  0  0  0  0  0  0  0  0
    4.4580   -0.1667   -1.5346 H   0  0  0  0  0  0  0  0  0  0  0  0
    1.7928   -3.0381   -0.5052 H   0  0  0  0  0  0  0  0  0  0  0  0
    2.5794   -4.5274    0.0059 H   0  0  0  0  0  0  0  0  0  0  0  0
    2.1176   -4.2577   -1.6849 H   0  0  0  0  0  0  0  0  0  0  0  0
    4.2640   -4.8093   -1.9503 H   0  0  0  0  0  0  0  0  0  0  0  0
    4.6728   -3.3012    0.9920 H   0  0  0  0  0  0  0  0  0  0  0  0
    5.4898   -2.1106    0.0198 H   0  0  0  0  0  0  0  0  0  0  0  0
    3.8560   -0.5128    0.5125 H   0  0  0  0  0  0  0  0  0  0  0  0
    0.3207   -1.0053    3.3614 H   0  0  0  0  0  0  0  0  0  0  0  0
   -0.1781    1.7202    3.4284 H   0  0  0  0  0  0  0  0  0  0  0  0
    1.8033    2.7865    1.8624 H   0  0  0  0  0  0  0  0  0  0  0  0
  1  2  1  0
  1 19  1  0
  1 20  1  0
  1 21  1  0
  2 18  2  0
  2  3  1  0
  3  4  2  0
  3 22  1  0
  4  5  1  0
  4 17  1  0
  5  6  1  0
  5  7  1  6
  5  8  1  0
  6 23  1  0
  6 24  1  0
  6 25  1  0
  7 26  1  0
  8  9  1  0
  8 27  1  0
  8 28  1  0
  9 10  1  0
  9 29  1  0
 10 11  2  0
 10 12  1  0
 12 16  1  0
 12 13  2  0
 13 14  1  0
 13 30  1  0
 14 15  2  0
 14 31  1  0
 15 16  1  0
 15 32  1  0
 17 18  1  0
M  END
>  <i_m_ct_stereo_status>  (283) 
1

>  <s_m_source_file>  (283) 
/var/tmp/pbs.5076255.sched01/tmph7d3_0rd/117btfl79hs.sdf

>  <i_m_source_file_index>  (283) 
13

>  <i_lp_mmshare_version>  (283) 
48012

>  <i_f3d_flags>  (283) 
0

>  <s_epik_input>  (283) 
W0NIM11jMVtjSF1jKG9uMSlbQ0BAXShbQ0gzXSkoW09IXSlbQ0gyXVtOSF1DKD1PKWMyW2NIXVtjSF1bY0hdbzI=

>  <s_epik_cmdline>  (283) 
J2VwaWtfcHl0aG9uJywgJy1waHQnLCAnMi4wJywgJy1waCcsICc3LjAnLCAnLXRuJywgJzgnLCAnLW1hJywgJzIwMCcsICctaW1hZScsICc8aW5maWxlLm1hZT4nLCAnLW9tYWUnLCAnPG91dGZpbGUubWFlPic=

>  <r_lp_tautomer_probability>  (283) 
1

>  <r_epik_Ionization_Penalty>  (283) 
6.68588e-06

>  <r_epik_Ionization_Penalty_Charging>  (283) 
0

>  <r_epik_Ionization_Penalty_Neutral>  (283) 
6.68588e-06

>  <r_epik_State_Penalty>  (283) 
-0

>  <r_epik_Charging_Adjusted_Penalty>  (283) 
0

>  <i_epik_Tot_Q>  (283) 
0

>  <i_epik_Tot_abs_Q>  (283) 
0

>  <s_lp_Force_Field>  (283) 
OPLS3e

>  <r_lp_Energy>  (283) 
3.47847

>  <b_lp_Chiralities_Consistent>  (283) 
1

>  <s_lp_Variant>  (283) 
97:0-1

>  <s_i_glide_gridfile>  (283) 
pfpi4k_grid

>  <i_i_glide_lignum>  (283) 
13

>  <i_i_glide_rotatable_bonds>  (283) 
6

>  <r_i_docking_score>  (283) 
-3.04055

>  <r_i_glide_ligand_efficiency>  (283) 
-0.168919

>  <r_i_glide_ligand_efficiency_sa>  (283) 
-0.442694

>  <r_i_glide_ligand_efficiency_ln>  (283) 
-0.781557

>  <r_i_glide_gscore>  (283) 
-3.04055

>  <r_i_glide_lipo>  (283) 
-0.276308

>  <r_i_glide_hbond>  (283) 
0

>  <r_i_glide_metal>  (283) 
-0

>  <r_i_glide_rewards>  (283) 
-1.70284

>  <r_i_glide_evdw>  (283) 
-26.0418

>  <r_i_glide_ecoul>  (283) 
-5.14404

>  <r_i_glide_erotb>  (283) 
1.11808

>  <r_i_glide_esite>  (283) 
-0.105781

>  <r_i_glide_emodel>  (283) 
-36.314

>  <r_i_glide_energy>  (283) 
-31.1859

>  <r_i_glide_einternal>  (283) 
2.46005

>  <r_i_glide_intrahb_reward>  (283) 
-0

>  <i_i_glide_confnum>  (283) 
3

>  <i_i_glide_posenum>  (283) 
12

>  <r_i_glide_eff_state_penalty>  (283) 
0

>  <ligand_id>  (283) 
97

>  <original_smiles>  (283) 
Cc1cc(C(C)(O)CNC(=O)c2ccco2)on1

>  <smiles>  (283) 
[H]OC(c1onc(C([H])([H])[H])c1[H])(C([H])([H])[H])C([H])([H])N([H])C(=O)c1oc([H])c([H])c1[H]

$$$$
97:0:2
     RDKit          3D

 32 33  0  0  1  0  0  0  0  0999 V2000
    2.4000   -3.0532   -3.8883 C   0  0  0  0  0  0  0  0  0  0  0  0
    3.2463   -2.4067   -2.8390 C   0  0  0  0  0  0  0  0  0  0  0  0
    3.3759   -2.7586   -1.4671 C   0  0  0  0  0  0  0  0  0  0  0  0
    4.2672   -1.8454   -0.9774 C   0  0  0  0  0  0  0  0  0  0  0  0
    4.8895   -1.6261    0.3741 C   0  0  1  0  0  0  0  0  0  0  0  0
    4.5415   -2.7637    1.3560 C   0  0  0  0  0  0  0  0  0  0  0  0
    6.2992   -1.6159    0.2607 O   0  0  0  0  0  0  0  0  0  0  0  0
    4.5057   -0.2521    0.9713 C   0  0  0  0  0  0  0  0  0  0  0  0
    3.0987   -0.1466    1.3554 N   0  0  0  0  0  0  0  0  0  0  0  0
    2.6404   -0.1024    2.6155 C   0  0  0  0  0  0  0  0  0  0  0  0
    3.3379   -0.3561    3.6001 O   0  0  0  0  0  0  0  0  0  0  0  0
    1.2180    0.2780    2.7493 C   0  0  0  0  0  0  0  0  0  0  0  0
    0.3904    0.9385    1.8809 C   0  0  0  0  0  0  0  0  0  0  0  0
   -0.8669    1.0781    2.5296 C   0  0  0  0  0  0  0  0  0  0  0  0
   -0.7087    0.5167    3.7645 C   0  0  0  0  0  0  0  0  0  0  0  0
    0.5562    0.0310    3.9180 O   0  0  0  0  0  0  0  0  0  0  0  0
    4.6559   -1.0087   -1.9755 O   0  0  0  0  0  0  0  0  0  0  0  0
    4.0102   -1.3814   -3.1590 N   0  0  0  0  0  0  0  0  0  0  0  0
    1.8466   -3.8861   -3.4605 H   0  0  0  0  0  0  0  0  0  0  0  0
    3.0103   -3.4415   -4.7050 H   0  0  0  0  0  0  0  0  0  0  0  0
    1.6717   -2.3575   -4.3095 H   0  0  0  0  0  0  0  0  0  0  0  0
    2.8924   -3.5552   -0.9256 H   0  0  0  0  0  0  0  0  0  0  0  0
    3.4662   -2.8225    1.5336 H   0  0  0  0  0  0  0  0  0  0  0  0
    5.0180   -2.6159    2.3260 H   0  0  0  0  0  0  0  0  0  0  0  0
    4.8542   -3.7357    0.9714 H   0  0  0  0  0  0  0  0  0  0  0  0
    6.6611   -1.5464    1.1298 H   0  0  0  0  0  0  0  0  0  0  0  0
    5.1444   -0.0213    1.8289 H   0  0  0  0  0  0  0  0  0  0  0  0
    4.6905    0.5370    0.2471 H   0  0  0  0  0  0  0  0  0  0  0  0
    2.4226   -0.0148    0.6122 H   0  0  0  0  0  0  0  0  0  0  0  0
    0.6541    1.2701    0.8851 H   0  0  0  0  0  0  0  0  0  0  0  0
   -1.7702    1.5254    2.1408 H   0  0  0  0  0  0  0  0  0  0  0  0
   -1.3667    0.3744    4.6059 H   0  0  0  0  0  0  0  0  0  0  0  0
  1  2  1  0
  1 19  1  0
  1 20  1  0
  1 21  1  0
  2 18  2  0
  2  3  1  0
  3  4  2  0
  3 22  1  0
  4  5  1  0
  4 17  1  0
  5  6  1  0
  5  7  1  6
  5  8  1  0
  6 23  1  0
  6 24  1  0
  6 25  1  0
  7 26  1  0
  8  9  1  0
  8 27  1  0
  8 28  1  0
  9 10  1  0
  9 29  1  0
 10 11  2  0
 10 12  1  0
 12 16  1  0
 12 13  2  0
 13 14  1  0
 13 30  1  0
 14 15  2  0
 14 31  1  0
 15 16  1  0
 15 32  1  0
 17 18  1  0
M  END
>  <i_m_ct_stereo_status>  (284) 
1

>  <s_m_source_file>  (284) 
/var/tmp/pbs.5076255.sched01/tmph7d3_0rd/117btfl79hs.sdf

>  <i_m_source_file_index>  (284) 
13

>  <i_lp_mmshare_version>  (284) 
48012

>  <i_f3d_flags>  (284) 
0

>  <s_epik_input>  (284) 
W0NIM11jMVtjSF1jKG9uMSlbQ0BAXShbQ0gzXSkoW09IXSlbQ0gyXVtOSF1DKD1PKWMyW2NIXVtjSF1bY0hdbzI=

>  <s_epik_cmdline>  (284) 
J2VwaWtfcHl0aG9uJywgJy1waHQnLCAnMi4wJywgJy1waCcsICc3LjAnLCAnLXRuJywgJzgnLCAnLW1hJywgJzIwMCcsICctaW1hZScsICc8aW5maWxlLm1hZT4nLCAnLW9tYWUnLCAnPG91dGZpbGUubWFlPic=

>  <r_lp_tautomer_probability>  (284) 
1

>  <r_epik_Ionization_Penalty>  (284) 
6.68588e-06

>  <r_epik_Ionization_Penalty_Charging>  (284) 
0

>  <r_epik_Ionization_Penalty_Neutral>  (284) 
6.68588e-06

>  <r_epik_State_Penalty>  (284) 
-0

>  <r_epik_Charging_Adjusted_Penalty>  (284) 
0

>  <i_epik_Tot_Q>  (284) 
0

>  <i_epik_Tot_abs_Q>  (284) 
0

>  <s_lp_Force_Field>  (284) 
OPLS3e

>  <r_lp_Energy>  (284) 
3.47847

>  <b_lp_Chiralities_Consistent>  (284) 
1

>  <s_lp_Variant>  (284) 
97:0-1

>  <s_i_glide_gridfile>  (284) 
pfpi4k_grid

>  <i_i_glide_lignum>  (284) 
13

>  <i_i_glide_rotatable_bonds>  (284) 
6

>  <r_i_docking_score>  (284) 
-2.8108

>  <r_i_glide_ligand_efficiency>  (284) 
-0.156156

>  <r_i_glide_ligand_efficiency_sa>  (284) 
-0.409243

>  <r_i_glide_ligand_efficiency_ln>  (284) 
-0.722502

>  <r_i_glide_gscore>  (284) 
-2.8108

>  <r_i_glide_lipo>  (284) 
-0.325815

>  <r_i_glide_hbond>  (284) 
-0.0123095

>  <r_i_glide_metal>  (284) 
-0

>  <r_i_glide_rewards>  (284) 
-1.70284

>  <r_i_glide_evdw>  (284) 
-25.7005

>  <r_i_glide_ecoul>  (284) 
-3.57469

>  <r_i_glide_erotb>  (284) 
1.11808

>  <r_i_glide_esite>  (284) 
-0.0666887

>  <r_i_glide_emodel>  (284) 
-34.0609

>  <r_i_glide_energy>  (284) 
-29.2752

>  <r_i_glide_einternal>  (284) 
2.04376

>  <r_i_glide_intrahb_reward>  (284) 
-0

>  <i_i_glide_confnum>  (284) 
3

>  <i_i_glide_posenum>  (284) 
19

>  <r_i_glide_eff_state_penalty>  (284) 
0

>  <ligand_id>  (284) 
97

>  <original_smiles>  (284) 
Cc1cc(C(C)(O)CNC(=O)c2ccco2)on1

>  <smiles>  (284) 
[H]OC(c1onc(C([H])([H])[H])c1[H])(C([H])([H])[H])C([H])([H])N([H])C(=O)c1oc([H])c([H])c1[H]

$$$$
98:0:0
     RDKit          3D

 66 71  0  0  1  0  0  0  0  0999 V2000
    2.9719  -11.0178    9.5299 C   0  0  0  0  0  0  0  0  0  0  0  0
    2.3516   -9.8039    9.1291 O   0  0  0  0  0  0  0  0  0  0  0  0
    3.1832   -9.0114    8.2945 C   0  0  0  0  0  0  0  0  0  0  0  0
    3.0771   -9.4369    6.8064 C   0  0  2  0  0  0  0  0  0  0  0  0
    4.4215   -9.1076    6.0656 C   0  0  0  0  0  0  0  0  0  0  0  0
    3.9814   -8.3165    4.8755 C   0  0  2  0  0  0  0  0  0  0  0  0
    4.5105   -7.9266    3.4531 C   0  0  0  0  0  0  0  0  0  0  0  0
    3.2437   -8.5854    2.7792 C   0  0  2  0  0  0  0  0  0  0  0  0
    3.4902   -9.1687    1.3562 C   0  0  0  0  0  0  0  0  0  0  0  0
    4.7403   -9.8234    1.2365 O   0  0  0  0  0  0  0  0  0  0  0  0
    1.7463   -8.0096    2.8662 C   0  0  2  0  0  0  0  0  0  0  0  0
    1.5241   -6.6270    3.5382 C   0  0  0  0  0  0  0  0  0  0  0  0
    0.7745   -6.6408    4.8971 C   0  0  0  0  0  0  0  0  0  0  0  0
    1.4875   -7.4050    6.0490 C   0  0  2  0  0  0  0  0  0  0  0  0
    0.5699   -7.2623    7.1268 O   0  0  0  0  0  0  0  0  0  0  0  0
    2.7145   -6.5458    6.2864 C   0  0  0  0  0  0  0  0  0  0  0  0
    2.5832   -5.3802    7.0568 C   0  0  0  0  0  0  0  0  0  0  0  0
    3.7096   -4.5416    7.0397 C   0  0  0  0  0  0  0  0  0  0  0  0
    4.8710   -4.8630    6.3098 C   0  0  0  0  0  0  0  0  0  0  0  0
    4.9981   -6.0368    5.5301 C   0  0  0  0  0  0  0  0  0  0  0  0
    3.8588   -6.8768    5.5029 C   0  0  0  0  0  0  0  0  0  0  0  0
    1.7109   -8.9791    6.0583 C   0  0  1  0  0  0  0  0  0  0  0  0
    1.3106   -9.7786    4.7393 C   0  0  1  0  0  0  0  0  0  0  0  0
    0.7520   -9.0853    3.4503 C   0  0  1  0  0  0  0  0  0  0  0  0
   -0.8116   -8.9455    3.2790 C   0  0  2  0  0  0  0  0  0  0  0  0
   -1.2900   -7.9685    2.1970 C   0  0  0  0  0  0  0  0  0  0  0  0
   -1.5447   -8.6532    4.4662 O   0  0  0  0  0  0  0  0  0  0  0  0
    2.4836  -10.4641    4.1994 N   0  0  2  0  0  0  0  0  0  0  0  0
    2.8381  -11.8239    4.7117 C   0  0  0  0  0  0  0  0  0  0  0  0
    3.5641   -9.5109    3.8802 C   0  0  2  0  0  0  0  0  0  0  0  0
    2.2680  -11.5951   10.1270 H   0  0  0  0  0  0  0  0  0  0  0  0
    3.8591  -10.8206   10.1300 H   0  0  0  0  0  0  0  0  0  0  0  0
    3.2866  -11.6417    8.6932 H   0  0  0  0  0  0  0  0  0  0  0  0
    2.9047   -7.9706    8.4276 H   0  0  0  0  0  0  0  0  0  0  0  0
    4.2198   -9.0730    8.6409 H   0  0  0  0  0  0  0  0  0  0  0  0
    3.0184  -10.5135    6.8592 H   0  0  0  0  0  0  0  0  0  0  0  0
    5.1649   -8.5759    6.6758 H   0  0  0  0  0  0  0  0  0  0  0  0
    4.9205  -10.0331    5.7931 H   0  0  0  0  0  0  0  0  0  0  0  0
    4.5730   -6.8637    3.1898 H   0  0  0  0  0  0  0  0  0  0  0  0
    5.4818   -8.3832    3.2063 H   0  0  0  0  0  0  0  0  0  0  0  0
    2.7126   -9.8910    1.1105 H   0  0  0  0  0  0  0  0  0  0  0  0
    3.4501   -8.3847    0.5933 H   0  0  0  0  0  0  0  0  0  0  0  0
    4.5950  -10.7358    0.9061 H   0  0  0  0  0  0  0  0  0  0  0  0
    1.4373   -7.8438    1.8199 H   0  0  0  0  0  0  0  0  0  0  0  0
    2.4370   -6.0292    3.5701 H   0  0  0  0  0  0  0  0  0  0  0  0
    0.8969   -6.0355    2.8835 H   0  0  0  0  0  0  0  0  0  0  0  0
    0.7101   -5.5950    5.2033 H   0  0  0  0  0  0  0  0  0  0  0  0
   -0.2755   -6.8623    4.8212 H   0  0  0  0  0  0  0  0  0  0  0  0
    0.3657   -6.3501    7.2155 H   0  0  0  0  0  0  0  0  0  0  0  0
    1.6736   -5.0822    7.5862 H   0  0  0  0  0  0  0  0  0  0  0  0
    3.6767   -3.6276    7.6004 H   0  0  0  0  0  0  0  0  0  0  0  0
    5.7035   -4.1944    6.3785 H   0  0  0  0  0  0  0  0  0  0  0  0
    5.9386   -6.2914    5.0277 H   0  0  0  0  0  0  0  0  0  0  0  0
    0.9565   -9.3918    6.7361 H   0  0  0  0  0  0  0  0  0  0  0  0
    0.5994  -10.5473    5.0122 H   0  0  0  0  0  0  0  0  0  0  0  0
    0.8549   -9.8538    2.6848 H   0  0  0  0  0  0  0  0  0  0  0  0
   -1.1791   -9.9335    2.9915 H   0  0  0  0  0  0  0  0  0  0  0  0
   -0.8721   -8.2238    1.2351 H   0  0  0  0  0  0  0  0  0  0  0  0
   -1.0168   -6.9511    2.4470 H   0  0  0  0  0  0  0  0  0  0  0  0
   -2.3733   -7.9797    2.1270 H   0  0  0  0  0  0  0  0  0  0  0  0
   -1.7949   -9.5507    4.8202 H   0  0  0  0  0  0  0  0  0  0  0  0
    3.6660  -11.8472    5.4145 H   0  0  0  0  0  0  0  0  0  0  0  0
    3.1369  -12.4430    3.8719 H   0  0  0  0  0  0  0  0  0  0  0  0
    1.9802  -12.3073    5.1810 H   0  0  0  0  0  0  0  0  0  0  0  0
    4.4175  -10.1675    3.6585 H   0  0  0  0  0  0  0  0  0  0  0  0
    2.1576  -10.7389    3.2851 H   0  0  0  0  0  0  0  0  0  0  0  0
  1  2  1  0
  1 31  1  0
  1 32  1  0
  1 33  1  0
  2  3  1  0
  3  4  1  0
  3 34  1  0
  3 35  1  0
  4 22  1  0
  4  5  1  0
  4 36  1  1
  5  6  1  0
  5 37  1  0
  5 38  1  0
  6 21  1  0
  6 30  1  0
  6  7  1  6
  7  8  1  0
  7 39  1  0
  7 40  1  0
  8 30  1  0
  8  9  1  6
  8 11  1  0
  9 10  1  0
  9 41  1  0
  9 42  1  0
 10 43  1  0
 11 24  1  0
 11 12  1  0
 11 44  1  6
 12 13  1  0
 12 45  1  0
 12 46  1  0
 13 14  1  0
 13 47  1  0
 13 48  1  0
 14 15  1  1
 14 16  1  0
 14 22  1  0
 15 49  1  0
 16 21  2  0
 16 17  1  0
 17 18  2  0
 17 50  1  0
 18 19  1  0
 18 51  1  0
 19 20  2  0
 19 52  1  0
 20 21  1  0
 20 53  1  0
 22 23  1  0
 22 54  1  1
 23 24  1  0
 23 28  1  0
 23 55  1  1
 24 25  1  0
 24 56  1  6
 25 26  1  0
 25 27  1  0
 25 57  1  6
 26 58  1  0
 26 59  1  0
 26 60  1  0
 27 61  1  0
 28 29  1  0
 28 30  1  0
 28 66  1  6
 29 62  1  0
 29 63  1  0
 29 64  1  0
 30 65  1  6
M  CHG  1  28   1
M  END
>  <i_m_ct_stereo_status>  (285) 
1

>  <s_m_source_file>  (285) 
/var/tmp/pbs.5076255.sched01/tmph7d3_0rd/117btfl79hs.sdf

>  <i_m_source_file_index>  (285) 
14

>  <i_lp_mmshare_version>  (285) 
48012

>  <i_f3d_flags>  (285) 
0

>  <s_epik_input>  (285) 
W2NIXTFbY0hdW2NIXVtjSF1jKGMxW0NAXTIzNClbQ0BdNShbT0hdKVtDQEhdKFtDQEBIXShbQ0gyXTIpW0NIMl1PW0NIM10pW0NASF02W0NAQEhdKFtDQEhdKFtDSDNdKVtPSF0pW0NAQEhdKFtDSDJdW0NIMl01KVtDQF0oW0NIMl0zKShbQ0gyXVtPSF0pW0NAQEhdNE42W0NIM10=

>  <s_epik_cmdline>  (285) 
J2VwaWtfcHl0aG9uJywgJy1waHQnLCAnMi4wJywgJy1waCcsICc3LjAnLCAnLXRuJywgJzgnLCAnLW1hJywgJzIwMCcsICctaW1hZScsICc8aW5maWxlLm1hZT4nLCAnLW9tYWUnLCAnPG91dGZpbGUubWFlPic=

>  <r_epik_Ionization_Penalty>  (285) 
0.00933367

>  <r_epik_Ionization_Penalty_Charging>  (285) 
0.00933347

>  <r_epik_Ionization_Penalty_Neutral>  (285) 
1.94201e-07

>  <r_epik_State_Penalty>  (285) 
0.00708237

>  <r_epik_Charging_Adjusted_Penalty>  (285) 
0.0164158

>  <i_epik_Tot_Q>  (285) 
1

>  <i_epik_Tot_abs_Q>  (285) 
1

>  <s_lp_Force_Field>  (285) 
OPLS3e

>  <r_lp_Energy>  (285) 
200.272

>  <b_lp_Chiralities_Consistent>  (285) 
1

>  <s_lp_Variant>  (285) 
98:0-1

>  <s_i_glide_gridfile>  (285) 
pfpi4k_grid

>  <i_i_glide_lignum>  (285) 
14

>  <i_i_glide_rotatable_bonds>  (285) 
7

>  <r_i_docking_score>  (285) 
-3.58756

>  <r_i_glide_ligand_efficiency>  (285) 
-0.119585

>  <r_i_glide_ligand_efficiency_sa>  (285) 
-0.371579

>  <r_i_glide_ligand_efficiency_ln>  (285) 
-0.815132

>  <r_i_glide_gscore>  (285) 
-3.58756

>  <r_i_glide_lipo>  (285) 
0

>  <r_i_glide_hbond>  (285) 
-0.304

>  <r_i_glide_metal>  (285) 
-0

>  <r_i_glide_rewards>  (285) 
-0.582562

>  <r_i_glide_evdw>  (285) 
-14.26

>  <r_i_glide_ecoul>  (285) 
-15.4518

>  <r_i_glide_erotb>  (285) 
0.344563

>  <r_i_glide_esite>  (285) 
-0.0147835

>  <r_i_glide_emodel>  (285) 
-32.8356

>  <r_i_glide_energy>  (285) 
-29.7118

>  <r_i_glide_einternal>  (285) 
11.3176

>  <r_i_glide_intrahb_reward>  (285) 
-0

>  <i_i_glide_confnum>  (285) 
3

>  <i_i_glide_posenum>  (285) 
12

>  <r_i_glide_eff_state_penalty>  (285) 
0

>  <ligand_id>  (285) 
98

>  <original_smiles>  (285) 
COCC1CC23CC4(CO)C5CCC(O)(c6ccccc62)C1C(C5C(C)O)N(C)C34

>  <smiles>  (285) 
[H]OC([H])([H])C12C([H])([H])C34c5c([H])c([H])c([H])c([H])c5C5(O[H])C([H])([H])C([H])([H])C1([H])C([H])(C([H])(O[H])C([H])([H])[H])C([H])(C5([H])C([H])(C([H])([H])OC([H])([H])[H])C3([H])[H])[N+]([H])(C([H])([H])[H])C42[H]

$$$$
98:0:1
     RDKit          3D

 66 71  0  0  1  0  0  0  0  0999 V2000
    5.8112  -12.2675    3.8185 C   0  0  0  0  0  0  0  0  0  0  0  0
    5.9817  -10.8704    4.0291 O   0  0  0  0  0  0  0  0  0  0  0  0
    5.2681  -10.0386    3.1181 C   0  0  0  0  0  0  0  0  0  0  0  0
    3.7464  -10.0841    3.3840 C   0  0  2  0  0  0  0  0  0  0  0  0
    2.9534   -9.4714    2.1752 C   0  0  0  0  0  0  0  0  0  0  0  0
    2.0297   -8.4988    2.8309 C   0  0  2  0  0  0  0  0  0  0  0  0
    0.6812   -7.7576    2.5315 C   0  0  0  0  0  0  0  0  0  0  0  0
    0.0530   -8.3430    3.8610 C   0  0  2  0  0  0  0  0  0  0  0  0
   -1.4638   -8.5994    3.7964 C   0  0  0  0  0  0  0  0  0  0  0  0
   -2.1592   -7.4496    3.3826 O   0  0  0  0  0  0  0  0  0  0  0  0
    0.4632   -7.9485    5.3591 C   0  0  2  0  0  0  0  0  0  0  0  0
    1.4701   -6.7891    5.5647 C   0  0  0  0  0  0  0  0  0  0  0  0
    2.8622   -7.2104    6.1182 C   0  0  0  0  0  0  0  0  0  0  0  0
    3.7153   -8.1118    5.1993 C   0  0  2  0  0  0  0  0  0  0  0  0
    4.9217   -8.2680    5.9465 O   0  0  0  0  0  0  0  0  0  0  0  0
    3.9621   -7.2129    4.0017 C   0  0  0  0  0  0  0  0  0  0  0  0
    5.0013   -6.2630    4.0897 C   0  0  0  0  0  0  0  0  0  0  0  0
    5.0482   -5.3538    3.0183 C   0  0  0  0  0  0  0  0  0  0  0  0
    4.1308   -5.4005    1.9575 C   0  0  0  0  0  0  0  0  0  0  0  0
    3.0888   -6.3525    1.8775 C   0  0  0  0  0  0  0  0  0  0  0  0
    2.9973   -7.2531    2.9674 C   0  0  0  0  0  0  0  0  0  0  0  0
    3.3099   -9.6085    4.8704 C   0  0  1  0  0  0  0  0  0  0  0  0
    1.8953  -10.1226    5.3988 C   0  0  1  0  0  0  0  0  0  0  0  0
    0.8863   -9.2194    6.1938 C   0  0  1  0  0  0  0  0  0  0  0  0
    0.9795   -9.2018    7.7630 C   0  0  2  0  0  0  0  0  0  0  0  0
    0.4470   -7.9298    8.4630 C   0  0  0  0  0  0  0  0  0  0  0  0
    2.2601   -9.5332    8.2645 O   0  0  0  0  0  0  0  0  0  0  0  0
    1.0595  -10.5670    4.3018 N   0  0  2  0  0  0  0  0  0  0  0  0
    1.2006  -11.9596    3.8066 C   0  0  0  0  0  0  0  0  0  0  0  0
    0.8570   -9.4785    3.3266 C   0  0  2  0  0  0  0  0  0  0  0  0
    6.4642  -12.8044    4.5056 H   0  0  0  0  0  0  0  0  0  0  0  0
    6.0784  -12.5453    2.7975 H   0  0  0  0  0  0  0  0  0  0  0  0
    4.7965  -12.6032    4.0197 H   0  0  0  0  0  0  0  0  0  0  0  0
    5.6543   -9.0208    3.2068 H   0  0  0  0  0  0  0  0  0  0  0  0
    5.4807  -10.3313    2.0878 H   0  0  0  0  0  0  0  0  0  0  0  0
    3.5280  -11.1314    3.3251 H   0  0  0  0  0  0  0  0  0  0  0  0
    3.5875   -9.0406    1.3976 H   0  0  0  0  0  0  0  0  0  0  0  0
    2.4131  -10.2712    1.6738 H   0  0  0  0  0  0  0  0  0  0  0  0
    0.6773   -6.6670    2.5644 H   0  0  0  0  0  0  0  0  0  0  0  0
    0.1818   -8.0835    1.6034 H   0  0  0  0  0  0  0  0  0  0  0  0
   -1.7126   -9.3924    3.0833 H   0  0  0  0  0  0  0  0  0  0  0  0
   -1.8723   -8.9218    4.7546 H   0  0  0  0  0  0  0  0  0  0  0  0
   -3.0655   -7.6823    3.2908 H   0  0  0  0  0  0  0  0  0  0  0  0
   -0.4493   -7.5691    5.8190 H   0  0  0  0  0  0  0  0  0  0  0  0
    1.5488   -6.1528    4.6834 H   0  0  0  0  0  0  0  0  0  0  0  0
    1.0379   -6.1074    6.2952 H   0  0  0  0  0  0  0  0  0  0  0  0
    3.4112   -6.2769    6.2612 H   0  0  0  0  0  0  0  0  0  0  0  0
    2.8493   -7.5779    7.1342 H   0  0  0  0  0  0  0  0  0  0  0  0
    4.7383   -8.8048    6.7012 H   0  0  0  0  0  0  0  0  0  0  0  0
    5.6849   -6.1924    4.9169 H   0  0  0  0  0  0  0  0  0  0  0  0
    5.8102   -4.5968    3.0240 H   0  0  0  0  0  0  0  0  0  0  0  0
    4.2456   -4.6926    1.1548 H   0  0  0  0  0  0  0  0  0  0  0  0
    2.4414   -6.4086    1.0161 H   0  0  0  0  0  0  0  0  0  0  0  0
    3.9531  -10.2319    5.4926 H   0  0  0  0  0  0  0  0  0  0  0  0
    2.0829  -10.9965    6.0247 H   0  0  0  0  0  0  0  0  0  0  0  0
   -0.0471   -9.7865    6.1474 H   0  0  0  0  0  0  0  0  0  0  0  0
    0.3628  -10.0355    8.1191 H   0  0  0  0  0  0  0  0  0  0  0  0
   -0.5766   -7.7254    8.1627 H   0  0  0  0  0  0  0  0  0  0  0  0
    1.0392   -7.0435    8.2452 H   0  0  0  0  0  0  0  0  0  0  0  0
    0.4635   -8.0430    9.5512 H   0  0  0  0  0  0  0  0  0  0  0  0
    2.4146  -10.4525    8.0878 H   0  0  0  0  0  0  0  0  0  0  0  0
    1.7630  -12.0764    2.8817 H   0  0  0  0  0  0  0  0  0  0  0  0
    0.2123  -12.3680    3.6078 H   0  0  0  0  0  0  0  0  0  0  0  0
    1.6613  -12.5923    4.5749 H   0  0  0  0  0  0  0  0  0  0  0  0
    0.3544   -9.9840    2.4911 H   0  0  0  0  0  0  0  0  0  0  0  0
    0.1554  -10.6494    4.7439 H   0  0  0  0  0  0  0  0  0  0  0  0
  1  2  1  0
  1 31  1  0
  1 32  1  0
  1 33  1  0
  2  3  1  0
  3  4  1  0
  3 34  1  0
  3 35  1  0
  4 22  1  0
  4  5  1  0
  4 36  1  1
  5  6  1  0
  5 37  1  0
  5 38  1  0
  6 21  1  0
  6 30  1  0
  6  7  1  6
  7  8  1  0
  7 39  1  0
  7 40  1  0
  8 30  1  0
  8  9  1  6
  8 11  1  0
  9 10  1  0
  9 41  1  0
  9 42  1  0
 10 43  1  0
 11 24  1  0
 11 12  1  0
 11 44  1  1
 12 13  1  0
 12 45  1  0
 12 46  1  0
 13 14  1  0
 13 47  1  0
 13 48  1  0
 14 15  1  1
 14 16  1  0
 14 22  1  0
 15 49  1  0
 16 21  2  0
 16 17  1  0
 17 18  2  0
 17 50  1  0
 18 19  1  0
 18 51  1  0
 19 20  2  0
 19 52  1  0
 20 21  1  0
 20 53  1  0
 22 23  1  0
 22 54  1  1
 23 24  1  0
 23 28  1  0
 23 55  1  1
 24 25  1  0
 24 56  1  1
 25 26  1  0
 25 27  1  0
 25 57  1  1
 26 58  1  0
 26 59  1  0
 26 60  1  0
 27 61  1  0
 28 29  1  0
 28 30  1  0
 28 66  1  1
 29 62  1  0
 29 63  1  0
 29 64  1  0
 30 65  1  6
M  CHG  1  28   1
M  END
>  <i_m_ct_stereo_status>  (286) 
1

>  <s_m_source_file>  (286) 
/var/tmp/pbs.5076255.sched01/tmph7d3_0rd/117btfl79hs.sdf

>  <i_m_source_file_index>  (286) 
14

>  <i_lp_mmshare_version>  (286) 
48012

>  <i_f3d_flags>  (286) 
0

>  <s_epik_input>  (286) 
W2NIXTFbY0hdW2NIXVtjSF1jKGMxW0NAXTIzNClbQ0BdNShbT0hdKVtDQEhdKFtDQEBIXShbQ0gyXTIpW0NIMl1PW0NIM10pW0NASF02W0NAQEhdKFtDQEhdKFtDSDNdKVtPSF0pW0NAQEhdKFtDSDJdW0NIMl01KVtDQF0oW0NIMl0zKShbQ0gyXVtPSF0pW0NAQEhdNE42W0NIM10=

>  <s_epik_cmdline>  (286) 
J2VwaWtfcHl0aG9uJywgJy1waHQnLCAnMi4wJywgJy1waCcsICc3LjAnLCAnLXRuJywgJzgnLCAnLW1hJywgJzIwMCcsICctaW1hZScsICc8aW5maWxlLm1hZT4nLCAnLW9tYWUnLCAnPG91dGZpbGUubWFlPic=

>  <r_epik_Ionization_Penalty>  (286) 
0.00933367

>  <r_epik_Ionization_Penalty_Charging>  (286) 
0.00933347

>  <r_epik_Ionization_Penalty_Neutral>  (286) 
1.94201e-07

>  <r_epik_State_Penalty>  (286) 
0.00708237

>  <r_epik_Charging_Adjusted_Penalty>  (286) 
0.0164158

>  <i_epik_Tot_Q>  (286) 
1

>  <i_epik_Tot_abs_Q>  (286) 
1

>  <s_lp_Force_Field>  (286) 
OPLS3e

>  <r_lp_Energy>  (286) 
200.272

>  <b_lp_Chiralities_Consistent>  (286) 
1

>  <s_lp_Variant>  (286) 
98:0-1

>  <s_i_glide_gridfile>  (286) 
pfpi4k_grid

>  <i_i_glide_lignum>  (286) 
14

>  <i_i_glide_rotatable_bonds>  (286) 
7

>  <r_i_docking_score>  (286) 
-2.6482

>  <r_i_glide_ligand_efficiency>  (286) 
-0.0882733

>  <r_i_glide_ligand_efficiency_sa>  (286) 
-0.274286

>  <r_i_glide_ligand_efficiency_ln>  (286) 
-0.601699

>  <r_i_glide_gscore>  (286) 
-2.6482

>  <r_i_glide_lipo>  (286) 
-0.0362857

>  <r_i_glide_hbond>  (286) 
-0.0868947

>  <r_i_glide_metal>  (286) 
-0

>  <r_i_glide_rewards>  (286) 
-0.582562

>  <r_i_glide_evdw>  (286) 
-20.6949

>  <r_i_glide_ecoul>  (286) 
-8.25413

>  <r_i_glide_erotb>  (286) 
0.344563

>  <r_i_glide_esite>  (286) 
-0.0141547

>  <r_i_glide_emodel>  (286) 
-32.0682

>  <r_i_glide_energy>  (286) 
-28.949

>  <r_i_glide_einternal>  (286) 
7.13213

>  <r_i_glide_intrahb_reward>  (286) 
-0

>  <i_i_glide_confnum>  (286) 
3

>  <i_i_glide_posenum>  (286) 
29

>  <r_i_glide_eff_state_penalty>  (286) 
0

>  <ligand_id>  (286) 
98

>  <original_smiles>  (286) 
COCC1CC23CC4(CO)C5CCC(O)(c6ccccc62)C1C(C5C(C)O)N(C)C34

>  <smiles>  (286) 
[H]OC([H])([H])C12C([H])([H])C34c5c([H])c([H])c([H])c([H])c5C5(O[H])C([H])([H])C([H])([H])C1([H])C([H])(C([H])(O[H])C([H])([H])[H])C([H])(C5([H])C([H])(C([H])([H])OC([H])([H])[H])C3([H])[H])[N+]([H])(C([H])([H])[H])C42[H]

$$$$
98:0:2
     RDKit          3D

 66 71  0  0  1  0  0  0  0  0999 V2000
    7.5722  -11.3860    4.5568 C   0  0  0  0  0  0  0  0  0  0  0  0
    6.1767  -11.2069    4.6999 O   0  0  0  0  0  0  0  0  0  0  0  0
    5.5933  -10.6004    3.5596 C   0  0  0  0  0  0  0  0  0  0  0  0
    4.0676  -10.4761    3.7686 C   0  0  2  0  0  0  0  0  0  0  0  0
    3.3782  -10.0379    2.4157 C   0  0  0  0  0  0  0  0  0  0  0  0
    2.5744   -8.8146    2.7627 C   0  0  2  0  0  0  0  0  0  0  0  0
    1.3260   -8.0014    2.2700 C   0  0  0  0  0  0  0  0  0  0  0  0
    0.5908   -8.2276    3.6448 C   0  0  2  0  0  0  0  0  0  0  0  0
   -0.9466   -8.3129    3.5268 C   0  0  0  0  0  0  0  0  0  0  0  0
   -1.5187   -7.0569    3.2483 O   0  0  0  0  0  0  0  0  0  0  0  0
    0.9942   -7.5949    5.0642 C   0  0  2  0  0  0  0  0  0  0  0  0
    2.1250   -6.5406    5.1260 C   0  0  0  0  0  0  0  0  0  0  0  0
    3.4362   -6.9912    5.8337 C   0  0  0  0  0  0  0  0  0  0  0  0
    4.1983   -8.1590    5.1417 C   0  0  2  0  0  0  0  0  0  0  0  0
    5.3497   -8.3010    5.9620 O   0  0  0  0  0  0  0  0  0  0  0  0
    4.6020   -7.5601    3.8068 C   0  0  0  0  0  0  0  0  0  0  0  0
    5.7545   -6.7424    3.7586 C   0  0  0  0  0  0  0  0  0  0  0  0
    5.9543   -6.0718    2.5389 C   0  0  0  0  0  0  0  0  0  0  0  0
    5.0778   -6.2213    1.4567 C   0  0  0  0  0  0  0  0  0  0  0  0
    3.9247   -7.0462    1.5056 C   0  0  0  0  0  0  0  0  0  0  0  0
    3.6889   -7.7000    2.7381 C   0  0  0  0  0  0  0  0  0  0  0  0
    3.6287   -9.6407    5.0882 C   0  0  1  0  0  0  0  0  0  0  0  0
    2.1408   -9.8705    5.6287 C   0  0  1  0  0  0  0  0  0  0  0  0
    1.2202   -8.7154    6.1535 C   0  0  1  0  0  0  0  0  0  0  0  0
    1.2241   -8.4256    7.6983 C   0  0  2  0  0  0  0  0  0  0  0  0
    0.4758   -7.1317    8.0968 C   0  0  0  0  0  0  0  0  0  0  0  0
    2.4671   -8.4424    8.3375 O   0  0  0  0  0  0  0  0  0  0  0  0
    1.2963  -10.4283    4.5677 N   0  0  2  0  0  0  0  0  0  0  0  0
    1.2828  -11.9065    4.3531 C   0  0  0  0  0  0  0  0  0  0  0  0
    1.2661   -9.5293    3.3858 C   0  0  2  0  0  0  0  0  0  0  0  0
    7.9649  -11.8520    5.4581 H   0  0  0  0  0  0  0  0  0  0  0  0
    8.0862  -10.4345    4.4165 H   0  0  0  0  0  0  0  0  0  0  0  0
    7.8032  -12.0369    3.7133 H   0  0  0  0  0  0  0  0  0  0  0  0
    6.0575   -9.6367    3.3532 H   0  0  0  0  0  0  0  0  0  0  0  0
    5.7751  -11.2251    2.6822 H   0  0  0  0  0  0  0  0  0  0  0  0
    3.7961  -11.5157    3.9468 H   0  0  0  0  0  0  0  0  0  0  0  0
    4.0837   -9.8540    1.5996 H   0  0  0  0  0  0  0  0  0  0  0  0
    2.7572  -10.8538    2.0528 H   0  0  0  0  0  0  0  0  0  0  0  0
    1.4622   -6.9433    2.0761 H   0  0  0  0  0  0  0  0  0  0  0  0
    0.8287   -8.4335    1.3940 H   0  0  0  0  0  0  0  0  0  0  0  0
   -1.2539   -8.9795    2.7189 H   0  0  0  0  0  0  0  0  0  0  0  0
   -1.3968   -8.7143    4.4315 H   0  0  0  0  0  0  0  0  0  0  0  0
   -2.4583   -7.1739    3.2377 H   0  0  0  0  0  0  0  0  0  0  0  0
    0.1063   -7.0397    5.3853 H   0  0  0  0  0  0  0  0  0  0  0  0
    2.2842   -6.0674    4.1537 H   0  0  0  0  0  0  0  0  0  0  0  0
    1.7619   -5.7179    5.7283 H   0  0  0  0  0  0  0  0  0  0  0  0
    4.0928   -6.1161    5.7389 H   0  0  0  0  0  0  0  0  0  0  0  0
    3.3451   -7.0914    6.8786 H   0  0  0  0  0  0  0  0  0  0  0  0
    5.0907   -8.6653    6.7961 H   0  0  0  0  0  0  0  0  0  0  0  0
    6.4066   -6.5745    4.6058 H   0  0  0  0  0  0  0  0  0  0  0  0
    6.8094   -5.4157    2.4500 H   0  0  0  0  0  0  0  0  0  0  0  0
    5.3100   -5.7066    0.5442 H   0  0  0  0  0  0  0  0  0  0  0  0
    3.3111   -7.1850    0.6219 H   0  0  0  0  0  0  0  0  0  0  0  0
    4.1554  -10.1967    5.8656 H   0  0  0  0  0  0  0  0  0  0  0  0
    2.1782  -10.6226    6.4129 H   0  0  0  0  0  0  0  0  0  0  0  0
    0.2244   -9.1653    6.1487 H   0  0  0  0  0  0  0  0  0  0  0  0
    0.6784   -9.2552    8.1700 H   0  0  0  0  0  0  0  0  0  0  0  0
   -0.5559   -7.1813    7.7877 H   0  0  0  0  0  0  0  0  0  0  0  0
    0.8931   -6.2345    7.6373 H   0  0  0  0  0  0  0  0  0  0  0  0
    0.4918   -6.9709    9.1763 H   0  0  0  0  0  0  0  0  0  0  0  0
    2.9690   -9.1749    8.0286 H   0  0  0  0  0  0  0  0  0  0  0  0
    1.8768  -12.2298    3.4969 H   0  0  0  0  0  0  0  0  0  0  0  0
    0.2538  -12.2201    4.1664 H   0  0  0  0  0  0  0  0  0  0  0  0
    1.6313  -12.4349    5.2440 H   0  0  0  0  0  0  0  0  0  0  0  0
    0.7208  -10.1359    2.6375 H   0  0  0  0  0  0  0  0  0  0  0  0
    0.3624  -10.3283    4.9660 H   0  0  0  0  0  0  0  0  0  0  0  0
  1  2  1  0
  1 31  1  0
  1 32  1  0
  1 33  1  0
  2  3  1  0
  3  4  1  0
  3 34  1  0
  3 35  1  0
  4 22  1  0
  4  5  1  0
  4 36  1  1
  5  6  1  0
  5 37  1  0
  5 38  1  0
  6 21  1  0
  6 30  1  0
  6  7  1  6
  7  8  1  0
  7 39  1  0
  7 40  1  0
  8 30  1  0
  8  9  1  6
  8 11  1  0
  9 10  1  0
  9 41  1  0
  9 42  1  0
 10 43  1  0
 11 24  1  0
 11 12  1  0
 11 44  1  1
 12 13  1  0
 12 45  1  0
 12 46  1  0
 13 14  1  0
 13 47  1  0
 13 48  1  0
 14 15  1  1
 14 16  1  0
 14 22  1  0
 15 49  1  0
 16 21  2  0
 16 17  1  0
 17 18  2  0
 17 50  1  0
 18 19  1  0
 18 51  1  0
 19 20  2  0
 19 52  1  0
 20 21  1  0
 20 53  1  0
 22 23  1  0
 22 54  1  1
 23 24  1  0
 23 28  1  0
 23 55  1  1
 24 25  1  0
 24 56  1  1
 25 26  1  0
 25 27  1  0
 25 57  1  1
 26 58  1  0
 26 59  1  0
 26 60  1  0
 27 61  1  0
 28 29  1  0
 28 30  1  0
 28 66  1  1
 29 62  1  0
 29 63  1  0
 29 64  1  0
 30 65  1  6
M  CHG  1  28   1
M  END
>  <i_m_ct_stereo_status>  (287) 
1

>  <s_m_source_file>  (287) 
/var/tmp/pbs.5076255.sched01/tmph7d3_0rd/117btfl79hs.sdf

>  <i_m_source_file_index>  (287) 
14

>  <i_lp_mmshare_version>  (287) 
48012

>  <i_f3d_flags>  (287) 
0

>  <s_epik_input>  (287) 
W2NIXTFbY0hdW2NIXVtjSF1jKGMxW0NAXTIzNClbQ0BdNShbT0hdKVtDQEhdKFtDQEBIXShbQ0gyXTIpW0NIMl1PW0NIM10pW0NASF02W0NAQEhdKFtDQEhdKFtDSDNdKVtPSF0pW0NAQEhdKFtDSDJdW0NIMl01KVtDQF0oW0NIMl0zKShbQ0gyXVtPSF0pW0NAQEhdNE42W0NIM10=

>  <s_epik_cmdline>  (287) 
J2VwaWtfcHl0aG9uJywgJy1waHQnLCAnMi4wJywgJy1waCcsICc3LjAnLCAnLXRuJywgJzgnLCAnLW1hJywgJzIwMCcsICctaW1hZScsICc8aW5maWxlLm1hZT4nLCAnLW9tYWUnLCAnPG91dGZpbGUubWFlPic=

>  <r_epik_Ionization_Penalty>  (287) 
0.00933367

>  <r_epik_Ionization_Penalty_Charging>  (287) 
0.00933347

>  <r_epik_Ionization_Penalty_Neutral>  (287) 
1.94201e-07

>  <r_epik_State_Penalty>  (287) 
0.00708237

>  <r_epik_Charging_Adjusted_Penalty>  (287) 
0.0164158

>  <i_epik_Tot_Q>  (287) 
1

>  <i_epik_Tot_abs_Q>  (287) 
1

>  <s_lp_Force_Field>  (287) 
OPLS3e

>  <r_lp_Energy>  (287) 
200.272

>  <b_lp_Chiralities_Consistent>  (287) 
1

>  <s_lp_Variant>  (287) 
98:0-1

>  <s_i_glide_gridfile>  (287) 
pfpi4k_grid

>  <i_i_glide_lignum>  (287) 
14

>  <i_i_glide_rotatable_bonds>  (287) 
7

>  <r_i_docking_score>  (287) 
-2.5159

>  <r_i_glide_ligand_efficiency>  (287) 
-0.0838634

>  <r_i_glide_ligand_efficiency_sa>  (287) 
-0.260583

>  <r_i_glide_ligand_efficiency_ln>  (287) 
-0.57164

>  <r_i_glide_gscore>  (287) 
-2.5159

>  <r_i_glide_lipo>  (287) 
-0.153492

>  <r_i_glide_hbond>  (287) 
-0.138352

>  <r_i_glide_metal>  (287) 
-0

>  <r_i_glide_rewards>  (287) 
-0.582562

>  <r_i_glide_evdw>  (287) 
-18.9082

>  <r_i_glide_ecoul>  (287) 
-6.71142

>  <r_i_glide_erotb>  (287) 
0.344563

>  <r_i_glide_esite>  (287) 
-0.0339357

>  <r_i_glide_emodel>  (287) 
-30.4291

>  <r_i_glide_energy>  (287) 
-25.6196

>  <r_i_glide_einternal>  (287) 
3.06216

>  <r_i_glide_intrahb_reward>  (287) 
-0

>  <i_i_glide_confnum>  (287) 
3

>  <i_i_glide_posenum>  (287) 
2

>  <r_i_glide_eff_state_penalty>  (287) 
0

>  <ligand_id>  (287) 
98

>  <original_smiles>  (287) 
COCC1CC23CC4(CO)C5CCC(O)(c6ccccc62)C1C(C5C(C)O)N(C)C34

>  <smiles>  (287) 
[H]OC([H])([H])C12C([H])([H])C34c5c([H])c([H])c([H])c([H])c5C5(O[H])C([H])([H])C([H])([H])C1([H])C([H])(C([H])(O[H])C([H])([H])[H])C([H])(C5([H])C([H])(C([H])([H])OC([H])([H])[H])C3([H])[H])[N+]([H])(C([H])([H])[H])C42[H]

$$$$
98:1:0
     RDKit          3D

 65 70  0  0  1  0  0  0  0  0999 V2000
    0.0053   -8.6529    9.5017 C   0  0  0  0  0  0  0  0  0  0  0  0
    0.2943   -7.3990    8.8930 O   0  0  0  0  0  0  0  0  0  0  0  0
    1.6162   -7.3077    8.3713 C   0  0  0  0  0  0  0  0  0  0  0  0
    1.7926   -8.1591    7.0868 C   0  0  2  0  0  0  0  0  0  0  0  0
    3.3136   -8.4527    6.7944 C   0  0  0  0  0  0  0  0  0  0  0  0
    3.5024   -8.0573    5.3547 C   0  0  2  0  0  0  0  0  0  0  0  0
    4.4383   -8.3812    4.1513 C   0  0  0  0  0  0  0  0  0  0  0  0
    3.2020   -8.8364    3.2783 C   0  0  2  0  0  0  0  0  0  0  0  0
    3.5419   -9.9490    2.2705 C   0  0  0  0  0  0  0  0  0  0  0  0
    4.1178   -9.4534    1.0803 O   0  0  0  0  0  0  0  0  0  0  0  0
    2.0114   -7.9534    2.7055 C   0  0  2  0  0  0  0  0  0  0  0  0
    2.0778   -6.4183    2.8688 C   0  0  0  0  0  0  0  0  0  0  0  0
    1.0671   -5.7981    3.8629 C   0  0  0  0  0  0  0  0  0  0  0  0
    1.2217   -6.2062    5.3416 C   0  0  2  0  0  0  0  0  0  0  0  0
    0.2030   -5.4180    5.9641 O   0  0  0  0  0  0  0  0  0  0  0  0
    2.5845   -5.6576    5.7200 C   0  0  0  0  0  0  0  0  0  0  0  0
    2.6985   -4.2960    6.0764 C   0  0  0  0  0  0  0  0  0  0  0  0
    4.0154   -3.8403    6.2508 C   0  0  0  0  0  0  0  0  0  0  0  0
    5.1342   -4.6893    6.0828 C   0  0  0  0  0  0  0  0  0  0  0  0
    5.0184   -6.0460    5.7272 C   0  0  0  0  0  0  0  0  0  0  0  0
    3.6968   -6.5133    5.5080 C   0  0  0  0  0  0  0  0  0  0  0  0
    0.8882   -7.6683    5.8328 C   0  0  1  0  0  0  0  0  0  0  0  0
    0.5640   -8.7828    4.7288 C   0  0  1  0  0  0  0  0  0  0  0  0
    0.6327   -8.5424    3.1760 C   0  0  1  0  0  0  0  0  0  0  0  0
   -0.7087   -8.0580    2.5491 C   0  0  2  0  0  0  0  0  0  0  0  0
   -1.7237   -9.1923    2.3422 C   0  0  0  0  0  0  0  0  0  0  0  0
   -0.4930   -7.4541    1.2895 O   0  0  0  0  0  0  0  0  0  0  0  0
    1.5049   -9.8329    4.9899 N   0  0  0  0  0  0  0  0  0  0  0  0
    1.1619  -11.1937    4.5753 C   0  0  0  0  0  0  0  0  0  0  0  0
    2.8273   -9.3200    4.6400 C   0  0  2  0  0  0  0  0  0  0  0  0
   -0.9901   -8.6326    9.9445 H   0  0  0  0  0  0  0  0  0  0  0  0
    0.7153   -8.8960   10.2959 H   0  0  0  0  0  0  0  0  0  0  0  0
   -0.0167   -9.4602    8.7748 H   0  0  0  0  0  0  0  0  0  0  0  0
    1.8365   -6.2600    8.1807 H   0  0  0  0  0  0  0  0  0  0  0  0
    2.3378   -7.6082    9.1313 H   0  0  0  0  0  0  0  0  0  0  0  0
    1.4235   -9.1519    7.3393 H   0  0  0  0  0  0  0  0  0  0  0  0
    3.9989   -7.9640    7.4859 H   0  0  0  0  0  0  0  0  0  0  0  0
    3.4687   -9.5230    6.9563 H   0  0  0  0  0  0  0  0  0  0  0  0
    4.9608   -7.5561    3.6761 H   0  0  0  0  0  0  0  0  0  0  0  0
    5.1615   -9.1780    4.3647 H   0  0  0  0  0  0  0  0  0  0  0  0
    4.2484  -10.6630    2.6857 H   0  0  0  0  0  0  0  0  0  0  0  0
    2.6666  -10.5272    2.0084 H   0  0  0  0  0  0  0  0  0  0  0  0
    4.2374  -10.2107    0.5153 H   0  0  0  0  0  0  0  0  0  0  0  0
    2.0329   -8.0816    1.6240 H   0  0  0  0  0  0  0  0  0  0  0  0
    3.0906   -6.0661    3.0475 H   0  0  0  0  0  0  0  0  0  0  0  0
    1.8242   -5.9886    1.9009 H   0  0  0  0  0  0  0  0  0  0  0  0
    1.2231   -4.7184    3.8001 H   0  0  0  0  0  0  0  0  0  0  0  0
    0.0437   -5.8556    3.5207 H   0  0  0  0  0  0  0  0  0  0  0  0
   -0.6403   -5.7786    5.7418 H   0  0  0  0  0  0  0  0  0  0  0  0
    1.8501   -3.6239    6.1729 H   0  0  0  0  0  0  0  0  0  0  0  0
    4.1767   -2.8118    6.5107 H   0  0  0  0  0  0  0  0  0  0  0  0
    6.1103   -4.2786    6.2579 H   0  0  0  0  0  0  0  0  0  0  0  0
    5.8881   -6.6975    5.6669 H   0  0  0  0  0  0  0  0  0  0  0  0
   -0.1004   -7.6126    6.2909 H   0  0  0  0  0  0  0  0  0  0  0  0
   -0.4175   -9.1963    4.9646 H   0  0  0  0  0  0  0  0  0  0  0  0
    0.6857   -9.5213    2.7054 H   0  0  0  0  0  0  0  0  0  0  0  0
   -1.2203   -7.3606    3.2048 H   0  0  0  0  0  0  0  0  0  0  0  0
   -1.9645   -9.6808    3.2805 H   0  0  0  0  0  0  0  0  0  0  0  0
   -1.3569   -9.9683    1.6764 H   0  0  0  0  0  0  0  0  0  0  0  0
   -2.6583   -8.8105    1.9377 H   0  0  0  0  0  0  0  0  0  0  0  0
   -0.2238   -8.1397    0.6890 H   0  0  0  0  0  0  0  0  0  0  0  0
    1.8325  -11.9155    5.0477 H   0  0  0  0  0  0  0  0  0  0  0  0
    1.2110  -11.3492    3.4987 H   0  0  0  0  0  0  0  0  0  0  0  0
    0.1519  -11.4382    4.9080 H   0  0  0  0  0  0  0  0  0  0  0  0
    3.4285  -10.2113    4.8781 H   0  0  0  0  0  0  0  0  0  0  0  0
  1  2  1  0
  1 31  1  0
  1 32  1  0
  1 33  1  0
  2  3  1  0
  3  4  1  0
  3 34  1  0
  3 35  1  0
  4 22  1  0
  4  5  1  0
  4 36  1  1
  5  6  1  0
  5 37  1  0
  5 38  1  0
  6 21  1  0
  6 30  1  0
  6  7  1  6
  7  8  1  0
  7 39  1  0
  7 40  1  0
  8 30  1  0
  8  9  1  6
  8 11  1  0
  9 10  1  0
  9 41  1  0
  9 42  1  0
 10 43  1  0
 11 24  1  0
 11 12  1  0
 11 44  1  6
 12 13  1  0
 12 45  1  0
 12 46  1  0
 13 14  1  0
 13 47  1  0
 13 48  1  0
 14 15  1  1
 14 16  1  0
 14 22  1  0
 15 49  1  0
 16 21  2  0
 16 17  1  0
 17 18  2  0
 17 50  1  0
 18 19  1  0
 18 51  1  0
 19 20  2  0
 19 52  1  0
 20 21  1  0
 20 53  1  0
 22 23  1  0
 22 54  1  1
 23 24  1  0
 23 28  1  0
 23 55  1  1
 24 25  1  0
 24 56  1  6
 25 26  1  0
 25 27  1  0
 25 57  1  1
 26 58  1  0
 26 59  1  0
 26 60  1  0
 27 61  1  0
 28 29  1  0
 28 30  1  0
 29 62  1  0
 29 63  1  0
 29 64  1  0
 30 65  1  1
M  END
>  <i_m_ct_stereo_status>  (288) 
1

>  <s_m_source_file>  (288) 
/var/tmp/pbs.5076255.sched01/tmph7d3_0rd/117btfl79hs.sdf

>  <i_m_source_file_index>  (288) 
15

>  <i_lp_mmshare_version>  (288) 
48012

>  <i_f3d_flags>  (288) 
0

>  <s_epik_input>  (288) 
W2NIXTFbY0hdW2NIXVtjSF1jKGMxW0NAXTIzNClbQ0BdNShbT0hdKVtDQEhdKFtDQEBIXShbQ0gyXTIpW0NIMl1PW0NIM10pW0NASF02W0NAQEhdKFtDQEhdKFtDSDNdKVtPSF0pW0NAQEhdKFtDSDJdW0NIMl01KVtDQF0oW0NIMl0zKShbQ0gyXVtPSF0pW0NAQEhdNE42W0NIM10=

>  <s_epik_cmdline>  (288) 
J2VwaWtfcHl0aG9uJywgJy1waHQnLCAnMi4wJywgJy1waCcsICc3LjAnLCAnLXRuJywgJzgnLCAnLW1hJywgJzIwMCcsICctaW1hZScsICc8aW5maWxlLm1hZT4nLCAnLW9tYWUnLCAnPG91dGZpbGUubWFlPic=

>  <r_epik_Ionization_Penalty>  (288) 
2.4639

>  <r_epik_Ionization_Penalty_Charging>  (288) 
0

>  <r_epik_Ionization_Penalty_Neutral>  (288) 
2.4639

>  <r_epik_State_Penalty>  (288) 
2.62631

>  <r_epik_Charging_Adjusted_Penalty>  (288) 
2.62631

>  <i_epik_Tot_Q>  (288) 
0

>  <i_epik_Tot_abs_Q>  (288) 
0

>  <s_lp_Force_Field>  (288) 
OPLS3e

>  <r_lp_Energy>  (288) 
185.804

>  <b_lp_Chiralities_Consistent>  (288) 
1

>  <s_lp_Variant>  (288) 
98:0-2

>  <s_i_glide_gridfile>  (288) 
pfpi4k_grid

>  <i_i_glide_lignum>  (288) 
15

>  <i_i_glide_rotatable_bonds>  (288) 
7

>  <r_i_docking_score>  (288) 
-3.35991

>  <r_i_glide_ligand_efficiency>  (288) 
-0.111997

>  <r_i_glide_ligand_efficiency_sa>  (288) 
-0.348001

>  <r_i_glide_ligand_efficiency_ln>  (288) 
-0.763408

>  <r_i_glide_gscore>  (288) 
-3.35991

>  <r_i_glide_lipo>  (288) 
-0.317264

>  <r_i_glide_hbond>  (288) 
-0.557754

>  <r_i_glide_metal>  (288) 
-0

>  <r_i_glide_rewards>  (288) 
-0.589434

>  <r_i_glide_evdw>  (288) 
-20.9604

>  <r_i_glide_ecoul>  (288) 
-7.95678

>  <r_i_glide_erotb>  (288) 
0.346081

>  <r_i_glide_esite>  (288) 
0

>  <r_i_glide_emodel>  (288) 
-34.5116

>  <r_i_glide_energy>  (288) 
-28.9172

>  <r_i_glide_einternal>  (288) 
2.36237

>  <r_i_glide_intrahb_reward>  (288) 
-0

>  <i_i_glide_confnum>  (288) 
3

>  <i_i_glide_posenum>  (288) 
20

>  <r_i_glide_eff_state_penalty>  (288) 
0

>  <ligand_id>  (288) 
98

>  <original_smiles>  (288) 
COCC1CC23CC4(CO)C5CCC(O)(c6ccccc62)C1C(C5C(C)O)N(C)C34

>  <smiles>  (288) 
[H]OC([H])([H])C12C([H])([H])C34c5c([H])c([H])c([H])c([H])c5C5(O[H])C([H])([H])C([H])([H])C1([H])C([H])(C([H])(O[H])C([H])([H])[H])C([H])(N(C([H])([H])[H])C32[H])C5([H])C([H])(C([H])([H])OC([H])([H])[H])C4([H])[H]

$$$$
98:1:1
     RDKit          3D

 65 70  0  0  1  0  0  0  0  0999 V2000
    7.0542    0.7423    5.1743 C   0  0  0  0  0  0  0  0  0  0  0  0
    6.2590    0.1958    4.1309 O   0  0  0  0  0  0  0  0  0  0  0  0
    5.3214   -0.7845    4.5542 C   0  0  0  0  0  0  0  0  0  0  0  0
    4.1356   -0.1335    5.2970 C   0  0  2  0  0  0  0  0  0  0  0  0
    3.3523   -1.1907    6.1615 C   0  0  0  0  0  0  0  0  0  0  0  0
    1.8946   -1.0368    5.7437 C   0  0  2  0  0  0  0  0  0  0  0  0
    0.4777   -1.2511    6.3208 C   0  0  0  0  0  0  0  0  0  0  0  0
    0.1406    0.2889    6.1689 C   0  0  2  0  0  0  0  0  0  0  0  0
   -0.8427    0.7895    7.2460 C   0  0  0  0  0  0  0  0  0  0  0  0
   -2.1805    0.5595    6.8569 O   0  0  0  0  0  0  0  0  0  0  0  0
   -0.0341    1.1180    4.8175 C   0  0  2  0  0  0  0  0  0  0  0  0
   -0.0299    0.3878    3.4676 C   0  0  0  0  0  0  0  0  0  0  0  0
    1.1922    0.6707    2.5285 C   0  0  0  0  0  0  0  0  0  0  0  0
    2.5682    0.1875    3.1220 C   0  0  2  0  0  0  0  0  0  0  0  0
    3.4445    0.5476    2.0729 O   0  0  0  0  0  0  0  0  0  0  0  0
    2.4227   -1.3223    3.2172 C   0  0  0  0  0  0  0  0  0  0  0  0
    2.6290   -2.0905    2.0401 C   0  0  0  0  0  0  0  0  0  0  0  0
    2.2831   -3.4431    2.1620 C   0  0  0  0  0  0  0  0  0  0  0  0
    1.7858   -3.9896    3.3566 C   0  0  0  0  0  0  0  0  0  0  0  0
    1.5739   -3.2232    4.5268 C   0  0  0  0  0  0  0  0  0  0  0  0
    1.8913   -1.8470    4.4094 C   0  0  0  0  0  0  0  0  0  0  0  0
    3.2445    0.8839    4.3832 C   0  0  1  0  0  0  0  0  0  0  0  0
    2.4227    1.9780    5.1877 C   0  0  1  0  0  0  0  0  0  0  0  0
    0.9363    2.3623    4.8382 C   0  0  1  0  0  0  0  0  0  0  0  0
    0.7890    3.5729    3.8629 C   0  0  2  0  0  0  0  0  0  0  0  0
   -0.7001    3.8660    3.4718 C   0  0  0  0  0  0  0  0  0  0  0  0
    1.6255    3.5673    2.7485 O   0  0  0  0  0  0  0  0  0  0  0  0
    2.3986    1.5214    6.5509 N   0  0  0  0  0  0  0  0  0  0  0  0
    2.2253    2.4980    7.6181 C   0  0  0  0  0  0  0  0  0  0  0  0
    1.5787    0.3114    6.5783 C   0  0  2  0  0  0  0  0  0  0  0  0
    7.7846    1.4418    4.7623 H   0  0  0  0  0  0  0  0  0  0  0  0
    7.5942   -0.0315    5.7242 H   0  0  0  0  0  0  0  0  0  0  0  0
    6.4628    1.3137    5.8935 H   0  0  0  0  0  0  0  0  0  0  0  0
    4.9898   -1.3409    3.6817 H   0  0  0  0  0  0  0  0  0  0  0  0
    5.8146   -1.5225    5.1859 H   0  0  0  0  0  0  0  0  0  0  0  0
    4.5853    0.5016    6.0710 H   0  0  0  0  0  0  0  0  0  0  0  0
    3.7212   -2.2144    6.0392 H   0  0  0  0  0  0  0  0  0  0  0  0
    3.5163   -0.9551    7.2026 H   0  0  0  0  0  0  0  0  0  0  0  0
   -0.2113   -1.8658    5.7333 H   0  0  0  0  0  0  0  0  0  0  0  0
    0.4670   -1.6318    7.3500 H   0  0  0  0  0  0  0  0  0  0  0  0
   -0.6867    0.3009    8.1981 H   0  0  0  0  0  0  0  0  0  0  0  0
   -0.7083    1.8518    7.4435 H   0  0  0  0  0  0  0  0  0  0  0  0
   -2.3419    1.0794    6.0840 H   0  0  0  0  0  0  0  0  0  0  0  0
   -1.0461    1.5553    4.8650 H   0  0  0  0  0  0  0  0  0  0  0  0
   -0.2742   -0.6749    3.5822 H   0  0  0  0  0  0  0  0  0  0  0  0
   -0.8618    0.7796    2.8963 H   0  0  0  0  0  0  0  0  0  0  0  0
    1.0151   -0.0043    1.6717 H   0  0  0  0  0  0  0  0  0  0  0  0
    1.1977    1.6376    2.0995 H   0  0  0  0  0  0  0  0  0  0  0  0
    3.6051    1.4836    2.0652 H   0  0  0  0  0  0  0  0  0  0  0  0
    2.9415   -1.6500    1.0698 H   0  0  0  0  0  0  0  0  0  0  0  0
    2.3927   -4.0760    1.2859 H   0  0  0  0  0  0  0  0  0  0  0  0
    1.5696   -5.0440    3.3793 H   0  0  0  0  0  0  0  0  0  0  0  0
    1.2508   -3.7017    5.4786 H   0  0  0  0  0  0  0  0  0  0  0  0
    4.0143    1.5358    3.9855 H   0  0  0  0  0  0  0  0  0  0  0  0
    2.9996    2.9033    5.1946 H   0  0  0  0  0  0  0  0  0  0  0  0
    0.5616    2.8784    5.7071 H   0  0  0  0  0  0  0  0  0  0  0  0
    1.1049    4.4584    4.4143 H   0  0  0  0  0  0  0  0  0  0  0  0
   -1.3039    4.0851    4.3503 H   0  0  0  0  0  0  0  0  0  0  0  0
   -1.1631    3.0317    2.9374 H   0  0  0  0  0  0  0  0  0  0  0  0
   -0.7680    4.7433    2.8327 H   0  0  0  0  0  0  0  0  0  0  0  0
    1.0968    3.7614    1.9978 H   0  0  0  0  0  0  0  0  0  0  0  0
    2.4734    2.0499    8.5830 H   0  0  0  0  0  0  0  0  0  0  0  0
    1.2113    2.8899    7.6890 H   0  0  0  0  0  0  0  0  0  0  0  0
    2.8995    3.3349    7.4622 H   0  0  0  0  0  0  0  0  0  0  0  0
    1.6340    0.0636    7.6428 H   0  0  0  0  0  0  0  0  0  0  0  0
  1  2  1  0
  1 31  1  0
  1 32  1  0
  1 33  1  0
  2  3  1  0
  3  4  1  0
  3 34  1  0
  3 35  1  0
  4 22  1  0
  4  5  1  0
  4 36  1  1
  5  6  1  0
  5 37  1  0
  5 38  1  0
  6 21  1  0
  6 30  1  0
  6  7  1  1
  7  8  1  0
  7 39  1  0
  7 40  1  0
  8 30  1  0
  8  9  1  1
  8 11  1  0
  9 10  1  0
  9 41  1  0
  9 42  1  0
 10 43  1  0
 11 24  1  0
 11 12  1  0
 11 44  1  1
 12 13  1  0
 12 45  1  0
 12 46  1  0
 13 14  1  0
 13 47  1  0
 13 48  1  0
 14 15  1  6
 14 16  1  0
 14 22  1  0
 15 49  1  0
 16 21  2  0
 16 17  1  0
 17 18  2  0
 17 50  1  0
 18 19  1  0
 18 51  1  0
 19 20  2  0
 19 52  1  0
 20 21  1  0
 20 53  1  0
 22 23  1  0
 22 54  1  6
 23 24  1  0
 23 28  1  0
 23 55  1  1
 24 25  1  0
 24 56  1  1
 25 26  1  0
 25 27  1  0
 25 57  1  1
 26 58  1  0
 26 59  1  0
 26 60  1  0
 27 61  1  0
 28 29  1  0
 28 30  1  0
 29 62  1  0
 29 63  1  0
 29 64  1  0
 30 65  1  1
M  END
>  <i_m_ct_stereo_status>  (289) 
1

>  <s_m_source_file>  (289) 
/var/tmp/pbs.5076255.sched01/tmph7d3_0rd/117btfl79hs.sdf

>  <i_m_source_file_index>  (289) 
15

>  <i_lp_mmshare_version>  (289) 
48012

>  <i_f3d_flags>  (289) 
0

>  <s_epik_input>  (289) 
W2NIXTFbY0hdW2NIXVtjSF1jKGMxW0NAXTIzNClbQ0BdNShbT0hdKVtDQEhdKFtDQEBIXShbQ0gyXTIpW0NIMl1PW0NIM10pW0NASF02W0NAQEhdKFtDQEhdKFtDSDNdKVtPSF0pW0NAQEhdKFtDSDJdW0NIMl01KVtDQF0oW0NIMl0zKShbQ0gyXVtPSF0pW0NAQEhdNE42W0NIM10=

>  <s_epik_cmdline>  (289) 
J2VwaWtfcHl0aG9uJywgJy1waHQnLCAnMi4wJywgJy1waCcsICc3LjAnLCAnLXRuJywgJzgnLCAnLW1hJywgJzIwMCcsICctaW1hZScsICc8aW5maWxlLm1hZT4nLCAnLW9tYWUnLCAnPG91dGZpbGUubWFlPic=

>  <r_epik_Ionization_Penalty>  (289) 
2.4639

>  <r_epik_Ionization_Penalty_Charging>  (289) 
0

>  <r_epik_Ionization_Penalty_Neutral>  (289) 
2.4639

>  <r_epik_State_Penalty>  (289) 
2.62631

>  <r_epik_Charging_Adjusted_Penalty>  (289) 
2.62631

>  <i_epik_Tot_Q>  (289) 
0

>  <i_epik_Tot_abs_Q>  (289) 
0

>  <s_lp_Force_Field>  (289) 
OPLS3e

>  <r_lp_Energy>  (289) 
185.804

>  <b_lp_Chiralities_Consistent>  (289) 
1

>  <s_lp_Variant>  (289) 
98:0-2

>  <s_i_glide_gridfile>  (289) 
pfpi4k_grid

>  <i_i_glide_lignum>  (289) 
15

>  <i_i_glide_rotatable_bonds>  (289) 
7

>  <r_i_docking_score>  (289) 
-3.11033

>  <r_i_glide_ligand_efficiency>  (289) 
-0.103678

>  <r_i_glide_ligand_efficiency_sa>  (289) 
-0.32215

>  <r_i_glide_ligand_efficiency_ln>  (289) 
-0.7067

>  <r_i_glide_gscore>  (289) 
-3.11033

>  <r_i_glide_lipo>  (289) 
-0.310106

>  <r_i_glide_hbond>  (289) 
-0.440066

>  <r_i_glide_metal>  (289) 
-0

>  <r_i_glide_rewards>  (289) 
-0.589434

>  <r_i_glide_evdw>  (289) 
-13.3059

>  <r_i_glide_ecoul>  (289) 
-9.67671

>  <r_i_glide_erotb>  (289) 
0.346081

>  <r_i_glide_esite>  (289) 
0

>  <r_i_glide_emodel>  (289) 
-23.8768

>  <r_i_glide_energy>  (289) 
-22.9826

>  <r_i_glide_einternal>  (289) 
4.80548

>  <r_i_glide_intrahb_reward>  (289) 
-0

>  <i_i_glide_confnum>  (289) 
3

>  <i_i_glide_posenum>  (289) 
2

>  <r_i_glide_eff_state_penalty>  (289) 
0

>  <ligand_id>  (289) 
98

>  <original_smiles>  (289) 
COCC1CC23CC4(CO)C5CCC(O)(c6ccccc62)C1C(C5C(C)O)N(C)C34

>  <smiles>  (289) 
[H]OC([H])([H])C12C([H])([H])C34c5c([H])c([H])c([H])c([H])c5C5(O[H])C([H])([H])C([H])([H])C1([H])C([H])(C([H])(O[H])C([H])([H])[H])C([H])(N(C([H])([H])[H])C32[H])C5([H])C([H])(C([H])([H])OC([H])([H])[H])C4([H])[H]

$$$$
98:1:2
     RDKit          3D

 65 70  0  0  1  0  0  0  0  0999 V2000
    3.0496  -11.9033    4.4448 C   0  0  0  0  0  0  0  0  0  0  0  0
    3.5135  -10.5644    4.3890 O   0  0  0  0  0  0  0  0  0  0  0  0
    2.6130   -9.6536    4.9948 C   0  0  0  0  0  0  0  0  0  0  0  0
    3.2057   -8.2295    4.9419 C   0  0  2  0  0  0  0  0  0  0  0  0
    2.3481   -7.2341    5.8292 C   0  0  0  0  0  0  0  0  0  0  0  0
    1.9680   -6.0784    4.9110 C   0  0  2  0  0  0  0  0  0  0  0  0
    1.6030   -4.5653    4.9743 C   0  0  0  0  0  0  0  0  0  0  0  0
    2.8529   -4.1878    4.0884 C   0  0  2  0  0  0  0  0  0  0  0  0
    3.4266   -2.7926    4.4271 C   0  0  0  0  0  0  0  0  0  0  0  0
    2.6308   -1.7560    3.8932 O   0  0  0  0  0  0  0  0  0  0  0  0
    3.0986   -4.5182    2.5457 C   0  0  2  0  0  0  0  0  0  0  0  0
    1.9709   -5.1775    1.7252 C   0  0  0  0  0  0  0  0  0  0  0  0
    2.2081   -6.6506    1.2661 C   0  0  0  0  0  0  0  0  0  0  0  0
    2.3220   -7.6707    2.4516 C   0  0  2  0  0  0  0  0  0  0  0  0
    2.4898   -8.8798    1.7290 O   0  0  0  0  0  0  0  0  0  0  0  0
    0.9527   -7.6328    3.1096 C   0  0  0  0  0  0  0  0  0  0  0  0
   -0.0933   -8.3878    2.5320 C   0  0  0  0  0  0  0  0  0  0  0  0
   -1.3781   -8.1322    3.0314 C   0  0  0  0  0  0  0  0  0  0  0  0
   -1.5697   -7.2122    4.0817 C   0  0  0  0  0  0  0  0  0  0  0  0
   -0.5246   -6.4876    4.6855 C   0  0  0  0  0  0  0  0  0  0  0  0
    0.7592   -6.6958    4.1351 C   0  0  0  0  0  0  0  0  0  0  0  0
    3.5647   -7.7005    3.4459 C   0  0  1  0  0  0  0  0  0  0  0  0
    4.6196   -6.5067    3.3632 C   0  0  1  0  0  0  0  0  0  0  0  0
    4.4693   -5.2821    2.3864 C   0  0  1  0  0  0  0  0  0  0  0  0
    5.1859   -5.4515    1.0053 C   0  0  2  0  0  0  0  0  0  0  0  0
    4.8861   -4.3053   -0.0075 C   0  0  0  0  0  0  0  0  0  0  0  0
    5.0598   -6.7023    0.4032 O   0  0  0  0  0  0  0  0  0  0  0  0
    4.6689   -5.9541    4.6900 N   0  0  0  0  0  0  0  0  0  0  0  0
    5.8773   -5.2473    5.1070 C   0  0  0  0  0  0  0  0  0  0  0  0
    3.3788   -5.3081    4.9241 C   0  0  2  0  0  0  0  0  0  0  0  0
    3.7811  -12.5612    3.9798 H   0  0  0  0  0  0  0  0  0  0  0  0
    2.1092  -12.0210    3.9060 H   0  0  0  0  0  0  0  0  0  0  0  0
    2.9059  -12.2429    5.4712 H   0  0  0  0  0  0  0  0  0  0  0  0
    1.6405   -9.7098    4.5099 H   0  0  0  0  0  0  0  0  0  0  0  0
    2.4536   -9.9341    6.0361 H   0  0  0  0  0  0  0  0  0  0  0  0
    4.1637   -8.3345    5.4597 H   0  0  0  0  0  0  0  0  0  0  0  0
    1.4713   -7.7018    6.2838 H   0  0  0  0  0  0  0  0  0  0  0  0
    2.9532   -6.9062    6.6675 H   0  0  0  0  0  0  0  0  0  0  0  0
    0.6739   -4.2493    4.4980 H   0  0  0  0  0  0  0  0  0  0  0  0
    1.6127   -4.1486    5.9876 H   0  0  0  0  0  0  0  0  0  0  0  0
    3.4834   -2.6305    5.5004 H   0  0  0  0  0  0  0  0  0  0  0  0
    4.4460   -2.6849    4.0634 H   0  0  0  0  0  0  0  0  0  0  0  0
    2.6616   -1.8117    2.9483 H   0  0  0  0  0  0  0  0  0  0  0  0
    3.2425   -3.5415    2.0615 H   0  0  0  0  0  0  0  0  0  0  0  0
    0.9957   -5.0109    2.1921 H   0  0  0  0  0  0  0  0  0  0  0  0
    1.9122   -4.6288    0.7927 H   0  0  0  0  0  0  0  0  0  0  0  0
    1.2663   -6.9151    0.7528 H   0  0  0  0  0  0  0  0  0  0  0  0
    2.9488   -6.7369    0.5104 H   0  0  0  0  0  0  0  0  0  0  0  0
    2.5208   -9.6193    2.3205 H   0  0  0  0  0  0  0  0  0  0  0  0
    0.0565   -9.0976    1.7003 H   0  0  0  0  0  0  0  0  0  0  0  0
   -2.2101   -8.6770    2.6146 H   0  0  0  0  0  0  0  0  0  0  0  0
   -2.5682   -7.1094    4.4569 H   0  0  0  0  0  0  0  0  0  0  0  0
   -0.7067   -5.8457    5.5650 H   0  0  0  0  0  0  0  0  0  0  0  0
    4.2151   -8.4881    3.0837 H   0  0  0  0  0  0  0  0  0  0  0  0
    5.6043   -6.9402    3.1849 H   0  0  0  0  0  0  0  0  0  0  0  0
    5.1459   -4.5239    2.7608 H   0  0  0  0  0  0  0  0  0  0  0  0
    6.2595   -5.3774    1.1963 H   0  0  0  0  0  0  0  0  0  0  0  0
    5.2021   -3.3424    0.3944 H   0  0  0  0  0  0  0  0  0  0  0  0
    3.8252   -4.2214   -0.2530 H   0  0  0  0  0  0  0  0  0  0  0  0
    5.4133   -4.4542   -0.9531 H   0  0  0  0  0  0  0  0  0  0  0  0
    5.0012   -6.5657   -0.5162 H   0  0  0  0  0  0  0  0  0  0  0  0
    5.8700   -5.1039    6.1893 H   0  0  0  0  0  0  0  0  0  0  0  0
    5.9903   -4.2678    4.6459 H   0  0  0  0  0  0  0  0  0  0  0  0
    6.7532   -5.8455    4.8631 H   0  0  0  0  0  0  0  0  0  0  0  0
    3.5403   -4.9277    5.9390 H   0  0  0  0  0  0  0  0  0  0  0  0
  1  2  1  0
  1 31  1  0
  1 32  1  0
  1 33  1  0
  2  3  1  0
  3  4  1  0
  3 34  1  0
  3 35  1  0
  4 22  1  0
  4  5  1  0
  4 36  1  1
  5  6  1  0
  5 37  1  0
  5 38  1  0
  6 21  1  0
  6 30  1  0
  6  7  1  1
  7  8  1  0
  7 39  1  0
  7 40  1  0
  8 30  1  0
  8  9  1  1
  8 11  1  0
  9 10  1  0
  9 41  1  0
  9 42  1  0
 10 43  1  0
 11 24  1  0
 11 12  1  0
 11 44  1  6
 12 13  1  0
 12 45  1  0
 12 46  1  0
 13 14  1  0
 13 47  1  0
 13 48  1  0
 14 15  1  6
 14 16  1  0
 14 22  1  0
 15 49  1  0
 16 21  2  0
 16 17  1  0
 17 18  2  0
 17 50  1  0
 18 19  1  0
 18 51  1  0
 19 20  2  0
 19 52  1  0
 20 21  1  0
 20 53  1  0
 22 23  1  0
 22 54  1  6
 23 24  1  0
 23 28  1  0
 23 55  1  6
 24 25  1  0
 24 56  1  1
 25 26  1  0
 25 27  1  0
 25 57  1  1
 26 58  1  0
 26 59  1  0
 26 60  1  0
 27 61  1  0
 28 29  1  0
 28 30  1  0
 29 62  1  0
 29 63  1  0
 29 64  1  0
 30 65  1  1
M  END
>  <i_m_ct_stereo_status>  (290) 
1

>  <s_m_source_file>  (290) 
/var/tmp/pbs.5076255.sched01/tmph7d3_0rd/117btfl79hs.sdf

>  <i_m_source_file_index>  (290) 
15

>  <i_lp_mmshare_version>  (290) 
48012

>  <i_f3d_flags>  (290) 
0

>  <s_epik_input>  (290) 
W2NIXTFbY0hdW2NIXVtjSF1jKGMxW0NAXTIzNClbQ0BdNShbT0hdKVtDQEhdKFtDQEBIXShbQ0gyXTIpW0NIMl1PW0NIM10pW0NASF02W0NAQEhdKFtDQEhdKFtDSDNdKVtPSF0pW0NAQEhdKFtDSDJdW0NIMl01KVtDQF0oW0NIMl0zKShbQ0gyXVtPSF0pW0NAQEhdNE42W0NIM10=

>  <s_epik_cmdline>  (290) 
J2VwaWtfcHl0aG9uJywgJy1waHQnLCAnMi4wJywgJy1waCcsICc3LjAnLCAnLXRuJywgJzgnLCAnLW1hJywgJzIwMCcsICctaW1hZScsICc8aW5maWxlLm1hZT4nLCAnLW9tYWUnLCAnPG91dGZpbGUubWFlPic=

>  <r_epik_Ionization_Penalty>  (290) 
2.4639

>  <r_epik_Ionization_Penalty_Charging>  (290) 
0

>  <r_epik_Ionization_Penalty_Neutral>  (290) 
2.4639

>  <r_epik_State_Penalty>  (290) 
2.62631

>  <r_epik_Charging_Adjusted_Penalty>  (290) 
2.62631

>  <i_epik_Tot_Q>  (290) 
0

>  <i_epik_Tot_abs_Q>  (290) 
0

>  <s_lp_Force_Field>  (290) 
OPLS3e

>  <r_lp_Energy>  (290) 
185.804

>  <b_lp_Chiralities_Consistent>  (290) 
1

>  <s_lp_Variant>  (290) 
98:0-2

>  <s_i_glide_gridfile>  (290) 
pfpi4k_grid

>  <i_i_glide_lignum>  (290) 
15

>  <i_i_glide_rotatable_bonds>  (290) 
7

>  <r_i_docking_score>  (290) 
-1.70017

>  <r_i_glide_ligand_efficiency>  (290) 
-0.0566722

>  <r_i_glide_ligand_efficiency_sa>  (290) 
-0.176094

>  <r_i_glide_ligand_efficiency_ln>  (290) 
-0.386296

>  <r_i_glide_gscore>  (290) 
-1.70017

>  <r_i_glide_lipo>  (290) 
-0.11612

>  <r_i_glide_hbond>  (290) 
0

>  <r_i_glide_metal>  (290) 
-0

>  <r_i_glide_rewards>  (290) 
-0.589434

>  <r_i_glide_evdw>  (290) 
-20.4456

>  <r_i_glide_ecoul>  (290) 
-2.12274

>  <r_i_glide_erotb>  (290) 
0.346081

>  <r_i_glide_esite>  (290) 
0

>  <r_i_glide_emodel>  (290) 
-23.5347

>  <r_i_glide_energy>  (290) 
-22.5684

>  <r_i_glide_einternal>  (290) 
3.63526

>  <r_i_glide_intrahb_reward>  (290) 
-0

>  <i_i_glide_confnum>  (290) 
3

>  <i_i_glide_posenum>  (290) 
39

>  <r_i_glide_eff_state_penalty>  (290) 
0

>  <ligand_id>  (290) 
98

>  <original_smiles>  (290) 
COCC1CC23CC4(CO)C5CCC(O)(c6ccccc62)C1C(C5C(C)O)N(C)C34

>  <smiles>  (290) 
[H]OC([H])([H])C12C([H])([H])C34c5c([H])c([H])c([H])c([H])c5C5(O[H])C([H])([H])C([H])([H])C1([H])C([H])(C([H])(O[H])C([H])([H])[H])C([H])(N(C([H])([H])[H])C32[H])C5([H])C([H])(C([H])([H])OC([H])([H])[H])C4([H])[H]

$$$$
99:0:0
     RDKit          3D

 47 50  0  0  1  0  0  0  0  0999 V2000
   -1.3652   -7.0579    3.1420 N   0  0  0  0  0  0  0  0  0  0  0  0
   -0.3889   -7.5505    2.7701 C   0  0  0  0  0  0  0  0  0  0  0  0
    0.8538   -8.1757    2.2968 C   0  0  2  0  0  0  0  0  0  0  0  0
    1.4059   -9.1991    3.2952 C   0  0  0  0  0  0  0  0  0  0  0  0
    2.4132   -8.4000    4.1088 C   0  0  0  0  0  0  0  0  0  0  0  0
    2.9724   -7.3785    3.1176 C   0  0  0  0  0  0  0  0  0  0  0  0
    1.9214   -7.1922    2.1172 N   0  0  0  0  0  0  0  0  0  0  0  0
    1.9136   -6.2525    1.1482 C   0  0  0  0  0  0  0  0  0  0  0  0
    0.9679   -6.1261    0.3710 O   0  0  0  0  0  0  0  0  0  0  0  0
    3.1138   -5.3014    1.0183 C   0  0  0  0  0  0  0  0  0  0  0  0
    3.1396   -4.6324   -0.3084 N   0  0  0  0  0  0  0  0  0  0  0  0
    4.2127   -3.6427   -0.5706 C   0  0  1  0  0  0  0  0  0  0  0  0
    5.6153   -4.1928   -0.1900 C   0  0  0  0  0  0  0  0  0  0  0  0
    6.7097   -3.1651   -0.5445 C   0  0  2  0  0  0  0  0  0  0  0  0
    6.4523   -1.8572    0.2400 C   0  0  0  0  0  0  0  0  0  0  0  0
    5.0747   -1.2867   -0.1628 C   0  0  1  0  0  0  0  0  0  0  0  0
    5.0503   -1.0048   -1.6803 C   0  0  0  0  0  0  0  0  0  0  0  0
    5.3038   -2.3181   -2.4468 C   0  0  1  0  0  0  0  0  0  0  0  0
    6.6772   -2.9019   -2.0604 C   0  0  0  0  0  0  0  0  0  0  0  0
    4.2008   -3.3371   -2.0906 C   0  0  0  0  0  0  0  0  0  0  0  0
    3.9715   -2.3119    0.1900 C   0  0  0  0  0  0  0  0  0  0  0  0
    0.6357   -8.6491    1.3392 H   0  0  0  0  0  0  0  0  0  0  0  0
    0.6280   -9.6458    3.9129 H   0  0  0  0  0  0  0  0  0  0  0  0
    1.9115  -10.0113    2.7731 H   0  0  0  0  0  0  0  0  0  0  0  0
    1.8904   -7.8853    4.9158 H   0  0  0  0  0  0  0  0  0  0  0  0
    3.1867   -9.0257    4.5557 H   0  0  0  0  0  0  0  0  0  0  0  0
    3.2204   -6.4419    3.6172 H   0  0  0  0  0  0  0  0  0  0  0  0
    3.8703   -7.7712    2.6360 H   0  0  0  0  0  0  0  0  0  0  0  0
    3.0473   -4.5612    1.8161 H   0  0  0  0  0  0  0  0  0  0  0  0
    4.0281   -5.8753    1.1634 H   0  0  0  0  0  0  0  0  0  0  0  0
    3.2159   -5.3557   -1.0202 H   0  0  0  0  0  0  0  0  0  0  0  0
    5.6896   -4.3939    0.8806 H   0  0  0  0  0  0  0  0  0  0  0  0
    5.8109   -5.1346   -0.7049 H   0  0  0  0  0  0  0  0  0  0  0  0
    7.6879   -3.5634   -0.2693 H   0  0  0  0  0  0  0  0  0  0  0  0
    6.4750   -2.0543    1.3129 H   0  0  0  0  0  0  0  0  0  0  0  0
    7.2421   -1.1300    0.0555 H   0  0  0  0  0  0  0  0  0  0  0  0
    4.8969   -0.3542    0.3756 H   0  0  0  0  0  0  0  0  0  0  0  0
    4.0879   -0.5779   -1.9702 H   0  0  0  0  0  0  0  0  0  0  0  0
    5.8052   -0.2635   -1.9388 H   0  0  0  0  0  0  0  0  0  0  0  0
    5.2737   -2.1301   -3.5202 H   0  0  0  0  0  0  0  0  0  0  0  0
    7.4921   -2.2317   -2.3273 H   0  0  0  0  0  0  0  0  0  0  0  0
    6.8533   -3.8236   -2.6145 H   0  0  0  0  0  0  0  0  0  0  0  0
    4.3573   -4.2490   -2.6664 H   0  0  0  0  0  0  0  0  0  0  0  0
    3.2299   -2.9399   -2.3919 H   0  0  0  0  0  0  0  0  0  0  0  0
    2.9981   -1.8905   -0.0680 H   0  0  0  0  0  0  0  0  0  0  0  0
    3.9700   -2.4666    1.2710 H   0  0  0  0  0  0  0  0  0  0  0  0
    2.2535   -4.1764   -0.4663 H   0  0  0  0  0  0  0  0  0  0  0  0
  1  2  3  0
  2  3  1  0
  3  7  1  0
  3  4  1  0
  3 22  1  6
  4  5  1  0
  4 23  1  0
  4 24  1  0
  5  6  1  0
  5 25  1  0
  5 26  1  0
  6  7  1  0
  6 27  1  0
  6 28  1  0
  7  8  1  0
  8  9  2  0
  8 10  1  0
 10 11  1  0
 10 29  1  0
 10 30  1  0
 12 11  1  6
 11 31  1  0
 11 47  1  0
 12 20  1  0
 12 21  1  0
 12 13  1  0
 13 14  1  0
 13 32  1  0
 13 33  1  0
 14 19  1  0
 14 15  1  0
 14 34  1  1
 15 16  1  0
 15 35  1  0
 15 36  1  0
 16 17  1  0
 16 21  1  0
 16 37  1  1
 17 18  1  0
 17 38  1  0
 17 39  1  0
 18 19  1  0
 18 20  1  0
 18 40  1  6
 19 41  1  0
 19 42  1  0
 20 43  1  0
 20 44  1  0
 21 45  1  0
 21 46  1  0
M  CHG  1  11   1
M  END
>  <i_m_ct_stereo_status>  (291) 
1

>  <s_m_source_file>  (291) 
/var/tmp/pbs.5076255.sched01/tmph7d3_0rd/117btfl79hs.sdf

>  <i_m_source_file_index>  (291) 
16

>  <i_lp_mmshare_version>  (291) 
48012

>  <i_f3d_flags>  (291) 
0

>  <s_epik_input>  (291) 
TiNDW0NAQEhdMVtDSDJdW0NIMl1bQ0gyXU4xQyg9TylbQ0gyXVtOSF1DMjNbQ0gyXVtDQEBIXTRbQ0gyXVtDQEhdKFtDSDJdMylbQ0gyXVtDQEBIXShbQ0gyXTQpW0NIMl0y

>  <s_epik_cmdline>  (291) 
J2VwaWtfcHl0aG9uJywgJy1waHQnLCAnMi4wJywgJy1waCcsICc3LjAnLCAnLXRuJywgJzgnLCAnLW1hJywgJzIwMCcsICctaW1hZScsICc8aW5maWxlLm1hZT4nLCAnLW9tYWUnLCAnPG91dGZpbGUubWFlPic=

>  <r_epik_Ionization_Penalty>  (291) 
0.0368202

>  <r_epik_Ionization_Penalty_Charging>  (291) 
0.0368202

>  <r_epik_Ionization_Penalty_Neutral>  (291) 
3.08275e-08

>  <r_epik_State_Penalty>  (291) 
0.0307816

>  <r_epik_Charging_Adjusted_Penalty>  (291) 
0.0676017

>  <i_epik_Tot_Q>  (291) 
1

>  <i_epik_Tot_abs_Q>  (291) 
1

>  <s_lp_Force_Field>  (291) 
OPLS3e

>  <r_lp_Energy>  (291) 
20.8524

>  <b_lp_Chiralities_Consistent>  (291) 
1

>  <s_lp_Variant>  (291) 
99:0-1

>  <s_i_glide_gridfile>  (291) 
pfpi4k_grid

>  <i_i_glide_lignum>  (291) 
16

>  <i_i_glide_rotatable_bonds>  (291) 
5

>  <r_i_docking_score>  (291) 
-4.52256

>  <r_i_glide_ligand_efficiency>  (291) 
-0.21536

>  <r_i_glide_ligand_efficiency_sa>  (291) 
-0.594162

>  <r_i_glide_ligand_efficiency_ln>  (291) 
-1.11819

>  <r_i_glide_gscore>  (291) 
-4.52256

>  <r_i_glide_lipo>  (291) 
-0.253839

>  <r_i_glide_hbond>  (291) 
-0.405594

>  <r_i_glide_metal>  (291) 
-0

>  <r_i_glide_rewards>  (291) 
-1.44267

>  <r_i_glide_evdw>  (291) 
-20.5617

>  <r_i_glide_ecoul>  (291) 
-12.5432

>  <r_i_glide_erotb>  (291) 
0.656134

>  <r_i_glide_esite>  (291) 
-0.16702

>  <r_i_glide_emodel>  (291) 
-42.928

>  <r_i_glide_energy>  (291) 
-33.1049

>  <r_i_glide_einternal>  (291) 
0.724184

>  <r_i_glide_intrahb_reward>  (291) 
-0

>  <i_i_glide_confnum>  (291) 
2

>  <i_i_glide_posenum>  (291) 
1

>  <r_i_glide_eff_state_penalty>  (291) 
0

>  <ligand_id>  (291) 
99

>  <original_smiles>  (291) 
N#CC1CCCN1C(=O)CNC12CC3CC(CC(C3)C1)C2

>  <smiles>  (291) 
[H]C1([H])N(C(=O)C([H])([H])[N+]([H])([H])C23C([H])([H])C4([H])C([H])([H])C([H])(C([H])([H])C([H])(C4([H])[H])C2([H])[H])C3([H])[H])C([H])(C#N)C([H])([H])C1([H])[H]

$$$$
99:0:1
     RDKit          3D

 47 50  0  0  1  0  0  0  0  0999 V2000
    5.5868   -8.0627    1.3015 N   0  0  0  0  0  0  0  0  0  0  0  0
    4.6817   -7.8343    1.9762 C   0  0  0  0  0  0  0  0  0  0  0  0
    3.5120   -7.5185    2.8382 C   0  0  2  0  0  0  0  0  0  0  0  0
    3.1998   -8.6842    3.7739 C   0  0  0  0  0  0  0  0  0  0  0  0
    2.1541   -9.4849    3.0199 C   0  0  0  0  0  0  0  0  0  0  0  0
    1.3707   -8.4295    2.2407 C   0  0  0  0  0  0  0  0  0  0  0  0
    2.2841   -7.3010    2.0442 N   0  0  0  0  0  0  0  0  0  0  0  0
    2.0315   -6.2721    1.2084 C   0  0  0  0  0  0  0  0  0  0  0  0
    0.9845   -6.1846    0.5534 O   0  0  0  0  0  0  0  0  0  0  0  0
    3.0823   -5.1687    1.0507 C   0  0  0  0  0  0  0  0  0  0  0  0
    3.1299   -4.6090   -0.3189 N   0  0  0  0  0  0  0  0  0  0  0  0
    4.2018   -3.6274   -0.6192 C   0  0  1  0  0  0  0  0  0  0  0  0
    3.9401   -2.2813    0.1067 C   0  0  0  0  0  0  0  0  0  0  0  0
    5.0617   -1.2731   -0.2281 C   0  0  2  0  0  0  0  0  0  0  0  0
    5.0631   -1.0079   -1.7464 C   0  0  0  0  0  0  0  0  0  0  0  0
    5.3433   -2.3264   -2.4857 C   0  0  1  0  0  0  0  0  0  0  0  0
    6.7169   -2.8893   -2.0687 C   0  0  0  0  0  0  0  0  0  0  0  0
    6.7040   -3.1532   -0.5554 C   0  0  1  0  0  0  0  0  0  0  0  0
    6.4246   -1.8476    0.2173 C   0  0  0  0  0  0  0  0  0  0  0  0
    5.6052   -4.1672   -0.2195 C   0  0  0  0  0  0  0  0  0  0  0  0
    4.2291   -3.3411   -2.1470 C   0  0  0  0  0  0  0  0  0  0  0  0
    3.7559   -6.6334    3.4344 H   0  0  0  0  0  0  0  0  0  0  0  0
    4.0804   -9.2773    4.0174 H   0  0  0  0  0  0  0  0  0  0  0  0
    2.7786   -8.3199    4.7110 H   0  0  0  0  0  0  0  0  0  0  0  0
    2.6460  -10.1730    2.3298 H   0  0  0  0  0  0  0  0  0  0  0  0
    1.5194  -10.0771    3.6766 H   0  0  0  0  0  0  0  0  0  0  0  0
    1.0407   -8.8116    1.2776 H   0  0  0  0  0  0  0  0  0  0  0  0
    0.5000   -8.0965    2.8024 H   0  0  0  0  0  0  0  0  0  0  0  0
    2.8724   -4.3997    1.7902 H   0  0  0  0  0  0  0  0  0  0  0  0
    4.0435   -5.5937    1.3111 H   0  0  0  0  0  0  0  0  0  0  0  0
    3.2577   -5.3794   -0.9744 H   0  0  0  0  0  0  0  0  0  0  0  0
    2.9780   -1.8573   -0.1959 H   0  0  0  0  0  0  0  0  0  0  0  0
    3.9034   -2.4070    1.1895 H   0  0  0  0  0  0  0  0  0  0  0  0
    4.8753   -0.3331    0.2974 H   0  0  0  0  0  0  0  0  0  0  0  0
    4.1059   -0.5856   -2.0598 H   0  0  0  0  0  0  0  0  0  0  0  0
    5.8186   -0.2656   -1.9921 H   0  0  0  0  0  0  0  0  0  0  0  0
    5.3463   -2.1466   -3.5571 H   0  0  0  0  0  0  0  0  0  0  0  0
    6.9235   -3.8097   -2.6153 H   0  0  0  0  0  0  0  0  0  0  0  0
    7.5316   -2.2108   -2.3177 H   0  0  0  0  0  0  0  0  0  0  0  0
    7.6681   -3.5587   -0.2439 H   0  0  0  0  0  0  0  0  0  0  0  0
    7.2256   -1.1288    0.0619 H   0  0  0  0  0  0  0  0  0  0  0  0
    6.4041   -2.0418    1.2893 H   0  0  0  0  0  0  0  0  0  0  0  0
    5.7134   -4.3259    0.8497 H   0  0  0  0  0  0  0  0  0  0  0  0
    5.7961   -5.1191   -0.7121 H   0  0  0  0  0  0  0  0  0  0  0  0
    4.4120   -4.2558   -2.7156 H   0  0  0  0  0  0  0  0  0  0  0  0
    3.2725   -2.9414   -2.4967 H   0  0  0  0  0  0  0  0  0  0  0  0
    2.2324   -4.2013   -0.5475 H   0  0  0  0  0  0  0  0  0  0  0  0
  1  2  3  0
  2  3  1  0
  3  7  1  0
  3  4  1  0
  3 22  1  1
  4  5  1  0
  4 23  1  0
  4 24  1  0
  5  6  1  0
  5 25  1  0
  5 26  1  0
  6  7  1  0
  6 27  1  0
  6 28  1  0
  7  8  1  0
  8  9  2  0
  8 10  1  0
 10 11  1  0
 10 29  1  0
 10 30  1  0
 12 11  1  6
 11 31  1  0
 11 47  1  0
 12 20  1  0
 12 21  1  0
 12 13  1  0
 13 14  1  0
 13 32  1  0
 13 33  1  0
 14 19  1  0
 14 15  1  0
 14 34  1  1
 15 16  1  0
 15 35  1  0
 15 36  1  0
 16 17  1  0
 16 21  1  0
 16 37  1  6
 17 18  1  0
 17 38  1  0
 17 39  1  0
 18 19  1  0
 18 20  1  0
 18 40  1  1
 19 41  1  0
 19 42  1  0
 20 43  1  0
 20 44  1  0
 21 45  1  0
 21 46  1  0
M  CHG  1  11   1
M  END
>  <i_m_ct_stereo_status>  (292) 
1

>  <s_m_source_file>  (292) 
/var/tmp/pbs.5076255.sched01/tmph7d3_0rd/117btfl79hs.sdf

>  <i_m_source_file_index>  (292) 
16

>  <i_lp_mmshare_version>  (292) 
48012

>  <i_f3d_flags>  (292) 
0

>  <s_epik_input>  (292) 
TiNDW0NAQEhdMVtDSDJdW0NIMl1bQ0gyXU4xQyg9TylbQ0gyXVtOSF1DMjNbQ0gyXVtDQEBIXTRbQ0gyXVtDQEhdKFtDSDJdMylbQ0gyXVtDQEBIXShbQ0gyXTQpW0NIMl0y

>  <s_epik_cmdline>  (292) 
J2VwaWtfcHl0aG9uJywgJy1waHQnLCAnMi4wJywgJy1waCcsICc3LjAnLCAnLXRuJywgJzgnLCAnLW1hJywgJzIwMCcsICctaW1hZScsICc8aW5maWxlLm1hZT4nLCAnLW9tYWUnLCAnPG91dGZpbGUubWFlPic=

>  <r_epik_Ionization_Penalty>  (292) 
0.0368202

>  <r_epik_Ionization_Penalty_Charging>  (292) 
0.0368202

>  <r_epik_Ionization_Penalty_Neutral>  (292) 
3.08275e-08

>  <r_epik_State_Penalty>  (292) 
0.0307816

>  <r_epik_Charging_Adjusted_Penalty>  (292) 
0.0676017

>  <i_epik_Tot_Q>  (292) 
1

>  <i_epik_Tot_abs_Q>  (292) 
1

>  <s_lp_Force_Field>  (292) 
OPLS3e

>  <r_lp_Energy>  (292) 
20.8524

>  <b_lp_Chiralities_Consistent>  (292) 
1

>  <s_lp_Variant>  (292) 
99:0-1

>  <s_i_glide_gridfile>  (292) 
pfpi4k_grid

>  <i_i_glide_lignum>  (292) 
16

>  <i_i_glide_rotatable_bonds>  (292) 
5

>  <r_i_docking_score>  (292) 
-3.87418

>  <r_i_glide_ligand_efficiency>  (292) 
-0.184485

>  <r_i_glide_ligand_efficiency_sa>  (292) 
-0.508979

>  <r_i_glide_ligand_efficiency_ln>  (292) 
-0.957882

>  <r_i_glide_gscore>  (292) 
-3.87418

>  <r_i_glide_lipo>  (292) 
-0.257131

>  <r_i_glide_hbond>  (292) 
-0.16

>  <r_i_glide_metal>  (292) 
-0

>  <r_i_glide_rewards>  (292) 
-1.46974

>  <r_i_glide_evdw>  (292) 
-20.3264

>  <r_i_glide_ecoul>  (292) 
-10.2757

>  <r_i_glide_erotb>  (292) 
0.656134

>  <r_i_glide_esite>  (292) 
-0.0857669

>  <r_i_glide_emodel>  (292) 
-38.4658

>  <r_i_glide_energy>  (292) 
-30.6021

>  <r_i_glide_einternal>  (292) 
1.31421

>  <r_i_glide_intrahb_reward>  (292) 
-0

>  <i_i_glide_confnum>  (292) 
1

>  <i_i_glide_posenum>  (292) 
10

>  <r_i_glide_eff_state_penalty>  (292) 
0

>  <ligand_id>  (292) 
99

>  <original_smiles>  (292) 
N#CC1CCCN1C(=O)CNC12CC3CC(CC(C3)C1)C2

>  <smiles>  (292) 
[H]C1([H])N(C(=O)C([H])([H])[N+]([H])([H])C23C([H])([H])C4([H])C([H])([H])C([H])(C([H])([H])C([H])(C4([H])[H])C2([H])[H])C3([H])[H])C([H])(C#N)C([H])([H])C1([H])[H]

$$$$
99:0:2
     RDKit          3D

 47 50  0  0  1  0  0  0  0  0999 V2000
    2.7823   -5.0691    0.1657 N   0  0  0  0  0  0  0  0  0  0  0  0
    2.9052   -4.1851   -0.5672 C   0  0  0  0  0  0  0  0  0  0  0  0
    3.0619   -3.0325   -1.4856 C   0  0  2  0  0  0  0  0  0  0  0  0
    2.8730   -3.3717   -2.9594 C   0  0  0  0  0  0  0  0  0  0  0  0
    4.2907   -3.6170   -3.4628 C   0  0  0  0  0  0  0  0  0  0  0  0
    5.1460   -2.6608   -2.6386 C   0  0  0  0  0  0  0  0  0  0  0  0
    4.4048   -2.4438   -1.3912 N   0  0  0  0  0  0  0  0  0  0  0  0
    4.9208   -1.7976   -0.3376 C   0  0  0  0  0  0  0  0  0  0  0  0
    6.0634   -1.3219   -0.3638 O   0  0  0  0  0  0  0  0  0  0  0  0
    4.0921   -1.6240    0.9498 C   0  0  0  0  0  0  0  0  0  0  0  0
    3.0233   -0.5988    0.7936 N   0  0  0  0  0  0  0  0  0  0  0  0
    2.3146   -0.1441    2.0133 C   0  0  1  0  0  0  0  0  0  0  0  0
    1.5047    1.1348    1.6718 C   0  0  0  0  0  0  0  0  0  0  0  0
    0.7325    1.6380    2.9086 C   0  0  2  0  0  0  0  0  0  0  0  0
    1.7318    1.9706    4.0356 C   0  0  0  0  0  0  0  0  0  0  0  0
    2.5107    0.6954    4.3988 C   0  0  1  0  0  0  0  0  0  0  0  0
    1.5382   -0.4095    4.8621 C   0  0  0  0  0  0  0  0  0  0  0  0
    0.5454   -0.7319    3.7233 C   0  0  1  0  0  0  0  0  0  0  0  0
   -0.2488    0.5393    3.3644 C   0  0  0  0  0  0  0  0  0  0  0  0
    1.3192   -1.2300    2.4839 C   0  0  0  0  0  0  0  0  0  0  0  0
    3.2898    0.1920    3.1740 C   0  0  0  0  0  0  0  0  0  0  0  0
    2.3048   -2.3042   -1.2121 H   0  0  0  0  0  0  0  0  0  0  0  0
    2.1967   -4.2080   -3.1130 H   0  0  0  0  0  0  0  0  0  0  0  0
    2.4388   -2.5143   -3.4766 H   0  0  0  0  0  0  0  0  0  0  0  0
    4.6095   -4.6372   -3.2391 H   0  0  0  0  0  0  0  0  0  0  0  0
    4.3880   -3.4590   -4.5352 H   0  0  0  0  0  0  0  0  0  0  0  0
    6.1356   -3.0755   -2.4401 H   0  0  0  0  0  0  0  0  0  0  0  0
    5.2585   -1.7007   -3.1382 H   0  0  0  0  0  0  0  0  0  0  0  0
    3.6739   -2.5798    1.2660 H   0  0  0  0  0  0  0  0  0  0  0  0
    4.8302   -1.3555    1.7023 H   0  0  0  0  0  0  0  0  0  0  0  0
    3.4555    0.2054    0.3517 H   0  0  0  0  0  0  0  0  0  0  0  0
    2.1681    1.9265    1.3168 H   0  0  0  0  0  0  0  0  0  0  0  0
    0.7888    0.9387    0.8685 H   0  0  0  0  0  0  0  0  0  0  0  0
    0.1775    2.5397    2.6412 H   0  0  0  0  0  0  0  0  0  0  0  0
    2.4222    2.7508    3.7058 H   0  0  0  0  0  0  0  0  0  0  0  0
    1.2042    2.3534    4.9088 H   0  0  0  0  0  0  0  0  0  0  0  0
    3.2177    0.9189    5.1961 H   0  0  0  0  0  0  0  0  0  0  0  0
    2.0936   -1.3077    5.1339 H   0  0  0  0  0  0  0  0  0  0  0  0
    1.0022   -0.0876    5.7543 H   0  0  0  0  0  0  0  0  0  0  0  0
   -0.1482   -1.5053    4.0561 H   0  0  0  0  0  0  0  0  0  0  0  0
   -0.8248    0.8821    4.2234 H   0  0  0  0  0  0  0  0  0  0  0  0
   -0.9632    0.3356    2.5671 H   0  0  0  0  0  0  0  0  0  0  0  0
    0.6162   -1.4563    1.6820 H   0  0  0  0  0  0  0  0  0  0  0  0
    1.8351   -2.1574    2.7315 H   0  0  0  0  0  0  0  0  0  0  0  0
    3.8520   -0.6807    3.5068 H   0  0  0  0  0  0  0  0  0  0  0  0
    4.0123    0.9426    2.8546 H   0  0  0  0  0  0  0  0  0  0  0  0
    2.3021   -0.9243    0.1481 H   0  0  0  0  0  0  0  0  0  0  0  0
  1  2  3  0
  2  3  1  0
  3  7  1  0
  3  4  1  0
  3 22  1  1
  4  5  1  0
  4 23  1  0
  4 24  1  0
  5  6  1  0
  5 25  1  0
  5 26  1  0
  6  7  1  0
  6 27  1  0
  6 28  1  0
  7  8  1  0
  8  9  2  0
  8 10  1  0
 10 11  1  0
 10 29  1  0
 10 30  1  0
 12 11  1  6
 11 31  1  0
 11 47  1  0
 12 20  1  0
 12 21  1  0
 12 13  1  0
 13 14  1  0
 13 32  1  0
 13 33  1  0
 14 19  1  0
 14 15  1  0
 14 34  1  6
 15 16  1  0
 15 35  1  0
 15 36  1  0
 16 17  1  0
 16 21  1  0
 16 37  1  1
 17 18  1  0
 17 38  1  0
 17 39  1  0
 18 19  1  0
 18 20  1  0
 18 40  1  1
 19 41  1  0
 19 42  1  0
 20 43  1  0
 20 44  1  0
 21 45  1  0
 21 46  1  0
M  CHG  1  11   1
M  END
>  <i_m_ct_stereo_status>  (293) 
1

>  <s_m_source_file>  (293) 
/var/tmp/pbs.5076255.sched01/tmph7d3_0rd/117btfl79hs.sdf

>  <i_m_source_file_index>  (293) 
16

>  <i_lp_mmshare_version>  (293) 
48012

>  <i_f3d_flags>  (293) 
0

>  <s_epik_input>  (293) 
TiNDW0NAQEhdMVtDSDJdW0NIMl1bQ0gyXU4xQyg9TylbQ0gyXVtOSF1DMjNbQ0gyXVtDQEBIXTRbQ0gyXVtDQEhdKFtDSDJdMylbQ0gyXVtDQEBIXShbQ0gyXTQpW0NIMl0y

>  <s_epik_cmdline>  (293) 
J2VwaWtfcHl0aG9uJywgJy1waHQnLCAnMi4wJywgJy1waCcsICc3LjAnLCAnLXRuJywgJzgnLCAnLW1hJywgJzIwMCcsICctaW1hZScsICc8aW5maWxlLm1hZT4nLCAnLW9tYWUnLCAnPG91dGZpbGUubWFlPic=

>  <r_epik_Ionization_Penalty>  (293) 
0.0368202

>  <r_epik_Ionization_Penalty_Charging>  (293) 
0.0368202

>  <r_epik_Ionization_Penalty_Neutral>  (293) 
3.08275e-08

>  <r_epik_State_Penalty>  (293) 
0.0307816

>  <r_epik_Charging_Adjusted_Penalty>  (293) 
0.0676017

>  <i_epik_Tot_Q>  (293) 
1

>  <i_epik_Tot_abs_Q>  (293) 
1

>  <s_lp_Force_Field>  (293) 
OPLS3e

>  <r_lp_Energy>  (293) 
20.8524

>  <b_lp_Chiralities_Consistent>  (293) 
1

>  <s_lp_Variant>  (293) 
99:0-1

>  <s_i_glide_gridfile>  (293) 
pfpi4k_grid

>  <i_i_glide_lignum>  (293) 
16

>  <i_i_glide_rotatable_bonds>  (293) 
5

>  <r_i_docking_score>  (293) 
-3.81928

>  <r_i_glide_ligand_efficiency>  (293) 
-0.181871

>  <r_i_glide_ligand_efficiency_sa>  (293) 
-0.501767

>  <r_i_glide_ligand_efficiency_ln>  (293) 
-0.94431

>  <r_i_glide_gscore>  (293) 
-3.81928

>  <r_i_glide_lipo>  (293) 
-0.322326

>  <r_i_glide_hbond>  (293) 
-0.241339

>  <r_i_glide_metal>  (293) 
-0

>  <r_i_glide_rewards>  (293) 
-1.44267

>  <r_i_glide_evdw>  (293) 
-19.5063

>  <r_i_glide_ecoul>  (293) 
-8.96635

>  <r_i_glide_erotb>  (293) 
0.656134

>  <r_i_glide_esite>  (293) 
-0.148812

>  <r_i_glide_emodel>  (293) 
-35.2239

>  <r_i_glide_energy>  (293) 
-28.4726

>  <r_i_glide_einternal>  (293) 
3.23639

>  <r_i_glide_intrahb_reward>  (293) 
-0

>  <i_i_glide_confnum>  (293) 
1

>  <i_i_glide_posenum>  (293) 
7

>  <r_i_glide_eff_state_penalty>  (293) 
0

>  <ligand_id>  (293) 
99

>  <original_smiles>  (293) 
N#CC1CCCN1C(=O)CNC12CC3CC(CC(C3)C1)C2

>  <smiles>  (293) 
[H]C1([H])N(C(=O)C([H])([H])[N+]([H])([H])C23C([H])([H])C4([H])C([H])([H])C([H])(C([H])([H])C([H])(C4([H])[H])C2([H])[H])C3([H])[H])C([H])(C#N)C([H])([H])C1([H])[H]

$$$$
99:1:0
     RDKit          3D

 46 49  0  0  1  0  0  0  0  0999 V2000
   -8.3470   -6.5615   -8.2236 N   0  0  0  0  0  0  0  0  0  0  0  0
   -8.0795   -6.3877   -7.1165 C   0  0  0  0  0  0  0  0  0  0  0  0
   -7.7342   -6.1604   -5.6918 C   0  0  2  0  0  0  0  0  0  0  0  0
   -8.3040   -4.8357   -5.1804 C   0  0  0  0  0  0  0  0  0  0  0  0
   -7.1540   -3.8919   -5.4001 C   0  0  0  0  0  0  0  0  0  0  0  0
   -5.9004   -4.7163   -5.1529 C   0  0  0  0  0  0  0  0  0  0  0  0
   -6.2832   -6.0921   -5.4695 N   0  0  0  0  0  0  0  0  0  0  0  0
   -5.3987   -7.1071   -5.5396 C   0  0  0  0  0  0  0  0  0  0  0  0
   -4.1886   -6.9534   -5.3619 O   0  0  0  0  0  0  0  0  0  0  0  0
   -5.9533   -8.5010   -5.9095 C   0  0  0  0  0  0  0  0  0  0  0  0
   -4.9333   -9.5562   -6.0823 N   0  0  0  0  0  0  0  0  0  0  0  0
   -5.3892  -10.8351   -6.6557 C   0  0  2  0  0  0  0  0  0  0  0  0
   -4.9440  -10.8960   -8.1316 C   0  0  0  0  0  0  0  0  0  0  0  0
   -5.3440  -12.2529   -8.7629 C   0  0  1  0  0  0  0  0  0  0  0  0
   -4.6599  -13.4007   -7.9946 C   0  0  0  0  0  0  0  0  0  0  0  0
   -5.1065  -13.3552   -6.5232 C   0  0  2  0  0  0  0  0  0  0  0  0
   -6.6426  -13.5155   -6.4378 C   0  0  0  0  0  0  0  0  0  0  0  0
   -7.3194  -12.3779   -7.2171 C   0  0  2  0  0  0  0  0  0  0  0  0
   -6.8738  -12.4054   -8.6909 C   0  0  0  0  0  0  0  0  0  0  0  0
   -6.9323  -11.0354   -6.5939 C   0  0  0  0  0  0  0  0  0  0  0  0
   -4.6891  -11.9993   -5.9045 C   0  0  0  0  0  0  0  0  0  0  0  0
   -8.1668   -6.9679   -5.1192 H   0  0  0  0  0  0  0  0  0  0  0  0
   -9.2058   -4.5197   -5.7075 H   0  0  0  0  0  0  0  0  0  0  0  0
   -8.5382   -4.8768   -4.1155 H   0  0  0  0  0  0  0  0  0  0  0  0
   -7.2083   -3.5901   -6.4443 H   0  0  0  0  0  0  0  0  0  0  0  0
   -7.1940   -3.0510   -4.7297 H   0  0  0  0  0  0  0  0  0  0  0  0
   -5.0735   -4.3696   -5.7684 H   0  0  0  0  0  0  0  0  0  0  0  0
   -5.5978   -4.6588   -4.1097 H   0  0  0  0  0  0  0  0  0  0  0  0
   -6.6654   -8.7986   -5.1328 H   0  0  0  0  0  0  0  0  0  0  0  0
   -6.4789   -8.3688   -6.8582 H   0  0  0  0  0  0  0  0  0  0  0  0
   -4.3586   -9.6873   -5.2583 H   0  0  0  0  0  0  0  0  0  0  0  0
   -5.3905  -10.0649   -8.6831 H   0  0  0  0  0  0  0  0  0  0  0  0
   -3.8599  -10.7715   -8.1952 H   0  0  0  0  0  0  0  0  0  0  0  0
   -5.0265  -12.2775   -9.8049 H   0  0  0  0  0  0  0  0  0  0  0  0
   -4.9123  -14.3590   -8.4429 H   0  0  0  0  0  0  0  0  0  0  0  0
   -3.5764  -13.3095   -8.0636 H   0  0  0  0  0  0  0  0  0  0  0  0
   -4.6201  -14.1652   -5.9790 H   0  0  0  0  0  0  0  0  0  0  0  0
   -6.9622  -14.4791   -6.8383 H   0  0  0  0  0  0  0  0  0  0  0  0
   -6.9550  -13.4654   -5.3929 H   0  0  0  0  0  0  0  0  0  0  0  0
   -8.4014  -12.4928   -7.1621 H   0  0  0  0  0  0  0  0  0  0  0  0
   -7.3402  -11.5891   -9.2386 H   0  0  0  0  0  0  0  0  0  0  0  0
   -7.1972  -13.3229   -9.1809 H   0  0  0  0  0  0  0  0  0  0  0  0
   -7.2758  -10.9966   -5.5650 H   0  0  0  0  0  0  0  0  0  0  0  0
   -7.4955  -10.2852   -7.1467 H   0  0  0  0  0  0  0  0  0  0  0  0
   -3.6006  -11.8950   -5.9384 H   0  0  0  0  0  0  0  0  0  0  0  0
   -4.9481  -11.9878   -4.8466 H   0  0  0  0  0  0  0  0  0  0  0  0
  1  2  3  0
  2  3  1  0
  3  7  1  0
  3  4  1  0
  3 22  1  1
  4  5  1  0
  4 23  1  0
  4 24  1  0
  5  6  1  0
  5 25  1  0
  5 26  1  0
  6  7  1  0
  6 27  1  0
  6 28  1  0
  7  8  1  0
  8  9  2  0
  8 10  1  0
 10 11  1  0
 10 29  1  0
 10 30  1  0
 12 11  1  1
 11 31  1  0
 12 20  1  0
 12 21  1  0
 12 13  1  0
 13 14  1  0
 13 32  1  0
 13 33  1  0
 14 19  1  0
 14 15  1  0
 14 34  1  6
 15 16  1  0
 15 35  1  0
 15 36  1  0
 16 17  1  0
 16 21  1  0
 16 37  1  1
 17 18  1  0
 17 38  1  0
 17 39  1  0
 18 19  1  0
 18 20  1  0
 18 40  1  6
 19 41  1  0
 19 42  1  0
 20 43  1  0
 20 44  1  0
 21 45  1  0
 21 46  1  0
M  END
>  <i_m_ct_stereo_status>  (294) 
1

>  <s_m_source_file>  (294) 
/var/tmp/pbs.5076255.sched01/tmph7d3_0rd/117btfl79hs.sdf

>  <i_m_source_file_index>  (294) 
17

>  <i_lp_mmshare_version>  (294) 
48012

>  <i_f3d_flags>  (294) 
0

>  <s_epik_input>  (294) 
TiNDW0NAQEhdMVtDSDJdW0NIMl1bQ0gyXU4xQyg9TylbQ0gyXVtOSF1DMjNbQ0gyXVtDQEBIXTRbQ0gyXVtDQEhdKFtDSDJdMylbQ0gyXVtDQEBIXShbQ0gyXTQpW0NIMl0y

>  <s_epik_cmdline>  (294) 
J2VwaWtfcHl0aG9uJywgJy1waHQnLCAnMi4wJywgJy1waCcsICc3LjAnLCAnLXRuJywgJzgnLCAnLW1hJywgJzIwMCcsICctaW1hZScsICc8aW5maWxlLm1hZT4nLCAnLW9tYWUnLCAnPG91dGZpbGUubWFlPic=

>  <r_epik_Ionization_Penalty>  (294) 
1.66441

>  <r_epik_Ionization_Penalty_Charging>  (294) 
0

>  <r_epik_Ionization_Penalty_Neutral>  (294) 
1.66441

>  <r_epik_State_Penalty>  (294) 
1.76755

>  <r_epik_Charging_Adjusted_Penalty>  (294) 
1.76755

>  <i_epik_Tot_Q>  (294) 
0

>  <i_epik_Tot_abs_Q>  (294) 
0

>  <s_lp_Force_Field>  (294) 
OPLS3e

>  <r_lp_Energy>  (294) 
13.0606

>  <b_lp_Chiralities_Consistent>  (294) 
1

>  <s_lp_Variant>  (294) 
99:0-2

>  <s_i_glide_gridfile>  (294) 
pfpi4k_grid

>  <i_i_glide_lignum>  (294) 
17

>  <i_i_glide_rotatable_bonds>  (294) 
5

>  <r_i_docking_score>  (294) 
-6.35341

>  <r_i_glide_ligand_efficiency>  (294) 
-0.302543

>  <r_i_glide_ligand_efficiency_sa>  (294) 
-0.834693

>  <r_i_glide_ligand_efficiency_ln>  (294) 
-1.57087

>  <r_i_glide_gscore>  (294) 
-6.35341

>  <r_i_glide_lipo>  (294) 
-1.90031

>  <r_i_glide_hbond>  (294) 
-0.256425

>  <r_i_glide_metal>  (294) 
-0

>  <r_i_glide_rewards>  (294) 
-3.17083

>  <r_i_glide_evdw>  (294) 
-21.8916

>  <r_i_glide_ecoul>  (294) 
-3.94274

>  <r_i_glide_erotb>  (294) 
0.660148

>  <r_i_glide_esite>  (294) 
0

>  <r_i_glide_emodel>  (294) 
-32.9498

>  <r_i_glide_energy>  (294) 
-25.8344

>  <r_i_glide_einternal>  (294) 
12.155

>  <r_i_glide_intrahb_reward>  (294) 
-0

>  <i_i_glide_confnum>  (294) 
5

>  <i_i_glide_posenum>  (294) 
13

>  <r_i_glide_eff_state_penalty>  (294) 
0

>  <ligand_id>  (294) 
99

>  <original_smiles>  (294) 
N#CC1CCCN1C(=O)CNC12CC3CC(CC(C3)C1)C2

>  <smiles>  (294) 
[H]N(C([H])([H])C(=O)N1C([H])([H])C([H])([H])C([H])([H])C1([H])C#N)C12C([H])([H])C3([H])C([H])([H])C([H])(C([H])([H])C([H])(C3([H])[H])C1([H])[H])C2([H])[H]

$$$$
99:1:1
     RDKit          3D

 46 49  0  0  1  0  0  0  0  0999 V2000
   -8.4671   -4.6909   -7.9099 N   0  0  0  0  0  0  0  0  0  0  0  0
   -8.1639   -5.0823   -6.8656 C   0  0  0  0  0  0  0  0  0  0  0  0
   -7.7859   -5.5929   -5.5258 C   0  0  2  0  0  0  0  0  0  0  0  0
   -7.6210   -4.4610   -4.5140 C   0  0  0  0  0  0  0  0  0  0  0  0
   -6.1304   -4.1667   -4.5266 C   0  0  0  0  0  0  0  0  0  0  0  0
   -5.4809   -5.5157   -4.8320 C   0  0  0  0  0  0  0  0  0  0  0  0
   -6.4935   -6.2936   -5.5378 N   0  0  0  0  0  0  0  0  0  0  0  0
   -6.2152   -7.4734   -6.1453 C   0  0  0  0  0  0  0  0  0  0  0  0
   -5.0762   -7.9419   -6.1613 O   0  0  0  0  0  0  0  0  0  0  0  0
   -7.3531   -8.2003   -6.8792 C   0  0  0  0  0  0  0  0  0  0  0  0
   -7.2762   -9.6773   -6.8297 N   0  0  0  0  0  0  0  0  0  0  0  0
   -8.2528  -10.4238   -7.6479 C   0  0  2  0  0  0  0  0  0  0  0  0
   -7.4561  -11.1767   -8.7404 C   0  0  0  0  0  0  0  0  0  0  0  0
   -8.4269  -12.0145   -9.6137 C   0  0  1  0  0  0  0  0  0  0  0  0
   -9.1542  -13.0438   -8.7271 C   0  0  0  0  0  0  0  0  0  0  0  0
   -9.9601  -12.3037   -7.6396 C   0  0  2  0  0  0  0  0  0  0  0  0
  -11.0004  -11.3729   -8.3021 C   0  0  0  0  0  0  0  0  0  0  0  0
  -10.2684  -10.3525   -9.1901 C   0  0  2  0  0  0  0  0  0  0  0  0
   -9.4534  -11.0770  -10.2780 C   0  0  0  0  0  0  0  0  0  0  0  0
   -9.3211   -9.5147   -8.3284 C   0  0  0  0  0  0  0  0  0  0  0  0
   -8.9877  -11.4756   -6.7654 C   0  0  0  0  0  0  0  0  0  0  0  0
   -8.5867   -6.2306   -5.1679 H   0  0  0  0  0  0  0  0  0  0  0  0
   -8.2468   -3.5958   -4.7468 H   0  0  0  0  0  0  0  0  0  0  0  0
   -7.9004   -4.8178   -3.5236 H   0  0  0  0  0  0  0  0  0  0  0  0
   -5.9195   -3.4669   -5.3314 H   0  0  0  0  0  0  0  0  0  0  0  0
   -5.7861   -3.7217   -3.5936 H   0  0  0  0  0  0  0  0  0  0  0  0
   -4.5869   -5.3873   -5.4374 H   0  0  0  0  0  0  0  0  0  0  0  0
   -5.2143   -6.0441   -3.9230 H   0  0  0  0  0  0  0  0  0  0  0  0
   -8.3107   -7.8983   -6.4656 H   0  0  0  0  0  0  0  0  0  0  0  0
   -7.2971   -7.8572   -7.9132 H   0  0  0  0  0  0  0  0  0  0  0  0
   -7.2756  -10.0205   -5.8812 H   0  0  0  0  0  0  0  0  0  0  0  0
   -6.8976  -10.4713   -9.3490 H   0  0  0  0  0  0  0  0  0  0  0  0
   -6.7037  -11.8169   -8.2872 H   0  0  0  0  0  0  0  0  0  0  0  0
   -7.8575  -12.5316  -10.3811 H   0  0  0  0  0  0  0  0  0  0  0  0
   -9.8109  -13.6638   -9.3307 H   0  0  0  0  0  0  0  0  0  0  0  0
   -8.4337  -13.7235   -8.2697 H   0  0  0  0  0  0  0  0  0  0  0  0
  -10.4836  -13.0359   -7.0221 H   0  0  0  0  0  0  0  0  0  0  0  0
  -11.7213  -11.9447   -8.8900 H   0  0  0  0  0  0  0  0  0  0  0  0
  -11.5724  -10.8548   -7.5294 H   0  0  0  0  0  0  0  0  0  0  0  0
  -11.0020   -9.6960   -9.6577 H   0  0  0  0  0  0  0  0  0  0  0  0
   -8.9351  -10.3470  -10.8996 H   0  0  0  0  0  0  0  0  0  0  0  0
  -10.1089  -11.6311  -10.9456 H   0  0  0  0  0  0  0  0  0  0  0  0
   -9.9169   -8.9948   -7.5814 H   0  0  0  0  0  0  0  0  0  0  0  0
   -8.8775   -8.7551   -8.9703 H   0  0  0  0  0  0  0  0  0  0  0  0
   -8.2710  -12.1372   -6.2784 H   0  0  0  0  0  0  0  0  0  0  0  0
   -9.5416  -10.9991   -5.9592 H   0  0  0  0  0  0  0  0  0  0  0  0
  1  2  3  0
  2  3  1  0
  3  7  1  0
  3  4  1  0
  3 22  1  1
  4  5  1  0
  4 23  1  0
  4 24  1  0
  5  6  1  0
  5 25  1  0
  5 26  1  0
  6  7  1  0
  6 27  1  0
  6 28  1  0
  7  8  1  0
  8  9  2  0
  8 10  1  0
 10 11  1  0
 10 29  1  0
 10 30  1  0
 12 11  1  1
 11 31  1  0
 12 20  1  0
 12 21  1  0
 12 13  1  0
 13 14  1  0
 13 32  1  0
 13 33  1  0
 14 19  1  0
 14 15  1  0
 14 34  1  6
 15 16  1  0
 15 35  1  0
 15 36  1  0
 16 17  1  0
 16 21  1  0
 16 37  1  1
 17 18  1  0
 17 38  1  0
 17 39  1  0
 18 19  1  0
 18 20  1  0
 18 40  1  6
 19 41  1  0
 19 42  1  0
 20 43  1  0
 20 44  1  0
 21 45  1  0
 21 46  1  0
M  END
>  <i_m_ct_stereo_status>  (295) 
1

>  <s_m_source_file>  (295) 
/var/tmp/pbs.5076255.sched01/tmph7d3_0rd/117btfl79hs.sdf

>  <i_m_source_file_index>  (295) 
17

>  <i_lp_mmshare_version>  (295) 
48012

>  <i_f3d_flags>  (295) 
0

>  <s_epik_input>  (295) 
TiNDW0NAQEhdMVtDSDJdW0NIMl1bQ0gyXU4xQyg9TylbQ0gyXVtOSF1DMjNbQ0gyXVtDQEBIXTRbQ0gyXVtDQEhdKFtDSDJdMylbQ0gyXVtDQEBIXShbQ0gyXTQpW0NIMl0y

>  <s_epik_cmdline>  (295) 
J2VwaWtfcHl0aG9uJywgJy1waHQnLCAnMi4wJywgJy1waCcsICc3LjAnLCAnLXRuJywgJzgnLCAnLW1hJywgJzIwMCcsICctaW1hZScsICc8aW5maWxlLm1hZT4nLCAnLW9tYWUnLCAnPG91dGZpbGUubWFlPic=

>  <r_epik_Ionization_Penalty>  (295) 
1.66441

>  <r_epik_Ionization_Penalty_Charging>  (295) 
0

>  <r_epik_Ionization_Penalty_Neutral>  (295) 
1.66441

>  <r_epik_State_Penalty>  (295) 
1.76755

>  <r_epik_Charging_Adjusted_Penalty>  (295) 
1.76755

>  <i_epik_Tot_Q>  (295) 
0

>  <i_epik_Tot_abs_Q>  (295) 
0

>  <s_lp_Force_Field>  (295) 
OPLS3e

>  <r_lp_Energy>  (295) 
13.0606

>  <b_lp_Chiralities_Consistent>  (295) 
1

>  <s_lp_Variant>  (295) 
99:0-2

>  <s_i_glide_gridfile>  (295) 
pfpi4k_grid

>  <i_i_glide_lignum>  (295) 
17

>  <i_i_glide_rotatable_bonds>  (295) 
5

>  <r_i_docking_score>  (295) 
-4.97209

>  <r_i_glide_ligand_efficiency>  (295) 
-0.236766

>  <r_i_glide_ligand_efficiency_sa>  (295) 
-0.65322

>  <r_i_glide_ligand_efficiency_ln>  (295) 
-1.22934

>  <r_i_glide_gscore>  (295) 
-4.97209

>  <r_i_glide_lipo>  (295) 
-1.61041

>  <r_i_glide_hbond>  (295) 
0

>  <r_i_glide_metal>  (295) 
-0

>  <r_i_glide_rewards>  (295) 
-2.54903

>  <r_i_glide_evdw>  (295) 
-27.6173

>  <r_i_glide_ecoul>  (295) 
-0.61286

>  <r_i_glide_erotb>  (295) 
0.660148

>  <r_i_glide_esite>  (295) 
0

>  <r_i_glide_emodel>  (295) 
-33.003

>  <r_i_glide_energy>  (295) 
-28.2302

>  <r_i_glide_einternal>  (295) 
11.2291

>  <r_i_glide_intrahb_reward>  (295) 
-0

>  <i_i_glide_confnum>  (295) 
5

>  <i_i_glide_posenum>  (295) 
39

>  <r_i_glide_eff_state_penalty>  (295) 
0

>  <ligand_id>  (295) 
99

>  <original_smiles>  (295) 
N#CC1CCCN1C(=O)CNC12CC3CC(CC(C3)C1)C2

>  <smiles>  (295) 
[H]N(C([H])([H])C(=O)N1C([H])([H])C([H])([H])C([H])([H])C1([H])C#N)C12C([H])([H])C3([H])C([H])([H])C([H])(C([H])([H])C([H])(C3([H])[H])C1([H])[H])C2([H])[H]

$$$$
99:1:2
     RDKit          3D

 46 49  0  0  1  0  0  0  0  0999 V2000
   -1.4394   -7.0566    4.1189 N   0  0  0  0  0  0  0  0  0  0  0  0
   -0.7614   -7.7016    3.4236 C   0  0  0  0  0  0  0  0  0  0  0  0
    0.0912   -8.5080    2.5494 C   0  0  2  0  0  0  0  0  0  0  0  0
    0.6065   -9.7612    3.2651 C   0  0  0  0  0  0  0  0  0  0  0  0
    1.9593   -9.3448    3.8145 C   0  0  0  0  0  0  0  0  0  0  0  0
    2.4811   -8.3408    2.7974 C   0  0  0  0  0  0  0  0  0  0  0  0
    1.3016   -7.7775    2.1519 N   0  0  0  0  0  0  0  0  0  0  0  0
    1.3055   -6.6958    1.3329 C   0  0  0  0  0  0  0  0  0  0  0  0
    0.2680   -6.2573    0.8350 O   0  0  0  0  0  0  0  0  0  0  0  0
    2.6318   -5.9650    1.0187 C   0  0  0  0  0  0  0  0  0  0  0  0
    2.5523   -4.5384    1.3712 N   0  0  0  0  0  0  0  0  0  0  0  0
    3.5800   -3.6577    0.8136 C   0  0  2  0  0  0  0  0  0  0  0  0
    4.9991   -4.0222    1.3344 C   0  0  0  0  0  0  0  0  0  0  0  0
    6.0185   -3.0070    0.7835 C   0  0  1  0  0  0  0  0  0  0  0  0
    6.0134   -3.0417   -0.7604 C   0  0  0  0  0  0  0  0  0  0  0  0
    4.6156   -2.6459   -1.2748 C   0  0  2  0  0  0  0  0  0  0  0  0
    4.2501   -1.2317   -0.7869 C   0  0  0  0  0  0  0  0  0  0  0  0
    4.2647   -1.2079    0.7552 C   0  0  2  0  0  0  0  0  0  0  0  0
    5.6681   -1.5827    1.2658 C   0  0  0  0  0  0  0  0  0  0  0  0
    3.2267   -2.2233    1.2907 C   0  0  0  0  0  0  0  0  0  0  0  0
    3.5750   -3.6561   -0.7400 C   0  0  0  0  0  0  0  0  0  0  0  0
   -0.5111   -8.7921    1.6826 H   0  0  0  0  0  0  0  0  0  0  0  0
   -0.0654  -10.1054    4.0487 H   0  0  0  0  0  0  0  0  0  0  0  0
    0.7396  -10.5774    2.5534 H   0  0  0  0  0  0  0  0  0  0  0  0
    1.8306   -8.8439    4.7763 H   0  0  0  0  0  0  0  0  0  0  0  0
    2.6483  -10.1781    3.9582 H   0  0  0  0  0  0  0  0  0  0  0  0
    3.0660   -7.5927    3.3296 H   0  0  0  0  0  0  0  0  0  0  0  0
    3.0970   -8.8322    2.0421 H   0  0  0  0  0  0  0  0  0  0  0  0
    3.5236   -6.3816    1.4910 H   0  0  0  0  0  0  0  0  0  0  0  0
    2.7750   -6.1149   -0.0478 H   0  0  0  0  0  0  0  0  0  0  0  0
    2.5895   -4.4182    2.3711 H   0  0  0  0  0  0  0  0  0  0  0  0
    5.0110   -4.0255    2.4271 H   0  0  0  0  0  0  0  0  0  0  0  0
    5.2835   -5.0384    1.0434 H   0  0  0  0  0  0  0  0  0  0  0  0
    7.0172   -3.2556    1.1375 H   0  0  0  0  0  0  0  0  0  0  0  0
    6.7766   -2.3818   -1.1814 H   0  0  0  0  0  0  0  0  0  0  0  0
    6.2602   -4.0437   -1.1018 H   0  0  0  0  0  0  0  0  0  0  0  0
    4.6087   -2.6737   -2.3649 H   0  0  0  0  0  0  0  0  0  0  0  0
    4.9452   -0.4931   -1.1907 H   0  0  0  0  0  0  0  0  0  0  0  0
    3.2582   -0.9723   -1.1606 H   0  0  0  0  0  0  0  0  0  0  0  0
    4.0024   -0.2051    1.0907 H   0  0  0  0  0  0  0  0  0  0  0  0
    5.6887   -1.5432    2.3506 H   0  0  0  0  0  0  0  0  0  0  0  0
    6.4055   -0.8486    0.9269 H   0  0  0  0  0  0  0  0  0  0  0  0
    2.2315   -1.9581    0.9290 H   0  0  0  0  0  0  0  0  0  0  0  0
    3.1737   -2.1647    2.3807 H   0  0  0  0  0  0  0  0  0  0  0  0
    3.8526   -4.6287   -1.1395 H   0  0  0  0  0  0  0  0  0  0  0  0
    2.5802   -3.4210   -1.1316 H   0  0  0  0  0  0  0  0  0  0  0  0
  1  2  3  0
  2  3  1  0
  3  7  1  0
  3  4  1  0
  3 22  1  6
  4  5  1  0
  4 23  1  0
  4 24  1  0
  5  6  1  0
  5 25  1  0
  5 26  1  0
  6  7  1  0
  6 27  1  0
  6 28  1  0
  7  8  1  0
  8  9  2  0
  8 10  1  0
 10 11  1  0
 10 29  1  0
 10 30  1  0
 12 11  1  1
 11 31  1  0
 12 20  1  0
 12 21  1  0
 12 13  1  0
 13 14  1  0
 13 32  1  0
 13 33  1  0
 14 19  1  0
 14 15  1  0
 14 34  1  1
 15 16  1  0
 15 35  1  0
 15 36  1  0
 16 17  1  0
 16 21  1  0
 16 37  1  6
 17 18  1  0
 17 38  1  0
 17 39  1  0
 18 19  1  0
 18 20  1  0
 18 40  1  6
 19 41  1  0
 19 42  1  0
 20 43  1  0
 20 44  1  0
 21 45  1  0
 21 46  1  0
M  END
>  <i_m_ct_stereo_status>  (296) 
1

>  <s_m_source_file>  (296) 
/var/tmp/pbs.5076255.sched01/tmph7d3_0rd/117btfl79hs.sdf

>  <i_m_source_file_index>  (296) 
17

>  <i_lp_mmshare_version>  (296) 
48012

>  <i_f3d_flags>  (296) 
0

>  <s_epik_input>  (296) 
TiNDW0NAQEhdMVtDSDJdW0NIMl1bQ0gyXU4xQyg9TylbQ0gyXVtOSF1DMjNbQ0gyXVtDQEBIXTRbQ0gyXVtDQEhdKFtDSDJdMylbQ0gyXVtDQEBIXShbQ0gyXTQpW0NIMl0y

>  <s_epik_cmdline>  (296) 
J2VwaWtfcHl0aG9uJywgJy1waHQnLCAnMi4wJywgJy1waCcsICc3LjAnLCAnLXRuJywgJzgnLCAnLW1hJywgJzIwMCcsICctaW1hZScsICc8aW5maWxlLm1hZT4nLCAnLW9tYWUnLCAnPG91dGZpbGUubWFlPic=

>  <r_epik_Ionization_Penalty>  (296) 
1.66441

>  <r_epik_Ionization_Penalty_Charging>  (296) 
0

>  <r_epik_Ionization_Penalty_Neutral>  (296) 
1.66441

>  <r_epik_State_Penalty>  (296) 
1.76755

>  <r_epik_Charging_Adjusted_Penalty>  (296) 
1.76755

>  <i_epik_Tot_Q>  (296) 
0

>  <i_epik_Tot_abs_Q>  (296) 
0

>  <s_lp_Force_Field>  (296) 
OPLS3e

>  <r_lp_Energy>  (296) 
13.0606

>  <b_lp_Chiralities_Consistent>  (296) 
1

>  <s_lp_Variant>  (296) 
99:0-2

>  <s_i_glide_gridfile>  (296) 
pfpi4k_grid

>  <i_i_glide_lignum>  (296) 
17

>  <i_i_glide_rotatable_bonds>  (296) 
5

>  <r_i_docking_score>  (296) 
-3.53789

>  <r_i_glide_ligand_efficiency>  (296) 
-0.168471

>  <r_i_glide_ligand_efficiency_sa>  (296) 
-0.464799

>  <r_i_glide_ligand_efficiency_ln>  (296) 
-0.874736

>  <r_i_glide_gscore>  (296) 
-3.53789

>  <r_i_glide_lipo>  (296) 
-0.290633

>  <r_i_glide_hbond>  (296) 
-0.16

>  <r_i_glide_metal>  (296) 
-0

>  <r_i_glide_rewards>  (296) 
-1.44955

>  <r_i_glide_evdw>  (296) 
-21.4184

>  <r_i_glide_ecoul>  (296) 
-7.14711

>  <r_i_glide_erotb>  (296) 
0.660148

>  <r_i_glide_esite>  (296) 
-0.154871

>  <r_i_glide_emodel>  (296) 
-35.1414

>  <r_i_glide_energy>  (296) 
-28.5655

>  <r_i_glide_einternal>  (296) 
1.74567

>  <r_i_glide_intrahb_reward>  (296) 
-0

>  <i_i_glide_confnum>  (296) 
6

>  <i_i_glide_posenum>  (296) 
33

>  <r_i_glide_eff_state_penalty>  (296) 
0

>  <ligand_id>  (296) 
99

>  <original_smiles>  (296) 
N#CC1CCCN1C(=O)CNC12CC3CC(CC(C3)C1)C2

>  <smiles>  (296) 
[H]N(C([H])([H])C(=O)N1C([H])([H])C([H])([H])C([H])([H])C1([H])C#N)C12C([H])([H])C3([H])C([H])([H])C([H])(C([H])([H])C([H])(C3([H])[H])C1([H])[H])C2([H])[H]

$$$$
100:0:0
     RDKit          3D

 65 71  0  0  1  0  0  0  0  0999 V2000
    3.2759   -0.3360    0.8936 C   0  0  0  0  0  0  0  0  0  0  0  0
    3.8424   -1.5102    1.2021 C   0  0  0  0  0  0  0  0  0  0  0  0
    3.0995   -2.7418    1.6769 C   0  0  0  0  0  0  0  0  0  0  0  0
    4.1767   -3.7235    2.2313 C   0  0  2  0  0  0  0  0  0  0  0  0
    5.4059   -2.7932    2.4001 C   0  0  0  0  0  0  0  0  0  0  0  0
    5.3264   -1.7484    1.2926 C   0  0  1  0  0  0  0  0  0  0  0  0
    5.9699   -2.2168   -0.0323 C   0  0  0  0  0  0  0  0  0  0  0  0
    5.2066   -3.2576   -0.8779 C   0  0  0  0  0  0  0  0  0  0  0  0
    4.9072   -4.5969   -0.2345 C   0  0  1  0  0  0  0  0  0  0  0  0
    5.7699   -5.0773    0.8018 O   0  0  0  0  0  0  0  0  0  0  0  0
    4.3999   -4.8154    1.1695 C   0  0  1  0  0  0  0  0  0  0  0  0
    3.5371   -6.0408    1.4436 C   0  0  2  0  0  0  0  0  0  0  0  0
    2.3036   -5.5900    2.0661 O   0  0  0  0  0  0  0  0  0  0  0  0
    2.9755   -5.7670    3.3427 C   0  0  2  0  0  0  0  0  0  0  0  0
    3.7817   -6.8841    2.6933 C   0  0  1  0  0  0  0  0  0  0  0  0
    3.2134   -8.3012    2.6762 C   0  0  1  0  0  0  0  0  0  0  0  0
    4.3575   -9.0932    2.4338 O   0  0  0  0  0  0  0  0  0  0  0  0
    2.3789   -8.7403    3.9428 C   0  0  2  0  0  0  0  0  0  0  0  0
    1.7221  -10.1795    3.7403 C   0  0  0  0  0  0  0  0  0  0  0  0
    2.7329  -11.2600    3.2812 C   0  0  0  0  0  0  0  0  0  0  0  0
    1.1183  -10.7634    5.0427 C   0  0  0  0  0  0  0  0  0  0  0  0
    0.6200  -10.0887    2.6603 C   0  0  0  0  0  0  0  0  0  0  0  0
   -0.4285   -8.9975    2.9185 C   0  0  0  0  0  0  0  0  0  0  0  0
    0.2003   -7.6388    3.2512 C   0  0  0  0  0  0  0  0  0  0  0  0
   -0.2420   -6.6243    2.7265 O   0  0  0  0  0  0  0  0  0  0  0  0
    1.3235   -7.6113    4.3266 C   0  0  1  0  0  0  0  0  0  0  0  0
    0.5974   -7.8424    5.6918 C   0  0  0  0  0  0  0  0  0  0  0  0
    2.0077   -6.1909    4.4669 C   0  0  1  0  0  0  0  0  0  0  0  0
    2.7471   -6.2002    5.6796 O   0  0  0  0  0  0  0  0  0  0  0  0
    3.7120   -4.4004    3.5781 C   0  0  1  0  0  0  0  0  0  0  0  0
    4.8546   -4.6312    4.3948 O   0  0  0  0  0  0  0  0  0  0  0  0
    3.8762    0.5221    0.6265 H   0  0  0  0  0  0  0  0  0  0  0  0
    2.2020   -0.2272    0.8943 H   0  0  0  0  0  0  0  0  0  0  0  0
    2.3737   -2.4442    2.4309 H   0  0  0  0  0  0  0  0  0  0  0  0
    2.5455   -3.1648    0.8400 H   0  0  0  0  0  0  0  0  0  0  0  0
    5.3189   -2.2635    3.3526 H   0  0  0  0  0  0  0  0  0  0  0  0
    6.3600   -3.3160    2.4227 H   0  0  0  0  0  0  0  0  0  0  0  0
    5.8263   -0.8325    1.6148 H   0  0  0  0  0  0  0  0  0  0  0  0
    6.0913   -1.3328   -0.6606 H   0  0  0  0  0  0  0  0  0  0  0  0
    6.9759   -2.5804    0.1694 H   0  0  0  0  0  0  0  0  0  0  0  0
    4.2591   -2.8421   -1.2219 H   0  0  0  0  0  0  0  0  0  0  0  0
    5.7826   -3.4517   -1.7804 H   0  0  0  0  0  0  0  0  0  0  0  0
    4.6290   -5.3608   -0.9579 H   0  0  0  0  0  0  0  0  0  0  0  0
    3.3757   -6.6726    0.5676 H   0  0  0  0  0  0  0  0  0  0  0  0
    4.8246   -6.8442    3.0198 H   0  0  0  0  0  0  0  0  0  0  0  0
    2.5771   -8.3968    1.7960 H   0  0  0  0  0  0  0  0  0  0  0  0
    4.0808   -9.9560    2.1582 H   0  0  0  0  0  0  0  0  0  0  0  0
    3.0840   -8.8255    4.7709 H   0  0  0  0  0  0  0  0  0  0  0  0
    2.3009  -12.2595    3.3342 H   0  0  0  0  0  0  0  0  0  0  0  0
    3.6364  -11.2593    3.8949 H   0  0  0  0  0  0  0  0  0  0  0  0
    3.0121  -11.1410    2.2331 H   0  0  0  0  0  0  0  0  0  0  0  0
    1.0619  -11.8535    5.0277 H   0  0  0  0  0  0  0  0  0  0  0  0
    0.0889  -10.4619    5.2058 H   0  0  0  0  0  0  0  0  0  0  0  0
    1.6986  -10.4984    5.9283 H   0  0  0  0  0  0  0  0  0  0  0  0
    1.0650   -9.9047    1.6837 H   0  0  0  0  0  0  0  0  0  0  0  0
    0.1266  -11.0546    2.5561 H   0  0  0  0  0  0  0  0  0  0  0  0
   -1.0661   -8.8904    2.0413 H   0  0  0  0  0  0  0  0  0  0  0  0
   -1.0822   -9.2947    3.7350 H   0  0  0  0  0  0  0  0  0  0  0  0
    1.2598   -8.2775    6.4429 H   0  0  0  0  0  0  0  0  0  0  0  0
   -0.2914   -8.4685    5.6319 H   0  0  0  0  0  0  0  0  0  0  0  0
    0.2296   -6.9046    6.1133 H   0  0  0  0  0  0  0  0  0  0  0  0
    1.2422   -5.4231    4.5803 H   0  0  0  0  0  0  0  0  0  0  0  0
    3.4496   -6.8250    5.5946 H   0  0  0  0  0  0  0  0  0  0  0  0
    3.0673   -3.7121    4.1255 H   0  0  0  0  0  0  0  0  0  0  0  0
    5.4136   -5.2545    3.9609 H   0  0  0  0  0  0  0  0  0  0  0  0
  1  2  2  0
  1 32  1  0
  1 33  1  0
  2  6  1  0
  2  3  1  0
  4  3  1  6
  3 34  1  0
  3 35  1  0
  4 11  1  0
  4 30  1  0
  4  5  1  0
  5  6  1  0
  5 36  1  0
  5 37  1  0
  6  7  1  0
  6 38  1  1
  7  8  1  0
  7 39  1  0
  7 40  1  0
  8  9  1  0
  8 41  1  0
  8 42  1  0
  9 11  1  0
  9 10  1  0
  9 43  1  6
 11 10  1  1
 11 12  1  0
 12 15  1  0
 12 13  1  0
 12 44  1  6
 14 13  1  6
 14 28  1  0
 14 15  1  0
 14 30  1  0
 15 16  1  0
 15 45  1  1
 16 17  1  0
 16 18  1  0
 16 46  1  6
 17 47  1  0
 18 26  1  0
 18 19  1  0
 18 48  1  1
 19 20  1  0
 19 21  1  0
 19 22  1  0
 20 49  1  0
 20 50  1  0
 20 51  1  0
 21 52  1  0
 21 53  1  0
 21 54  1  0
 22 23  1  0
 22 55  1  0
 22 56  1  0
 23 24  1  0
 23 57  1  0
 23 58  1  0
 24 25  2  0
 24 26  1  0
 26 27  1  1
 26 28  1  0
 27 59  1  0
 27 60  1  0
 27 61  1  0
 28 29  1  0
 28 62  1  1
 29 63  1  0
 30 31  1  0
 30 64  1  1
 31 65  1  0
M  END
>  <i_m_ct_stereo_status>  (297) 
1

>  <s_m_source_file>  (297) 
/var/tmp/pbs.5076255.sched01/tmph7d3_0rd/117btfl79hs.sdf

>  <i_m_source_file_index>  (297) 
18

>  <i_lp_mmshare_version>  (297) 
48012

>  <i_f3d_flags>  (297) 
0

>  <s_epik_input>  (297) 
W0NIMl09QyhbQ0gyXTEpW0NAQEhdKFtDSDJdMilbQ0gyXVtDSDJdW0NAQEhdKE8zKVtDQEBdMyhbQ0BdMTI0KVtDQEhdNVtDQEhdNltDQF0oTzUpKFtDQEhdNFtPSF0pW0NASF0oW09IXSlbQ0BdNyhbQ0gzXSlbQ0BIXShbQ0BASF02W09IXSlDKFtDSDNdKShbQ0gzXSlbQ0gyXVtDSDJdQzc9Tw==

>  <s_epik_cmdline>  (297) 
J2VwaWtfcHl0aG9uJywgJy1waHQnLCAnMi4wJywgJy1waCcsICc3LjAnLCAnLXRuJywgJzgnLCAnLW1hJywgJzIwMCcsICctaW1hZScsICc8aW5maWxlLm1hZT4nLCAnLW9tYWUnLCAnPG91dGZpbGUubWFlPic=

>  <r_lp_tautomer_probability>  (297) 
1

>  <r_epik_Ionization_Penalty>  (297) 
2.47461e-07

>  <r_epik_Ionization_Penalty_Charging>  (297) 
0

>  <r_epik_Ionization_Penalty_Neutral>  (297) 
2.47461e-07

>  <r_epik_State_Penalty>  (297) 
-0

>  <r_epik_Charging_Adjusted_Penalty>  (297) 
0

>  <i_epik_Tot_Q>  (297) 
0

>  <i_epik_Tot_abs_Q>  (297) 
0

>  <s_lp_Force_Field>  (297) 
OPLS3e

>  <r_lp_Energy>  (297) 
76.4845

>  <b_lp_Chiralities_Consistent>  (297) 
1

>  <s_lp_Variant>  (297) 
100:0-1

>  <s_i_glide_gridfile>  (297) 
pfpi4k_grid

>  <i_i_glide_lignum>  (297) 
18

>  <i_i_glide_rotatable_bonds>  (297) 
3

>  <r_i_docking_score>  (297) 
-3.49015

>  <r_i_glide_ligand_efficiency>  (297) 
-0.112585

>  <r_i_glide_ligand_efficiency_sa>  (297) 
-0.353674

>  <r_i_glide_ligand_efficiency_ln>  (297) 
-0.787135

>  <r_i_glide_gscore>  (297) 
-3.49015

>  <r_i_glide_lipo>  (297) 
-0.414431

>  <r_i_glide_hbond>  (297) 
-0.16

>  <r_i_glide_metal>  (297) 
-0

>  <r_i_glide_rewards>  (297) 
-0.473633

>  <r_i_glide_evdw>  (297) 
-30.4914

>  <r_i_glide_ecoul>  (297) 
-5.86004

>  <r_i_glide_erotb>  (297) 
0

>  <r_i_glide_esite>  (297) 
-0.0385085

>  <r_i_glide_emodel>  (297) 
-44.7099

>  <r_i_glide_energy>  (297) 
-36.3514

>  <r_i_glide_einternal>  (297) 
0.362762

>  <r_i_glide_intrahb_reward>  (297) 
-0

>  <i_i_glide_confnum>  (297) 
2

>  <i_i_glide_posenum>  (297) 
4

>  <r_i_glide_eff_state_penalty>  (297) 
0

>  <ligand_id>  (297) 
100

>  <original_smiles>  (297) 
C=C1CC23CC1CCC1OC12C1OC2(C1C(O)C1C(C)(C)CCC(=O)C1(C)C2O)C3O

>  <smiles>  (297) 
[H]OC1([H])C2([H])C3([H])OC2(C([H])(O[H])C2(C([H])([H])[H])C(=O)C([H])([H])C([H])([H])C(C([H])([H])[H])(C([H])([H])[H])C12[H])C([H])(O[H])C12C([H])([H])C(=C([H])[H])C([H])(C([H])([H])C([H])([H])C4([H])OC431)C2([H])[H]

$$$$
100:0:1
     RDKit          3D

 65 71  0  0  1  0  0  0  0  0999 V2000
    3.2550   -0.3020    0.8946 C   0  0  0  0  0  0  0  0  0  0  0  0
    3.8304   -1.4730    1.1992 C   0  0  0  0  0  0  0  0  0  0  0  0
    3.0964   -2.7120    1.6688 C   0  0  0  0  0  0  0  0  0  0  0  0
    4.1788   -3.6860    2.2212 C   0  0  2  0  0  0  0  0  0  0  0  0
    5.4012   -2.7473    2.3953 C   0  0  0  0  0  0  0  0  0  0  0  0
    5.3155   -1.7007    1.2893 C   0  0  1  0  0  0  0  0  0  0  0  0
    5.9623   -2.1602   -0.0363 C   0  0  0  0  0  0  0  0  0  0  0  0
    5.2074   -3.2032   -0.8859 C   0  0  0  0  0  0  0  0  0  0  0  0
    4.9154   -4.5476   -0.2480 C   0  0  1  0  0  0  0  0  0  0  0  0
    5.7851   -5.0222    0.7837 O   0  0  0  0  0  0  0  0  0  0  0  0
    4.4146   -4.7736    1.1565 C   0  0  1  0  0  0  0  0  0  0  0  0
    3.5582   -6.0063    1.4241 C   0  0  2  0  0  0  0  0  0  0  0  0
    2.3185   -5.5633    2.0461 O   0  0  0  0  0  0  0  0  0  0  0  0
    2.9900   -5.7432    3.3250 C   0  0  2  0  0  0  0  0  0  0  0  0
    3.8078   -6.8510    2.6739 C   0  0  1  0  0  0  0  0  0  0  0  0
    3.2476   -8.2747    2.6508 C   0  0  1  0  0  0  0  0  0  0  0  0
    4.3954   -9.0593    2.3981 O   0  0  0  0  0  0  0  0  0  0  0  0
    2.4149   -8.7265    3.9153 C   0  0  2  0  0  0  0  0  0  0  0  0
    1.7678  -10.1704    3.7124 C   0  0  0  0  0  0  0  0  0  0  0  0
    2.7832  -11.2421    3.2487 C   0  0  0  0  0  0  0  0  0  0  0  0
    1.1667  -10.7627    5.0110 C   0  0  0  0  0  0  0  0  0  0  0  0
    0.6662  -10.0809    2.6339 C   0  0  0  0  0  0  0  0  0  0  0  0
   -0.3909   -8.9958    2.8905 C   0  0  0  0  0  0  0  0  0  0  0  0
    0.2293   -7.6329    3.2249 C   0  0  0  0  0  0  0  0  0  0  0  0
   -0.2172   -6.6165    2.7032 O   0  0  0  0  0  0  0  0  0  0  0  0
    1.3516   -7.6022    4.3004 C   0  0  1  0  0  0  0  0  0  0  0  0
    0.6237   -7.8441    5.6634 C   0  0  0  0  0  0  0  0  0  0  0  0
    2.0256   -6.1785    4.4471 C   0  0  1  0  0  0  0  0  0  0  0  0
    2.7621   -6.1863    5.6609 O   0  0  0  0  0  0  0  0  0  0  0  0
    3.7175   -4.3750    3.5639 C   0  0  1  0  0  0  0  0  0  0  0  0
    4.8623   -4.6095    4.3706 O   0  0  0  0  0  0  0  0  0  0  0  0
    3.8500    0.5607    0.6298 H   0  0  0  0  0  0  0  0  0  0  0  0
    2.1799   -0.1993    0.8931 H   0  0  0  0  0  0  0  0  0  0  0  0
    2.3660   -2.4218    2.4217 H   0  0  0  0  0  0  0  0  0  0  0  0
    2.5474   -3.1360    0.8298 H   0  0  0  0  0  0  0  0  0  0  0  0
    5.3111   -2.2148    3.3451 H   0  0  0  0  0  0  0  0  0  0  0  0
    6.3601   -3.2648    2.4153 H   0  0  0  0  0  0  0  0  0  0  0  0
    5.8100   -0.7817    1.6137 H   0  0  0  0  0  0  0  0  0  0  0  0
    6.0782   -1.2742   -0.6615 H   0  0  0  0  0  0  0  0  0  0  0  0
    6.9716   -2.5184    0.1648 H   0  0  0  0  0  0  0  0  0  0  0  0
    4.2567   -2.7936   -1.2304 H   0  0  0  0  0  0  0  0  0  0  0  0
    5.7866   -3.3913   -1.7896 H   0  0  0  0  0  0  0  0  0  0  0  0
    4.6442   -5.3100   -0.9740 H   0  0  0  0  0  0  0  0  0  0  0  0
    3.4018   -6.6349    0.5488 H   0  0  0  0  0  0  0  0  0  0  0  0
    4.8478   -6.8006    3.0047 H   0  0  0  0  0  0  0  0  0  0  0  0
    2.6129   -8.3658    1.7690 H   0  0  0  0  0  0  0  0  0  0  0  0
    4.1213   -9.9189    2.1076 H   0  0  0  0  0  0  0  0  0  0  0  0
    3.1215   -8.8051    4.7436 H   0  0  0  0  0  0  0  0  0  0  0  0
    2.3672  -12.2500    3.2916 H   0  0  0  0  0  0  0  0  0  0  0  0
    3.6903  -11.2365    3.8542 H   0  0  0  0  0  0  0  0  0  0  0  0
    3.0506  -11.1138    2.2022 H   0  0  0  0  0  0  0  0  0  0  0  0
    1.1186  -11.8544    4.9890 H   0  0  0  0  0  0  0  0  0  0  0  0
    0.1332  -10.4684    5.1706 H   0  0  0  0  0  0  0  0  0  0  0  0
    1.7444  -10.4936    5.8985 H   0  0  0  0  0  0  0  0  0  0  0  0
    1.1219   -9.8819    1.6751 H   0  0  0  0  0  0  0  0  0  0  0  0
    0.1790  -11.0503    2.5192 H   0  0  0  0  0  0  0  0  0  0  0  0
   -1.0247   -8.8916    2.0103 H   0  0  0  0  0  0  0  0  0  0  0  0
   -1.0486   -9.2964    3.7043 H   0  0  0  0  0  0  0  0  0  0  0  0
    1.2891   -8.2767    6.4134 H   0  0  0  0  0  0  0  0  0  0  0  0
   -0.2589   -8.4763    5.6003 H   0  0  0  0  0  0  0  0  0  0  0  0
    0.2495   -6.9102    6.0878 H   0  0  0  0  0  0  0  0  0  0  0  0
    1.2541   -5.4157    4.5622 H   0  0  0  0  0  0  0  0  0  0  0  0
    3.4828   -6.7908    5.5629 H   0  0  0  0  0  0  0  0  0  0  0  0
    3.0705   -3.6929    4.1156 H   0  0  0  0  0  0  0  0  0  0  0  0
    5.2503   -3.7758    4.5847 H   0  0  0  0  0  0  0  0  0  0  0  0
  1  2  2  0
  1 32  1  0
  1 33  1  0
  2  6  1  0
  2  3  1  0
  4  3  1  6
  3 34  1  0
  3 35  1  0
  4 11  1  0
  4 30  1  0
  4  5  1  0
  5  6  1  0
  5 36  1  0
  5 37  1  0
  6  7  1  0
  6 38  1  1
  7  8  1  0
  7 39  1  0
  7 40  1  0
  8  9  1  0
  8 41  1  0
  8 42  1  0
  9 11  1  0
  9 10  1  0
  9 43  1  6
 11 10  1  1
 11 12  1  0
 12 15  1  0
 12 13  1  0
 12 44  1  6
 14 13  1  6
 14 28  1  0
 14 15  1  0
 14 30  1  0
 15 16  1  0
 15 45  1  1
 16 17  1  0
 16 18  1  0
 16 46  1  6
 17 47  1  0
 18 26  1  0
 18 19  1  0
 18 48  1  1
 19 20  1  0
 19 21  1  0
 19 22  1  0
 20 49  1  0
 20 50  1  0
 20 51  1  0
 21 52  1  0
 21 53  1  0
 21 54  1  0
 22 23  1  0
 22 55  1  0
 22 56  1  0
 23 24  1  0
 23 57  1  0
 23 58  1  0
 24 25  2  0
 24 26  1  0
 26 27  1  1
 26 28  1  0
 27 59  1  0
 27 60  1  0
 27 61  1  0
 28 29  1  0
 28 62  1  1
 29 63  1  0
 30 31  1  0
 30 64  1  1
 31 65  1  0
M  END
>  <i_m_ct_stereo_status>  (298) 
1

>  <s_m_source_file>  (298) 
/var/tmp/pbs.5076255.sched01/tmph7d3_0rd/117btfl79hs.sdf

>  <i_m_source_file_index>  (298) 
18

>  <i_lp_mmshare_version>  (298) 
48012

>  <i_f3d_flags>  (298) 
0

>  <s_epik_input>  (298) 
W0NIMl09QyhbQ0gyXTEpW0NAQEhdKFtDSDJdMilbQ0gyXVtDSDJdW0NAQEhdKE8zKVtDQEBdMyhbQ0BdMTI0KVtDQEhdNVtDQEhdNltDQF0oTzUpKFtDQEhdNFtPSF0pW0NASF0oW09IXSlbQ0BdNyhbQ0gzXSlbQ0BIXShbQ0BASF02W09IXSlDKFtDSDNdKShbQ0gzXSlbQ0gyXVtDSDJdQzc9Tw==

>  <s_epik_cmdline>  (298) 
J2VwaWtfcHl0aG9uJywgJy1waHQnLCAnMi4wJywgJy1waCcsICc3LjAnLCAnLXRuJywgJzgnLCAnLW1hJywgJzIwMCcsICctaW1hZScsICc8aW5maWxlLm1hZT4nLCAnLW9tYWUnLCAnPG91dGZpbGUubWFlPic=

>  <r_lp_tautomer_probability>  (298) 
1

>  <r_epik_Ionization_Penalty>  (298) 
2.47461e-07

>  <r_epik_Ionization_Penalty_Charging>  (298) 
0

>  <r_epik_Ionization_Penalty_Neutral>  (298) 
2.47461e-07

>  <r_epik_State_Penalty>  (298) 
-0

>  <r_epik_Charging_Adjusted_Penalty>  (298) 
0

>  <i_epik_Tot_Q>  (298) 
0

>  <i_epik_Tot_abs_Q>  (298) 
0

>  <s_lp_Force_Field>  (298) 
OPLS3e

>  <r_lp_Energy>  (298) 
76.4845

>  <b_lp_Chiralities_Consistent>  (298) 
1

>  <s_lp_Variant>  (298) 
100:0-1

>  <s_i_glide_gridfile>  (298) 
pfpi4k_grid

>  <i_i_glide_lignum>  (298) 
18

>  <i_i_glide_rotatable_bonds>  (298) 
3

>  <r_i_docking_score>  (298) 
-3.47066

>  <r_i_glide_ligand_efficiency>  (298) 
-0.111957

>  <r_i_glide_ligand_efficiency_sa>  (298) 
-0.351699

>  <r_i_glide_ligand_efficiency_ln>  (298) 
-0.782741

>  <r_i_glide_gscore>  (298) 
-3.47066

>  <r_i_glide_lipo>  (298) 
-0.422537

>  <r_i_glide_hbond>  (298) 
-0.16

>  <r_i_glide_metal>  (298) 
-0

>  <r_i_glide_rewards>  (298) 
-0.473633

>  <r_i_glide_evdw>  (298) 
-30.5852

>  <r_i_glide_ecoul>  (298) 
-5.64559

>  <r_i_glide_erotb>  (298) 
0

>  <r_i_glide_esite>  (298) 
-0.0383939

>  <r_i_glide_emodel>  (298) 
-44.3605

>  <r_i_glide_energy>  (298) 
-36.2308

>  <r_i_glide_einternal>  (298) 
0.69719

>  <r_i_glide_intrahb_reward>  (298) 
-0

>  <i_i_glide_confnum>  (298) 
2

>  <i_i_glide_posenum>  (298) 
17

>  <r_i_glide_eff_state_penalty>  (298) 
0

>  <ligand_id>  (298) 
100

>  <original_smiles>  (298) 
C=C1CC23CC1CCC1OC12C1OC2(C1C(O)C1C(C)(C)CCC(=O)C1(C)C2O)C3O

>  <smiles>  (298) 
[H]OC1([H])C2([H])C3([H])OC2(C([H])(O[H])C2(C([H])([H])[H])C(=O)C([H])([H])C([H])([H])C(C([H])([H])[H])(C([H])([H])[H])C12[H])C([H])(O[H])C12C([H])([H])C(=C([H])[H])C([H])(C([H])([H])C([H])([H])C4([H])OC431)C2([H])[H]

$$$$
100:0:2
     RDKit          3D

 65 71  0  0  1  0  0  0  0  0999 V2000
    4.0069   -1.0991   -1.1453 C   0  0  0  0  0  0  0  0  0  0  0  0
    4.3917   -1.8639   -0.1107 C   0  0  0  0  0  0  0  0  0  0  0  0
    3.5588   -2.9608    0.5188 C   0  0  0  0  0  0  0  0  0  0  0  0
    4.2567   -3.3365    1.8634 C   0  0  2  0  0  0  0  0  0  0  0  0
    5.2003   -2.1214    2.0890 C   0  0  0  0  0  0  0  0  0  0  0  0
    5.6380   -1.6442    0.7053 C   0  0  1  0  0  0  0  0  0  0  0  0
    6.8740   -2.3968    0.1689 C   0  0  0  0  0  0  0  0  0  0  0  0
    6.6723   -3.8395   -0.3251 C   0  0  0  0  0  0  0  0  0  0  0  0
    6.1468   -4.8599    0.6564 C   0  0  1  0  0  0  0  0  0  0  0  0
    6.4018   -4.6674    2.0526 O   0  0  0  0  0  0  0  0  0  0  0  0
    5.0201   -4.6497    1.6382 C   0  0  1  0  0  0  0  0  0  0  0  0
    4.1861   -5.8577    2.0465 C   0  0  2  0  0  0  0  0  0  0  0  0
    2.7878   -5.5421    1.8007 O   0  0  0  0  0  0  0  0  0  0  0  0
    2.7474   -5.0392    3.1625 C   0  0  2  0  0  0  0  0  0  0  0  0
    3.8167   -6.0653    3.5157 C   0  0  1  0  0  0  0  0  0  0  0  0
    3.3888   -7.4755    3.9152 C   0  0  1  0  0  0  0  0  0  0  0  0
    4.5223   -7.9663    4.5958 O   0  0  0  0  0  0  0  0  0  0  0  0
    2.0528   -7.6063    4.7442 C   0  0  2  0  0  0  0  0  0  0  0  0
    1.6418   -9.1339    4.9682 C   0  0  0  0  0  0  0  0  0  0  0  0
    2.7927  -10.0084    5.5368 C   0  0  0  0  0  0  0  0  0  0  0  0
    0.4943   -9.3113    6.0047 C   0  0  0  0  0  0  0  0  0  0  0  0
    1.2187   -9.7480    3.6129 C   0  0  0  0  0  0  0  0  0  0  0  0
    0.1441   -8.9405    2.8674 C   0  0  0  0  0  0  0  0  0  0  0  0
    0.4564   -7.4372    2.7718 C   0  0  0  0  0  0  0  0  0  0  0  0
    0.2351   -6.8131    1.7370 O   0  0  0  0  0  0  0  0  0  0  0  0
    0.9078   -6.7288    4.0762 C   0  0  1  0  0  0  0  0  0  0  0  0
   -0.3883   -6.6118    4.9363 C   0  0  0  0  0  0  0  0  0  0  0  0
    1.3715   -5.2367    3.8267 C   0  0  1  0  0  0  0  0  0  0  0  0
    1.4061   -4.5901    5.0882 O   0  0  0  0  0  0  0  0  0  0  0  0
    3.2112   -3.5447    3.0258 C   0  0  1  0  0  0  0  0  0  0  0  0
    3.8070   -3.1511    4.2534 O   0  0  0  0  0  0  0  0  0  0  0  0
    4.6212   -0.2814   -1.4940 H   0  0  0  0  0  0  0  0  0  0  0  0
    3.0573   -1.2714   -1.6302 H   0  0  0  0  0  0  0  0  0  0  0  0
    2.5437   -2.5943    0.6572 H   0  0  0  0  0  0  0  0  0  0  0  0
    3.5075   -3.8044   -0.1686 H   0  0  0  0  0  0  0  0  0  0  0  0
    4.6298   -1.3080    2.5406 H   0  0  0  0  0  0  0  0  0  0  0  0
    6.0384   -2.3194    2.7573 H   0  0  0  0  0  0  0  0  0  0  0  0
    5.8698   -0.5782    0.7440 H   0  0  0  0  0  0  0  0  0  0  0  0
    7.2567   -1.8393   -0.6859 H   0  0  0  0  0  0  0  0  0  0  0  0
    7.6691   -2.3780    0.9100 H   0  0  0  0  0  0  0  0  0  0  0  0
    6.0120   -3.8488   -1.1939 H   0  0  0  0  0  0  0  0  0  0  0  0
    7.6347   -4.1969   -0.6871 H   0  0  0  0  0  0  0  0  0  0  0  0
    6.2960   -5.8830    0.3235 H   0  0  0  0  0  0  0  0  0  0  0  0
    4.5049   -6.7951    1.5867 H   0  0  0  0  0  0  0  0  0  0  0  0
    4.5562   -5.6267    4.1920 H   0  0  0  0  0  0  0  0  0  0  0  0
    3.2860   -8.0688    3.0040 H   0  0  0  0  0  0  0  0  0  0  0  0
    4.4114   -8.8964    4.7246 H   0  0  0  0  0  0  0  0  0  0  0  0
    2.2584   -7.1814    5.7266 H   0  0  0  0  0  0  0  0  0  0  0  0
    2.4377  -10.9879    5.8641 H   0  0  0  0  0  0  0  0  0  0  0  0
    3.2718   -9.5367    6.3975 H   0  0  0  0  0  0  0  0  0  0  0  0
    3.5468  -10.2357    4.7835 H   0  0  0  0  0  0  0  0  0  0  0  0
    0.5045  -10.2969    6.4735 H   0  0  0  0  0  0  0  0  0  0  0  0
   -0.4944   -9.2612    5.5522 H   0  0  0  0  0  0  0  0  0  0  0  0
    0.5476   -8.5810    6.8141 H   0  0  0  0  0  0  0  0  0  0  0  0
    2.0811   -9.8504    2.9561 H   0  0  0  0  0  0  0  0  0  0  0  0
    0.8696  -10.7698    3.7646 H   0  0  0  0  0  0  0  0  0  0  0  0
    0.0163   -9.3484    1.8661 H   0  0  0  0  0  0  0  0  0  0  0  0
   -0.8157   -9.0680    3.3641 H   0  0  0  0  0  0  0  0  0  0  0  0
   -0.1691   -6.5332    6.0040 H   0  0  0  0  0  0  0  0  0  0  0  0
   -1.1038   -7.4225    4.8004 H   0  0  0  0  0  0  0  0  0  0  0  0
   -0.9573   -5.7199    4.6757 H   0  0  0  0  0  0  0  0  0  0  0  0
    0.6236   -4.7110    3.2330 H   0  0  0  0  0  0  0  0  0  0  0  0
    2.1554   -4.9192    5.5605 H   0  0  0  0  0  0  0  0  0  0  0  0
    2.3503   -2.8970    2.8607 H   0  0  0  0  0  0  0  0  0  0  0  0
    4.0194   -2.2339    4.1941 H   0  0  0  0  0  0  0  0  0  0  0  0
  1  2  2  0
  1 32  1  0
  1 33  1  0
  2  6  1  0
  2  3  1  0
  4  3  1  6
  3 34  1  0
  3 35  1  0
  4 11  1  0
  4 30  1  0
  4  5  1  0
  5  6  1  0
  5 36  1  0
  5 37  1  0
  6  7  1  0
  6 38  1  1
  7  8  1  0
  7 39  1  0
  7 40  1  0
  8  9  1  0
  8 41  1  0
  8 42  1  0
  9 11  1  0
  9 10  1  0
  9 43  1  6
 11 10  1  1
 11 12  1  0
 12 15  1  0
 12 13  1  0
 12 44  1  6
 14 13  1  6
 14 28  1  0
 14 15  1  0
 14 30  1  0
 15 16  1  0
 15 45  1  1
 16 17  1  0
 16 18  1  0
 16 46  1  6
 17 47  1  0
 18 26  1  0
 18 19  1  0
 18 48  1  1
 19 20  1  0
 19 21  1  0
 19 22  1  0
 20 49  1  0
 20 50  1  0
 20 51  1  0
 21 52  1  0
 21 53  1  0
 21 54  1  0
 22 23  1  0
 22 55  1  0
 22 56  1  0
 23 24  1  0
 23 57  1  0
 23 58  1  0
 24 25  2  0
 24 26  1  0
 26 27  1  1
 26 28  1  0
 27 59  1  0
 27 60  1  0
 27 61  1  0
 28 29  1  0
 28 62  1  6
 29 63  1  0
 30 31  1  0
 30 64  1  6
 31 65  1  0
M  END
>  <i_m_ct_stereo_status>  (299) 
1

>  <s_m_source_file>  (299) 
/var/tmp/pbs.5076255.sched01/tmph7d3_0rd/117btfl79hs.sdf

>  <i_m_source_file_index>  (299) 
18

>  <i_lp_mmshare_version>  (299) 
48012

>  <i_f3d_flags>  (299) 
0

>  <s_epik_input>  (299) 
W0NIMl09QyhbQ0gyXTEpW0NAQEhdKFtDSDJdMilbQ0gyXVtDSDJdW0NAQEhdKE8zKVtDQEBdMyhbQ0BdMTI0KVtDQEhdNVtDQEhdNltDQF0oTzUpKFtDQEhdNFtPSF0pW0NASF0oW09IXSlbQ0BdNyhbQ0gzXSlbQ0BIXShbQ0BASF02W09IXSlDKFtDSDNdKShbQ0gzXSlbQ0gyXVtDSDJdQzc9Tw==

>  <s_epik_cmdline>  (299) 
J2VwaWtfcHl0aG9uJywgJy1waHQnLCAnMi4wJywgJy1waCcsICc3LjAnLCAnLXRuJywgJzgnLCAnLW1hJywgJzIwMCcsICctaW1hZScsICc8aW5maWxlLm1hZT4nLCAnLW9tYWUnLCAnPG91dGZpbGUubWFlPic=

>  <r_lp_tautomer_probability>  (299) 
1

>  <r_epik_Ionization_Penalty>  (299) 
2.47461e-07

>  <r_epik_Ionization_Penalty_Charging>  (299) 
0

>  <r_epik_Ionization_Penalty_Neutral>  (299) 
2.47461e-07

>  <r_epik_State_Penalty>  (299) 
-0

>  <r_epik_Charging_Adjusted_Penalty>  (299) 
0

>  <i_epik_Tot_Q>  (299) 
0

>  <i_epik_Tot_abs_Q>  (299) 
0

>  <s_lp_Force_Field>  (299) 
OPLS3e

>  <r_lp_Energy>  (299) 
76.4845

>  <b_lp_Chiralities_Consistent>  (299) 
1

>  <s_lp_Variant>  (299) 
100:0-1

>  <s_i_glide_gridfile>  (299) 
pfpi4k_grid

>  <i_i_glide_lignum>  (299) 
18

>  <i_i_glide_rotatable_bonds>  (299) 
3

>  <r_i_docking_score>  (299) 
-2.99141

>  <r_i_glide_ligand_efficiency>  (299) 
-0.0964971

>  <r_i_glide_ligand_efficiency_sa>  (299) 
-0.303134

>  <r_i_glide_ligand_efficiency_ln>  (299) 
-0.674655

>  <r_i_glide_gscore>  (299) 
-2.99141

>  <r_i_glide_lipo>  (299) 
-0.475033

>  <r_i_glide_hbond>  (299) 
-0.0126945

>  <r_i_glide_metal>  (299) 
-0

>  <r_i_glide_rewards>  (299) 
-0.473633

>  <r_i_glide_evdw>  (299) 
-29.3756

>  <r_i_glide_ecoul>  (299) 
-3.45511

>  <r_i_glide_erotb>  (299) 
0

>  <r_i_glide_esite>  (299) 
-0.0430036

>  <r_i_glide_emodel>  (299) 
-39.7527

>  <r_i_glide_energy>  (299) 
-32.8307

>  <r_i_glide_einternal>  (299) 
0.652301

>  <r_i_glide_intrahb_reward>  (299) 
-0

>  <i_i_glide_confnum>  (299) 
1

>  <i_i_glide_posenum>  (299) 
10

>  <r_i_glide_eff_state_penalty>  (299) 
0

>  <ligand_id>  (299) 
100

>  <original_smiles>  (299) 
C=C1CC23CC1CCC1OC12C1OC2(C1C(O)C1C(C)(C)CCC(=O)C1(C)C2O)C3O

>  <smiles>  (299) 
[H]OC1([H])C2([H])C3([H])OC2(C([H])(O[H])C2(C([H])([H])[H])C(=O)C([H])([H])C([H])([H])C(C([H])([H])[H])(C([H])([H])[H])C12[H])C([H])(O[H])C12C([H])([H])C(=C([H])[H])C([H])(C([H])([H])C([H])([H])C4([H])OC431)C2([H])[H]

$$$$
101:0:0
     RDKit          3D

 65 70  0  0  1  0  0  0  0  0999 V2000
    1.8008   -8.4215    1.9728 C   0  0  0  0  0  0  0  0  0  0  0  0
    1.0409   -7.3295    2.7615 C   0  0  0  0  0  0  0  0  0  0  0  0
   -0.4415   -7.3974    2.3033 C   0  0  0  0  0  0  0  0  0  0  0  0
    1.0179   -7.8113    4.2473 C   0  0  0  0  0  0  0  0  0  0  0  0
    2.1526   -7.3354    5.1665 C   0  0  0  0  0  0  0  0  0  0  0  0
    3.0039   -6.2082    4.5788 C   0  0  0  0  0  0  0  0  0  0  0  0
    2.2078   -5.1339    3.8063 C   0  0  1  0  0  0  0  0  0  0  0  0
    1.0416   -4.6761    4.7542 C   0  0  0  0  0  0  0  0  0  0  0  0
    3.0748   -3.8139    3.5719 C   0  0  2  0  0  0  0  0  0  0  0  0
    2.3165   -2.5661    2.8897 C   0  0  1  0  0  0  0  0  0  0  0  0
    2.3169   -1.5052    3.8272 O   0  0  0  0  0  0  0  0  0  0  0  0
    2.7702   -1.9770    1.4779 C   0  0  1  0  0  0  0  0  0  0  0  0
    2.2824   -0.6556    1.3207 O   0  0  0  0  0  0  0  0  0  0  0  0
    4.2844   -2.0495    1.1693 C   0  0  1  0  0  0  0  0  0  0  0  0
    4.7237   -3.3114    1.8107 C   0  0  1  0  0  0  0  0  0  0  0  0
    4.6065   -3.8006    3.2068 C   0  0  2  0  0  0  0  0  0  0  0  0
    5.6911   -4.9643    3.2851 C   0  0  0  0  0  0  0  0  0  0  0  0
    5.8845   -5.5584    4.3429 O   0  0  0  0  0  0  0  0  0  0  0  0
    6.6028   -5.1623    2.0634 C   0  0  0  0  0  0  0  0  0  0  0  0
    6.1366   -4.7407    0.8441 C   0  0  0  0  0  0  0  0  0  0  0  0
    6.9557   -3.8522    0.0106 C   0  0  0  0  0  0  0  0  0  0  0  0
    6.3600   -2.7030   -0.4499 C   0  0  0  0  0  0  0  0  0  0  0  0
    4.8277   -2.4302   -0.2864 C   0  0  2  0  0  0  0  0  0  0  0  0
    4.2918   -1.5404   -1.4182 C   0  0  0  0  0  0  0  0  0  0  0  0
    4.2747   -3.7176   -0.4133 O   0  0  0  0  0  0  0  0  0  0  0  0
    4.6617   -4.4381    0.7563 C   0  0  2  0  0  0  0  0  0  0  0  0
    3.7176   -5.7038    0.7865 C   0  0  1  0  0  0  0  0  0  0  0  0
    4.2605   -6.8326    1.4246 O   0  0  0  0  0  0  0  0  0  0  0  0
    2.2167   -5.4716    1.1469 C   0  0  1  0  0  0  0  0  0  0  0  0
    1.3776   -5.8464    0.0699 O   0  0  0  0  0  0  0  0  0  0  0  0
    1.5832   -5.8342    2.5409 C   0  0  1  0  0  0  0  0  0  0  0  0
    1.2747   -9.3758    2.0155 H   0  0  0  0  0  0  0  0  0  0  0  0
    2.7884   -8.6136    2.3884 H   0  0  0  0  0  0  0  0  0  0  0  0
    1.8939   -8.1994    0.9142 H   0  0  0  0  0  0  0  0  0  0  0  0
   -1.0541   -6.7058    2.8880 H   0  0  0  0  0  0  0  0  0  0  0  0
   -0.8637   -8.3936    2.4603 H   0  0  0  0  0  0  0  0  0  0  0  0
   -0.5621   -7.1516    1.2469 H   0  0  0  0  0  0  0  0  0  0  0  0
    0.0649   -7.5654    4.7193 H   0  0  0  0  0  0  0  0  0  0  0  0
    1.0172   -8.9003    4.2729 H   0  0  0  0  0  0  0  0  0  0  0  0
    1.7089   -6.9978    6.1052 H   0  0  0  0  0  0  0  0  0  0  0  0
    2.7966   -8.1708    5.4376 H   0  0  0  0  0  0  0  0  0  0  0  0
    3.5845   -5.7544    5.3842 H   0  0  0  0  0  0  0  0  0  0  0  0
    3.7108   -6.6866    3.9053 H   0  0  0  0  0  0  0  0  0  0  0  0
    0.4950   -3.8056    4.3964 H   0  0  0  0  0  0  0  0  0  0  0  0
    1.4154   -4.4298    5.7515 H   0  0  0  0  0  0  0  0  0  0  0  0
    0.2716   -5.4318    4.8879 H   0  0  0  0  0  0  0  0  0  0  0  0
    3.1733   -3.5008    4.6146 H   0  0  0  0  0  0  0  0  0  0  0  0
    1.2681   -2.8200    2.7420 H   0  0  0  0  0  0  0  0  0  0  0  0
    1.8820   -0.7792    3.3965 H   0  0  0  0  0  0  0  0  0  0  0  0
    2.2522   -2.4895    0.6755 H   0  0  0  0  0  0  0  0  0  0  0  0
    1.7027   -0.6497    0.5567 H   0  0  0  0  0  0  0  0  0  0  0  0
    4.7915   -1.1662    1.5709 H   0  0  0  0  0  0  0  0  0  0  0  0
    5.7148   -2.8642    1.9797 H   0  0  0  0  0  0  0  0  0  0  0  0
    5.0287   -3.0265    3.8522 H   0  0  0  0  0  0  0  0  0  0  0  0
    7.6623   -5.1901    2.2582 H   0  0  0  0  0  0  0  0  0  0  0  0
    8.0042   -4.0400   -0.1475 H   0  0  0  0  0  0  0  0  0  0  0  0
    6.9267   -1.9956   -1.0263 H   0  0  0  0  0  0  0  0  0  0  0  0
    4.6774   -0.5248   -1.3386 H   0  0  0  0  0  0  0  0  0  0  0  0
    3.2021   -1.4866   -1.4029 H   0  0  0  0  0  0  0  0  0  0  0  0
    4.5833   -1.9350   -2.3924 H   0  0  0  0  0  0  0  0  0  0  0  0
    3.7450   -6.0283   -0.2563 H   0  0  0  0  0  0  0  0  0  0  0  0
    3.7313   -7.5851    1.2001 H   0  0  0  0  0  0  0  0  0  0  0  0
    2.0977   -4.4157    1.0635 H   0  0  0  0  0  0  0  0  0  0  0  0
    1.8852   -5.7628   -0.7341 H   0  0  0  0  0  0  0  0  0  0  0  0
    0.6573   -5.2655    2.4605 H   0  0  0  0  0  0  0  0  0  0  0  0
  1  2  1  0
  1 32  1  0
  1 33  1  0
  1 34  1  0
  2 31  1  0
  2  3  1  0
  2  4  1  0
  3 35  1  0
  3 36  1  0
  3 37  1  0
  4  5  1  0
  4 38  1  0
  4 39  1  0
  5  6  1  0
  5 40  1  0
  5 41  1  0
  6  7  1  0
  6 42  1  0
  6 43  1  0
  7 31  1  0
  7  8  1  1
  7  9  1  0
  8 44  1  0
  8 45  1  0
  8 46  1  0
  9 16  1  0
  9 10  1  0
  9 47  1  1
 10 11  1  0
 10 12  1  0
 10 48  1  6
 11 49  1  0
 12 13  1  0
 12 14  1  0
 12 50  1  6
 13 51  1  0
 14 23  1  0
 14 15  1  0
 14 52  1  1
 15 26  1  0
 15 16  1  0
 15 53  1  1
 16 17  1  0
 16 54  1  1
 17 18  2  0
 17 19  1  0
 19 20  2  0
 19 55  1  0
 20 26  1  0
 20 21  1  0
 21 22  2  0
 21 56  1  0
 22 23  1  0
 22 57  1  0
 23 24  1  6
 23 25  1  0
 24 58  1  0
 24 59  1  0
 24 60  1  0
 26 25  1  6
 26 27  1  0
 27 28  1  0
 27 29  1  0
 27 61  1  6
 28 62  1  0
 29 30  1  0
 29 31  1  0
 29 63  1  1
 30 64  1  0
 31 65  1  6
M  END
>  <i_m_ct_stereo_status>  (300) 
1

>  <s_m_source_file>  (300) 
/var/tmp/pbs.5076255.sched01/tmph7d3_0rd/117btfl79hs.sdf

>  <i_m_source_file_index>  (300) 
19

>  <i_lp_mmshare_version>  (300) 
48012

>  <i_f3d_flags>  (300) 
0

>  <s_epik_input>  (300) 
W0NIMl0xW0NIMl1bQ0gyXUMoW0NIM10pKFtDSDNdKVtDQEhdKFtDQEhdKFtPSF0pW0NAQEhdMltPSF0pW0NAXTEoW0NIM10pW0NASF0oW0NAQEhdKFtPSF0pW0NASF0zW09IXSlbQ0BIXTRDKD1PKVtDSF09QzVbQ0hdPVtDSF1bQ0BdKE82KShbQ0gzXSlbQ0BASF0zW0NAQEhdNFtDQF0yNTY=

>  <s_epik_cmdline>  (300) 
J2VwaWtfcHl0aG9uJywgJy1waHQnLCAnMi4wJywgJy1waCcsICc3LjAnLCAnLXRuJywgJzgnLCAnLW1hJywgJzIwMCcsICctaW1hZScsICc8aW5maWxlLm1hZT4nLCAnLW9tYWUnLCAnPG91dGZpbGUubWFlPic=

>  <r_lp_tautomer_probability>  (300) 
1

>  <r_epik_Ionization_Penalty>  (300) 
6.99894e-07

>  <r_epik_Ionization_Penalty_Charging>  (300) 
0

>  <r_epik_Ionization_Penalty_Neutral>  (300) 
6.99894e-07

>  <r_epik_State_Penalty>  (300) 
-0

>  <r_epik_Charging_Adjusted_Penalty>  (300) 
0

>  <i_epik_Tot_Q>  (300) 
0

>  <i_epik_Tot_abs_Q>  (300) 
0

>  <s_lp_Force_Field>  (300) 
OPLS3e

>  <r_lp_Energy>  (300) 
198.822

>  <b_lp_Chiralities_Consistent>  (300) 
1

>  <s_lp_Variant>  (300) 
101:0-1

>  <s_i_glide_gridfile>  (300) 
pfpi4k_grid

>  <i_i_glide_lignum>  (300) 
19

>  <i_i_glide_rotatable_bonds>  (300) 
4

>  <r_i_docking_score>  (300) 
-3.64316

>  <r_i_glide_ligand_efficiency>  (300) 
-0.117521

>  <r_i_glide_ligand_efficiency_sa>  (300) 
-0.369179

>  <r_i_glide_ligand_efficiency_ln>  (300) 
-0.821645

>  <r_i_glide_gscore>  (300) 
-3.64316

>  <r_i_glide_lipo>  (300) 
-0.367222

>  <r_i_glide_hbond>  (300) 
0

>  <r_i_glide_metal>  (300) 
-0

>  <r_i_glide_rewards>  (300) 
-0.482248

>  <r_i_glide_evdw>  (300) 
-28.4828

>  <r_i_glide_ecoul>  (300) 
-9.13034

>  <r_i_glide_erotb>  (300) 
0

>  <r_i_glide_esite>  (300) 
0

>  <r_i_glide_emodel>  (300) 
-44.2859

>  <r_i_glide_energy>  (300) 
-37.6131

>  <r_i_glide_einternal>  (300) 
2.70909

>  <r_i_glide_intrahb_reward>  (300) 
-0

>  <i_i_glide_confnum>  (300) 
1

>  <i_i_glide_posenum>  (300) 
24

>  <r_i_glide_eff_state_penalty>  (300) 
0

>  <ligand_id>  (300) 
101

>  <original_smiles>  (300) 
CC1(C)CCCC2(C)C3C(O)C(O)C4C5C3C(=O)C=C3C=CC4(C)OC35C(O)C(O)C12

>  <smiles>  (300) 
[H]OC1([H])C([H])(O[H])C2([H])C(C([H])([H])[H])(C([H])([H])[H])C([H])([H])C([H])([H])C([H])([H])C2(C([H])([H])[H])C2([H])C([H])(O[H])C([H])(O[H])C3([H])C4(C([H])([H])[H])OC15C(=C([H])C(=O)C2([H])C53[H])C([H])=C4[H]

$$$$
101:0:1
     RDKit          3D

 65 70  0  0  1  0  0  0  0  0999 V2000
    1.8292   -8.3878    1.9636 C   0  0  0  0  0  0  0  0  0  0  0  0
    1.0937   -7.3015    2.7805 C   0  0  0  0  0  0  0  0  0  0  0  0
   -0.4023   -7.3714    2.3700 C   0  0  0  0  0  0  0  0  0  0  0  0
    1.1207   -7.7874    4.2641 C   0  0  0  0  0  0  0  0  0  0  0  0
    2.2836   -7.3122    5.1477 C   0  0  0  0  0  0  0  0  0  0  0  0
    3.1140   -6.1815    4.5366 C   0  0  0  0  0  0  0  0  0  0  0  0
    2.2919   -5.1078    3.7910 C   0  0  1  0  0  0  0  0  0  0  0  0
    1.1559   -4.6543    4.7784 C   0  0  0  0  0  0  0  0  0  0  0  0
    3.1477   -3.7839    3.5356 C   0  0  2  0  0  0  0  0  0  0  0  0
    2.3666   -2.5357    2.8822 C   0  0  1  0  0  0  0  0  0  0  0  0
    2.3942   -1.4778    3.8235 O   0  0  0  0  0  0  0  0  0  0  0  0
    2.7755   -1.9423    1.4589 C   0  0  1  0  0  0  0  0  0  0  0  0
    2.2797   -0.6220    1.3216 O   0  0  0  0  0  0  0  0  0  0  0  0
    4.2795   -2.0075    1.1029 C   0  0  1  0  0  0  0  0  0  0  0  0
    4.7403   -3.2722    1.7254 C   0  0  1  0  0  0  0  0  0  0  0  0
    4.6676   -3.7639    3.1243 C   0  0  2  0  0  0  0  0  0  0  0  0
    5.7592   -4.9248    3.1649 C   0  0  0  0  0  0  0  0  0  0  0  0
    5.9842   -5.5256    4.2109 O   0  0  0  0  0  0  0  0  0  0  0  0
    6.6303   -5.1155    1.9129 C   0  0  0  0  0  0  0  0  0  0  0  0
    6.1243   -4.6924    0.7108 C   0  0  0  0  0  0  0  0  0  0  0  0
    6.9147   -3.8005   -0.1459 C   0  0  0  0  0  0  0  0  0  0  0  0
    6.3032   -2.6516   -0.5844 C   0  0  0  0  0  0  0  0  0  0  0  0
    4.7762   -2.3832   -0.3708 C   0  0  2  0  0  0  0  0  0  0  0  0
    4.2053   -1.4907   -1.4823 C   0  0  0  0  0  0  0  0  0  0  0  0
    4.2220   -3.6720   -0.4847 O   0  0  0  0  0  0  0  0  0  0  0  0
    4.6451   -4.3957    0.6703 C   0  0  2  0  0  0  0  0  0  0  0  0
    3.7090   -5.6692    0.7293 C   0  0  1  0  0  0  0  0  0  0  0  0
    4.2779   -6.7953    1.3529 O   0  0  0  0  0  0  0  0  0  0  0  0
    2.2190   -5.4499    1.1312 C   0  0  1  0  0  0  0  0  0  0  0  0
    1.3649   -5.8526    0.0785 O   0  0  0  0  0  0  0  0  0  0  0  0
    1.6265   -5.8060    2.5440 C   0  0  1  0  0  0  0  0  0  0  0  0
    1.3117   -9.3461    2.0170 H   0  0  0  0  0  0  0  0  0  0  0  0
    2.8348   -8.5698    2.3392 H   0  0  0  0  0  0  0  0  0  0  0  0
    1.8957   -8.1599    0.9043 H   0  0  0  0  0  0  0  0  0  0  0  0
   -0.9978   -6.6832    2.9762 H   0  0  0  0  0  0  0  0  0  0  0  0
   -0.8138   -8.3716    2.5345 H   0  0  0  0  0  0  0  0  0  0  0  0
   -0.5571   -7.1216    1.3182 H   0  0  0  0  0  0  0  0  0  0  0  0
    0.1823   -7.5455    4.7677 H   0  0  0  0  0  0  0  0  0  0  0  0
    1.1244   -8.8752    4.2856 H   0  0  0  0  0  0  0  0  0  0  0  0
    1.8704   -6.9789    6.1021 H   0  0  0  0  0  0  0  0  0  0  0  0
    2.9376   -8.1477    5.3946 H   0  0  0  0  0  0  0  0  0  0  0  0
    3.7196   -5.7293    5.3242 H   0  0  0  0  0  0  0  0  0  0  0  0
    3.7992   -6.6572    3.8400 H   0  0  0  0  0  0  0  0  0  0  0  0
    0.5963   -3.7832    4.4411 H   0  0  0  0  0  0  0  0  0  0  0  0
    1.5608   -4.4103    5.7645 H   0  0  0  0  0  0  0  0  0  0  0  0
    0.3919   -5.4119    4.9345 H   0  0  0  0  0  0  0  0  0  0  0  0
    3.2784   -3.4745    4.5767 H   0  0  0  0  0  0  0  0  0  0  0  0
    1.3151   -2.7921    2.7661 H   0  0  0  0  0  0  0  0  0  0  0  0
    1.9388   -0.7548    3.4118 H   0  0  0  0  0  0  0  0  0  0  0  0
    2.2350   -2.4570    0.6734 H   0  0  0  0  0  0  0  0  0  0  0  0
    1.7036   -0.6079    0.5556 H   0  0  0  0  0  0  0  0  0  0  0  0
    4.7975   -1.1247    1.4925 H   0  0  0  0  0  0  0  0  0  0  0  0
    5.7351   -2.8211    1.8655 H   0  0  0  0  0  0  0  0  0  0  0  0
    5.1079   -2.9907    3.7591 H   0  0  0  0  0  0  0  0  0  0  0  0
    7.6955   -5.1413    2.0760 H   0  0  0  0  0  0  0  0  0  0  0  0
    7.9586   -3.9850   -0.3387 H   0  0  0  0  0  0  0  0  0  0  0  0
    6.8463   -1.9419   -1.1816 H   0  0  0  0  0  0  0  0  0  0  0  0
    4.5937   -0.4756   -1.4111 H   0  0  0  0  0  0  0  0  0  0  0  0
    3.1168   -1.4399   -1.4323 H   0  0  0  0  0  0  0  0  0  0  0  0
    4.4667   -1.8830   -2.4658 H   0  0  0  0  0  0  0  0  0  0  0  0
    3.7040   -5.9921   -0.3153 H   0  0  0  0  0  0  0  0  0  0  0  0
    5.0830   -7.0069    0.9031 H   0  0  0  0  0  0  0  0  0  0  0  0
    2.0900   -4.3927    1.0517 H   0  0  0  0  0  0  0  0  0  0  0  0
    1.8366   -5.7430   -0.7386 H   0  0  0  0  0  0  0  0  0  0  0  0
    0.6987   -5.2369    2.4844 H   0  0  0  0  0  0  0  0  0  0  0  0
  1  2  1  0
  1 32  1  0
  1 33  1  0
  1 34  1  0
  2 31  1  0
  2  3  1  0
  2  4  1  0
  3 35  1  0
  3 36  1  0
  3 37  1  0
  4  5  1  0
  4 38  1  0
  4 39  1  0
  5  6  1  0
  5 40  1  0
  5 41  1  0
  6  7  1  0
  6 42  1  0
  6 43  1  0
  7 31  1  0
  7  8  1  1
  7  9  1  0
  8 44  1  0
  8 45  1  0
  8 46  1  0
  9 16  1  0
  9 10  1  0
  9 47  1  1
 10 11  1  0
 10 12  1  0
 10 48  1  6
 11 49  1  0
 12 13  1  0
 12 14  1  0
 12 50  1  6
 13 51  1  0
 14 23  1  0
 14 15  1  0
 14 52  1  1
 15 26  1  0
 15 16  1  0
 15 53  1  1
 16 17  1  0
 16 54  1  1
 17 18  2  0
 17 19  1  0
 19 20  2  0
 19 55  1  0
 20 26  1  0
 20 21  1  0
 21 22  2  0
 21 56  1  0
 22 23  1  0
 22 57  1  0
 23 24  1  6
 23 25  1  0
 24 58  1  0
 24 59  1  0
 24 60  1  0
 26 25  1  6
 26 27  1  0
 27 28  1  0
 27 29  1  0
 27 61  1  6
 28 62  1  0
 29 30  1  0
 29 31  1  0
 29 63  1  1
 30 64  1  0
 31 65  1  6
M  END
>  <i_m_ct_stereo_status>  (301) 
1

>  <s_m_source_file>  (301) 
/var/tmp/pbs.5076255.sched01/tmph7d3_0rd/117btfl79hs.sdf

>  <i_m_source_file_index>  (301) 
19

>  <i_lp_mmshare_version>  (301) 
48012

>  <i_f3d_flags>  (301) 
0

>  <s_epik_input>  (301) 
W0NIMl0xW0NIMl1bQ0gyXUMoW0NIM10pKFtDSDNdKVtDQEhdKFtDQEhdKFtPSF0pW0NAQEhdMltPSF0pW0NAXTEoW0NIM10pW0NASF0oW0NAQEhdKFtPSF0pW0NASF0zW09IXSlbQ0BIXTRDKD1PKVtDSF09QzVbQ0hdPVtDSF1bQ0BdKE82KShbQ0gzXSlbQ0BASF0zW0NAQEhdNFtDQF0yNTY=

>  <s_epik_cmdline>  (301) 
J2VwaWtfcHl0aG9uJywgJy1waHQnLCAnMi4wJywgJy1waCcsICc3LjAnLCAnLXRuJywgJzgnLCAnLW1hJywgJzIwMCcsICctaW1hZScsICc8aW5maWxlLm1hZT4nLCAnLW9tYWUnLCAnPG91dGZpbGUubWFlPic=

>  <r_lp_tautomer_probability>  (301) 
1

>  <r_epik_Ionization_Penalty>  (301) 
6.99894e-07

>  <r_epik_Ionization_Penalty_Charging>  (301) 
0

>  <r_epik_Ionization_Penalty_Neutral>  (301) 
6.99894e-07

>  <r_epik_State_Penalty>  (301) 
-0

>  <r_epik_Charging_Adjusted_Penalty>  (301) 
0

>  <i_epik_Tot_Q>  (301) 
0

>  <i_epik_Tot_abs_Q>  (301) 
0

>  <s_lp_Force_Field>  (301) 
OPLS3e

>  <r_lp_Energy>  (301) 
198.822

>  <b_lp_Chiralities_Consistent>  (301) 
1

>  <s_lp_Variant>  (301) 
101:0-1

>  <s_i_glide_gridfile>  (301) 
pfpi4k_grid

>  <i_i_glide_lignum>  (301) 
19

>  <i_i_glide_rotatable_bonds>  (301) 
4

>  <r_i_docking_score>  (301) 
-3.59674

>  <r_i_glide_ligand_efficiency>  (301) 
-0.116024

>  <r_i_glide_ligand_efficiency_sa>  (301) 
-0.364476

>  <r_i_glide_ligand_efficiency_ln>  (301) 
-0.811176

>  <r_i_glide_gscore>  (301) 
-3.59674

>  <r_i_glide_lipo>  (301) 
-0.372839

>  <r_i_glide_hbond>  (301) 
0

>  <r_i_glide_metal>  (301) 
-0

>  <r_i_glide_rewards>  (301) 
-0.48529

>  <r_i_glide_evdw>  (301) 
-28.3759

>  <r_i_glide_ecoul>  (301) 
-8.79881

>  <r_i_glide_erotb>  (301) 
0

>  <r_i_glide_esite>  (301) 
0

>  <r_i_glide_emodel>  (301) 
-43.7988

>  <r_i_glide_energy>  (301) 
-37.1747

>  <r_i_glide_einternal>  (301) 
2.71004

>  <r_i_glide_intrahb_reward>  (301) 
-0

>  <i_i_glide_confnum>  (301) 
1

>  <i_i_glide_posenum>  (301) 
1

>  <r_i_glide_eff_state_penalty>  (301) 
0

>  <ligand_id>  (301) 
101

>  <original_smiles>  (301) 
CC1(C)CCCC2(C)C3C(O)C(O)C4C5C3C(=O)C=C3C=CC4(C)OC35C(O)C(O)C12

>  <smiles>  (301) 
[H]OC1([H])C([H])(O[H])C2([H])C(C([H])([H])[H])(C([H])([H])[H])C([H])([H])C([H])([H])C([H])([H])C2(C([H])([H])[H])C2([H])C([H])(O[H])C([H])(O[H])C3([H])C4(C([H])([H])[H])OC15C(=C([H])C(=O)C2([H])C53[H])C([H])=C4[H]

$$$$
101:0:2
     RDKit          3D

 65 70  0  0  1  0  0  0  0  0999 V2000
    3.8184   -1.5033   -1.2966 C   0  0  0  0  0  0  0  0  0  0  0  0
    4.8328   -2.6692   -1.2395 C   0  0  0  0  0  0  0  0  0  0  0  0
    4.7213   -3.4212   -2.5866 C   0  0  0  0  0  0  0  0  0  0  0  0
    6.2341   -1.9984   -1.2782 C   0  0  0  0  0  0  0  0  0  0  0  0
    6.8961   -1.6641    0.0667 C   0  0  0  0  0  0  0  0  0  0  0  0
    6.2032   -2.2881    1.2677 C   0  0  0  0  0  0  0  0  0  0  0  0
    5.7380   -3.7458    1.0570 C   0  0  1  0  0  0  0  0  0  0  0  0
    6.9724   -4.5313    0.4864 C   0  0  0  0  0  0  0  0  0  0  0  0
    5.4173   -4.4700    2.4430 C   0  0  2  0  0  0  0  0  0  0  0  0
    5.0322   -6.0289    2.3608 C   0  0  1  0  0  0  0  0  0  0  0  0
    6.0429   -6.7336    3.0631 O   0  0  0  0  0  0  0  0  0  0  0  0
    3.6077   -6.5595    2.8381 C   0  0  1  0  0  0  0  0  0  0  0  0
    3.6957   -7.9319    3.1744 O   0  0  0  0  0  0  0  0  0  0  0  0
    2.9634   -5.7949    4.0195 C   0  0  1  0  0  0  0  0  0  0  0  0
    3.3942   -4.3909    3.8358 C   0  0  1  0  0  0  0  0  0  0  0  0
    4.7372   -3.7813    3.6905 C   0  0  2  0  0  0  0  0  0  0  0  0
    4.4761   -2.2368    3.9981 C   0  0  0  0  0  0  0  0  0  0  0  0
    5.4020   -1.4292    3.9838 O   0  0  0  0  0  0  0  0  0  0  0  0
    3.0671   -1.8430    4.4683 C   0  0  0  0  0  0  0  0  0  0  0  0
    2.0248   -2.6537    4.1066 C   0  0  0  0  0  0  0  0  0  0  0  0
    1.0809   -3.1480    5.1189 C   0  0  0  0  0  0  0  0  0  0  0  0
    0.8639   -4.5032    5.1600 C   0  0  0  0  0  0  0  0  0  0  0  0
    1.3984   -5.4699    4.0468 C   0  0  2  0  0  0  0  0  0  0  0  0
    0.4853   -6.6977    3.8976 C   0  0  0  0  0  0  0  0  0  0  0  0
    1.3166   -4.6788    2.8826 O   0  0  0  0  0  0  0  0  0  0  0  0
    2.3105   -3.6623    3.0206 C   0  0  2  0  0  0  0  0  0  0  0  0
    2.5051   -3.0420    1.5832 C   0  0  1  0  0  0  0  0  0  0  0  0
    2.8652   -1.6863    1.5107 O   0  0  0  0  0  0  0  0  0  0  0  0
    3.1395   -3.9358    0.4706 C   0  0  1  0  0  0  0  0  0  0  0  0
    2.2200   -4.1831   -0.5844 O   0  0  0  0  0  0  0  0  0  0  0  0
    4.6074   -3.7141   -0.0419 C   0  0  1  0  0  0  0  0  0  0  0  0
    3.9016   -0.9448   -2.2294 H   0  0  0  0  0  0  0  0  0  0  0  0
    3.9812   -0.7741   -0.5039 H   0  0  0  0  0  0  0  0  0  0  0  0
    2.7910   -1.8425   -1.2609 H   0  0  0  0  0  0  0  0  0  0  0  0
    5.4575   -4.2287   -2.6370 H   0  0  0  0  0  0  0  0  0  0  0  0
    4.9153   -2.7573   -3.4319 H   0  0  0  0  0  0  0  0  0  0  0  0
    3.7279   -3.8471   -2.7273 H   0  0  0  0  0  0  0  0  0  0  0  0
    6.9292   -2.6044   -1.8660 H   0  0  0  0  0  0  0  0  0  0  0  0
    6.1660   -1.0747   -1.8454 H   0  0  0  0  0  0  0  0  0  0  0  0
    7.9365   -1.9972    0.0343 H   0  0  0  0  0  0  0  0  0  0  0  0
    6.9451   -0.5863    0.2200 H   0  0  0  0  0  0  0  0  0  0  0  0
    6.9086   -2.2291    2.0862 H   0  0  0  0  0  0  0  0  0  0  0  0
    5.3583   -1.6487    1.5089 H   0  0  0  0  0  0  0  0  0  0  0  0
    6.8197   -5.6072    0.4315 H   0  0  0  0  0  0  0  0  0  0  0  0
    7.8713   -4.3673    1.0891 H   0  0  0  0  0  0  0  0  0  0  0  0
    7.2211   -4.2531   -0.5300 H   0  0  0  0  0  0  0  0  0  0  0  0
    6.4329   -4.4995    2.8435 H   0  0  0  0  0  0  0  0  0  0  0  0
    5.1074   -6.3578    1.3255 H   0  0  0  0  0  0  0  0  0  0  0  0
    5.8637   -7.6571    2.9537 H   0  0  0  0  0  0  0  0  0  0  0  0
    2.9023   -6.5462    2.0144 H   0  0  0  0  0  0  0  0  0  0  0  0
    3.8569   -8.4402    2.3882 H   0  0  0  0  0  0  0  0  0  0  0  0
    3.3087   -6.2192    4.9687 H   0  0  0  0  0  0  0  0  0  0  0  0
    3.3606   -4.2463    4.9275 H   0  0  0  0  0  0  0  0  0  0  0  0
    5.3316   -4.1126    4.5443 H   0  0  0  0  0  0  0  0  0  0  0  0
    3.0092   -1.2543    5.3691 H   0  0  0  0  0  0  0  0  0  0  0  0
    0.6826   -2.4925    5.8753 H   0  0  0  0  0  0  0  0  0  0  0  0
    0.2418   -4.9312    5.9275 H   0  0  0  0  0  0  0  0  0  0  0  0
    0.5566   -7.3458    4.7711 H   0  0  0  0  0  0  0  0  0  0  0  0
    0.7528   -7.2851    3.0199 H   0  0  0  0  0  0  0  0  0  0  0  0
   -0.5576   -6.3965    3.7924 H   0  0  0  0  0  0  0  0  0  0  0  0
    1.4713   -2.8893    1.3010 H   0  0  0  0  0  0  0  0  0  0  0  0
    2.4357   -1.3321    0.7362 H   0  0  0  0  0  0  0  0  0  0  0  0
    3.1644   -4.9191    0.8881 H   0  0  0  0  0  0  0  0  0  0  0  0
    2.6294   -4.7473   -1.2353 H   0  0  0  0  0  0  0  0  0  0  0  0
    4.7763   -4.6782   -0.5273 H   0  0  0  0  0  0  0  0  0  0  0  0
  1  2  1  0
  1 32  1  0
  1 33  1  0
  1 34  1  0
  2 31  1  0
  2  3  1  0
  2  4  1  0
  3 35  1  0
  3 36  1  0
  3 37  1  0
  4  5  1  0
  4 38  1  0
  4 39  1  0
  5  6  1  0
  5 40  1  0
  5 41  1  0
  6  7  1  0
  6 42  1  0
  6 43  1  0
  7 31  1  0
  7  8  1  6
  7  9  1  0
  8 44  1  0
  8 45  1  0
  8 46  1  0
  9 16  1  0
  9 10  1  0
  9 47  1  1
 10 11  1  0
 10 12  1  0
 10 48  1  6
 11 49  1  0
 12 13  1  0
 12 14  1  0
 12 50  1  6
 13 51  1  0
 14 23  1  0
 14 15  1  0
 14 52  1  1
 15 26  1  0
 15 16  1  0
 15 53  1  1
 16 17  1  0
 16 54  1  1
 17 18  2  0
 17 19  1  0
 19 20  2  0
 19 55  1  0
 20 26  1  0
 20 21  1  0
 21 22  2  0
 21 56  1  0
 22 23  1  0
 22 57  1  0
 23 24  1  6
 23 25  1  0
 24 58  1  0
 24 59  1  0
 24 60  1  0
 26 25  1  6
 26 27  1  0
 27 28  1  0
 27 29  1  0
 27 61  1  6
 28 62  1  0
 29 30  1  0
 29 31  1  0
 29 63  1  1
 30 64  1  0
 31 65  1  6
M  END
>  <i_m_ct_stereo_status>  (302) 
1

>  <s_m_source_file>  (302) 
/var/tmp/pbs.5076255.sched01/tmph7d3_0rd/117btfl79hs.sdf

>  <i_m_source_file_index>  (302) 
19

>  <i_lp_mmshare_version>  (302) 
48012

>  <i_f3d_flags>  (302) 
0

>  <s_epik_input>  (302) 
W0NIMl0xW0NIMl1bQ0gyXUMoW0NIM10pKFtDSDNdKVtDQEhdKFtDQEhdKFtPSF0pW0NAQEhdMltPSF0pW0NAXTEoW0NIM10pW0NASF0oW0NAQEhdKFtPSF0pW0NASF0zW09IXSlbQ0BIXTRDKD1PKVtDSF09QzVbQ0hdPVtDSF1bQ0BdKE82KShbQ0gzXSlbQ0BASF0zW0NAQEhdNFtDQF0yNTY=

>  <s_epik_cmdline>  (302) 
J2VwaWtfcHl0aG9uJywgJy1waHQnLCAnMi4wJywgJy1waCcsICc3LjAnLCAnLXRuJywgJzgnLCAnLW1hJywgJzIwMCcsICctaW1hZScsICc8aW5maWxlLm1hZT4nLCAnLW9tYWUnLCAnPG91dGZpbGUubWFlPic=

>  <r_lp_tautomer_probability>  (302) 
1

>  <r_epik_Ionization_Penalty>  (302) 
6.99894e-07

>  <r_epik_Ionization_Penalty_Charging>  (302) 
0

>  <r_epik_Ionization_Penalty_Neutral>  (302) 
6.99894e-07

>  <r_epik_State_Penalty>  (302) 
-0

>  <r_epik_Charging_Adjusted_Penalty>  (302) 
0

>  <i_epik_Tot_Q>  (302) 
0

>  <i_epik_Tot_abs_Q>  (302) 
0

>  <s_lp_Force_Field>  (302) 
OPLS3e

>  <r_lp_Energy>  (302) 
198.822

>  <b_lp_Chiralities_Consistent>  (302) 
1

>  <s_lp_Variant>  (302) 
101:0-1

>  <s_i_glide_gridfile>  (302) 
pfpi4k_grid

>  <i_i_glide_lignum>  (302) 
19

>  <i_i_glide_rotatable_bonds>  (302) 
4

>  <r_i_docking_score>  (302) 
-2.75898

>  <r_i_glide_ligand_efficiency>  (302) 
-0.0889993

>  <r_i_glide_ligand_efficiency_sa>  (302) 
-0.279581

>  <r_i_glide_ligand_efficiency_ln>  (302) 
-0.622234

>  <r_i_glide_gscore>  (302) 
-2.75898

>  <r_i_glide_lipo>  (302) 
-0.446619

>  <r_i_glide_hbond>  (302) 
0

>  <r_i_glide_metal>  (302) 
-0

>  <r_i_glide_rewards>  (302) 
-0.500626

>  <r_i_glide_evdw>  (302) 
-23.4014

>  <r_i_glide_ecoul>  (302) 
-4.27774

>  <r_i_glide_erotb>  (302) 
0

>  <r_i_glide_esite>  (302) 
0

>  <r_i_glide_emodel>  (302) 
-32.798

>  <r_i_glide_energy>  (302) 
-27.6792

>  <r_i_glide_einternal>  (302) 
1.60179

>  <r_i_glide_intrahb_reward>  (302) 
-0

>  <i_i_glide_confnum>  (302) 
2

>  <i_i_glide_posenum>  (302) 
12

>  <r_i_glide_eff_state_penalty>  (302) 
0

>  <ligand_id>  (302) 
101

>  <original_smiles>  (302) 
CC1(C)CCCC2(C)C3C(O)C(O)C4C5C3C(=O)C=C3C=CC4(C)OC35C(O)C(O)C12

>  <smiles>  (302) 
[H]OC1([H])C([H])(O[H])C2([H])C(C([H])([H])[H])(C([H])([H])[H])C([H])([H])C([H])([H])C([H])([H])C2(C([H])([H])[H])C2([H])C([H])(O[H])C([H])(O[H])C3([H])C4(C([H])([H])[H])OC15C(=C([H])C(=O)C2([H])C53[H])C([H])=C4[H]

$$$$
102:0:0
     RDKit          3D

 27 29  0  0  1  0  0  0  0  0999 V2000
   -5.6874   -8.2752   -8.7164 O   0  0  0  0  0  0  0  0  0  0  0  0
   -6.0552   -9.0581   -7.8611 C   0  0  0  0  0  0  0  0  0  0  0  0
   -5.4300  -10.1650   -7.4567 N   0  0  0  0  0  0  0  0  0  0  0  0
   -6.0840  -10.8450   -6.3644 C   0  0  0  0  0  0  0  0  0  0  0  0
   -7.4085  -10.1027   -6.2013 C   0  0  0  0  0  0  0  0  0  0  0  0
   -7.3022   -8.8140   -7.0352 C   0  0  2  0  0  0  0  0  0  0  0  0
   -8.5289   -8.4522   -7.9231 C   0  0  0  0  0  0  0  0  0  0  0  0
   -8.7104   -6.9176   -7.8440 C   0  0  0  0  0  0  0  0  0  0  0  0
   -7.8282   -6.5015   -6.6946 C   0  0  0  0  0  0  0  0  0  0  0  0
   -7.7479   -5.2354   -6.0920 C   0  0  0  0  0  0  0  0  0  0  0  0
   -6.8363   -5.0585   -5.0262 C   0  0  0  0  0  0  0  0  0  0  0  0
   -6.0331   -6.1343   -4.5817 C   0  0  0  0  0  0  0  0  0  0  0  0
   -6.1252   -7.3991   -5.1872 C   0  0  0  0  0  0  0  0  0  0  0  0
   -7.0469   -7.5578   -6.2385 C   0  0  0  0  0  0  0  0  0  0  0  0
   -4.5292  -10.4581   -7.8086 H   0  0  0  0  0  0  0  0  0  0  0  0
   -6.2368  -11.8897   -6.6004 H   0  0  0  0  0  0  0  0  0  0  0  0
   -5.4604  -10.7454   -5.4881 H   0  0  0  0  0  0  0  0  0  0  0  0
   -8.2134  -10.7223   -6.5742 H   0  0  0  0  0  0  0  0  0  0  0  0
   -7.6198   -9.8702   -5.1689 H   0  0  0  0  0  0  0  0  0  0  0  0
   -8.4288   -8.8065   -8.9528 H   0  0  0  0  0  0  0  0  0  0  0  0
   -9.4210   -8.9369   -7.5183 H   0  0  0  0  0  0  0  0  0  0  0  0
   -8.3768   -6.4348   -8.7587 H   0  0  0  0  0  0  0  0  0  0  0  0
   -9.7471   -6.6569   -7.6555 H   0  0  0  0  0  0  0  0  0  0  0  0
   -8.3648   -4.4234   -6.4386 H   0  0  0  0  0  0  0  0  0  0  0  0
   -6.7539   -4.0968   -4.5411 H   0  0  0  0  0  0  0  0  0  0  0  0
   -5.3466   -5.9979   -3.7686 H   0  0  0  0  0  0  0  0  0  0  0  0
   -5.5042   -8.2214   -4.8589 H   0  0  0  0  0  0  0  0  0  0  0  0
  1  2  2  0
  2  6  1  0
  2  3  1  0
  3  4  1  0
  3 15  1  0
  4  5  1  0
  4 16  1  0
  4 17  1  0
  6  5  1  1
  5 18  1  0
  5 19  1  0
  6 14  1  0
  6  7  1  0
  7  8  1  0
  7 20  1  0
  7 21  1  0
  8  9  1  0
  8 22  1  0
  8 23  1  0
  9 14  2  0
  9 10  1  0
 10 11  2  0
 10 24  1  0
 11 12  1  0
 11 25  1  0
 12 13  2  0
 12 26  1  0
 13 14  1  0
 13 27  1  0
M  END
>  <i_m_ct_stereo_status>  (303) 
1

>  <s_m_source_file>  (303) 
/var/tmp/pbs.5076255.sched01/tmph7d3_0rd/117btfl79hs.sdf

>  <i_m_source_file_index>  (303) 
20

>  <i_lp_mmshare_version>  (303) 
48012

>  <i_f3d_flags>  (303) 
0

>  <s_epik_input>  (303) 
W0NIMl0xW0NIMl1bTkhdQyg9TylbQ0BdMTJjM2MoW0NIMl1bQ0gyXTIpW2NIXVtjSF1bY0hdW2NIXTM=

>  <s_epik_cmdline>  (303) 
J2VwaWtfcHl0aG9uJywgJy1waHQnLCAnMi4wJywgJy1waCcsICc3LjAnLCAnLXRuJywgJzgnLCAnLW1hJywgJzIwMCcsICctaW1hZScsICc8aW5maWxlLm1hZT4nLCAnLW9tYWUnLCAnPG91dGZpbGUubWFlPic=

>  <r_lp_tautomer_probability>  (303) 
1

>  <r_epik_Ionization_Penalty>  (303) 
1.87799e-08

>  <r_epik_Ionization_Penalty_Charging>  (303) 
0

>  <r_epik_Ionization_Penalty_Neutral>  (303) 
1.87799e-08

>  <r_epik_State_Penalty>  (303) 
-0

>  <r_epik_Charging_Adjusted_Penalty>  (303) 
0

>  <i_epik_Tot_Q>  (303) 
0

>  <i_epik_Tot_abs_Q>  (303) 
0

>  <s_lp_Force_Field>  (303) 
OPLS3e

>  <r_lp_Energy>  (303) 
17.237

>  <b_lp_Chiralities_Consistent>  (303) 
1

>  <s_lp_Variant>  (303) 
102:0-1

>  <s_i_glide_gridfile>  (303) 
pfpi4k_grid

>  <i_i_glide_lignum>  (303) 
20

>  <i_i_glide_rotatable_bonds>  (303) 
0

>  <r_i_docking_score>  (303) 
-6.09209

>  <r_i_glide_ligand_efficiency>  (303) 
-0.435149

>  <r_i_glide_ligand_efficiency_sa>  (303) 
-1.04877

>  <r_i_glide_ligand_efficiency_ln>  (303) 
-1.67408

>  <r_i_glide_gscore>  (303) 
-6.09209

>  <r_i_glide_lipo>  (303) 
-2.30536

>  <r_i_glide_hbond>  (303) 
0

>  <r_i_glide_metal>  (303) 
-0

>  <r_i_glide_rewards>  (303) 
-2.87646

>  <r_i_glide_evdw>  (303) 
-18.8004

>  <r_i_glide_ecoul>  (303) 
0.198325

>  <r_i_glide_erotb>  (303) 
0

>  <r_i_glide_esite>  (303) 
0

>  <r_i_glide_emodel>  (303) 
-26.8531

>  <r_i_glide_energy>  (303) 
-18.6021

>  <r_i_glide_einternal>  (303) 
0

>  <r_i_glide_intrahb_reward>  (303) 
-0

>  <i_i_glide_confnum>  (303) 
1

>  <i_i_glide_posenum>  (303) 
14

>  <r_i_glide_eff_state_penalty>  (303) 
0

>  <ligand_id>  (303) 
102

>  <original_smiles>  (303) 
O=C1NCCC12CCc1ccccc12

>  <smiles>  (303) 
[H]c1c([H])c([H])c2c(c1[H])C([H])([H])C([H])([H])C21C(=O)N([H])C([H])([H])C1([H])[H]

$$$$
102:0:1
     RDKit          3D

 27 29  0  0  1  0  0  0  0  0999 V2000
   -8.0935   -6.1948  -10.3945 O   0  0  0  0  0  0  0  0  0  0  0  0
   -7.9228   -7.0949   -9.5633 C   0  0  0  0  0  0  0  0  0  0  0  0
   -6.8872   -7.9222   -9.5184 N   0  0  0  0  0  0  0  0  0  0  0  0
   -6.8996   -8.8518   -8.4100 C   0  0  0  0  0  0  0  0  0  0  0  0
   -8.2708   -8.6553   -7.7678 C   0  0  0  0  0  0  0  0  0  0  0  0
   -8.8521   -7.3698   -8.3909 C   0  0  2  0  0  0  0  0  0  0  0  0
  -10.3447   -7.4487   -8.8171 C   0  0  0  0  0  0  0  0  0  0  0  0
  -10.9835   -6.1022   -8.4251 C   0  0  0  0  0  0  0  0  0  0  0  0
   -9.9821   -5.4511   -7.5123 C   0  0  0  0  0  0  0  0  0  0  0  0
  -10.1369   -4.2832   -6.7478 C   0  0  0  0  0  0  0  0  0  0  0  0
   -9.0508   -3.8495   -5.9552 C   0  0  0  0  0  0  0  0  0  0  0  0
   -7.8385   -4.5817   -5.9264 C   0  0  0  0  0  0  0  0  0  0  0  0
   -7.7050   -5.7581   -6.6892 C   0  0  0  0  0  0  0  0  0  0  0  0
   -8.7911   -6.1674   -7.4810 C   0  0  0  0  0  0  0  0  0  0  0  0
   -6.1091   -7.8589  -10.1631 H   0  0  0  0  0  0  0  0  0  0  0  0
   -6.7611   -9.8692   -8.7703 H   0  0  0  0  0  0  0  0  0  0  0  0
   -6.1038   -8.6060   -7.7070 H   0  0  0  0  0  0  0  0  0  0  0  0
   -8.8923   -9.5165   -8.0024 H   0  0  0  0  0  0  0  0  0  0  0  0
   -8.1918   -8.5838   -6.6875 H   0  0  0  0  0  0  0  0  0  0  0  0
  -10.4711   -7.6791   -9.8776 H   0  0  0  0  0  0  0  0  0  0  0  0
  -10.8441   -8.2458   -8.2654 H   0  0  0  0  0  0  0  0  0  0  0  0
  -11.1529   -5.4772   -9.2999 H   0  0  0  0  0  0  0  0  0  0  0  0
  -11.9230   -6.2722   -7.9121 H   0  0  0  0  0  0  0  0  0  0  0  0
  -11.0662   -3.7319   -6.7645 H   0  0  0  0  0  0  0  0  0  0  0  0
   -9.1448   -2.9490   -5.3682 H   0  0  0  0  0  0  0  0  0  0  0  0
   -7.0054   -4.2341   -5.3332 H   0  0  0  0  0  0  0  0  0  0  0  0
   -6.7762   -6.3141   -6.6916 H   0  0  0  0  0  0  0  0  0  0  0  0
  1  2  2  0
  2  6  1  0
  2  3  1  0
  3  4  1  0
  3 15  1  0
  4  5  1  0
  4 16  1  0
  4 17  1  0
  6  5  1  1
  5 18  1  0
  5 19  1  0
  6 14  1  0
  6  7  1  0
  7  8  1  0
  7 20  1  0
  7 21  1  0
  8  9  1  0
  8 22  1  0
  8 23  1  0
  9 14  2  0
  9 10  1  0
 10 11  2  0
 10 24  1  0
 11 12  1  0
 11 25  1  0
 12 13  2  0
 12 26  1  0
 13 14  1  0
 13 27  1  0
M  END
>  <i_m_ct_stereo_status>  (304) 
1

>  <s_m_source_file>  (304) 
/var/tmp/pbs.5076255.sched01/tmph7d3_0rd/117btfl79hs.sdf

>  <i_m_source_file_index>  (304) 
20

>  <i_lp_mmshare_version>  (304) 
48012

>  <i_f3d_flags>  (304) 
0

>  <s_epik_input>  (304) 
W0NIMl0xW0NIMl1bTkhdQyg9TylbQ0BdMTJjM2MoW0NIMl1bQ0gyXTIpW2NIXVtjSF1bY0hdW2NIXTM=

>  <s_epik_cmdline>  (304) 
J2VwaWtfcHl0aG9uJywgJy1waHQnLCAnMi4wJywgJy1waCcsICc3LjAnLCAnLXRuJywgJzgnLCAnLW1hJywgJzIwMCcsICctaW1hZScsICc8aW5maWxlLm1hZT4nLCAnLW9tYWUnLCAnPG91dGZpbGUubWFlPic=

>  <r_lp_tautomer_probability>  (304) 
1

>  <r_epik_Ionization_Penalty>  (304) 
1.87799e-08

>  <r_epik_Ionization_Penalty_Charging>  (304) 
0

>  <r_epik_Ionization_Penalty_Neutral>  (304) 
1.87799e-08

>  <r_epik_State_Penalty>  (304) 
-0

>  <r_epik_Charging_Adjusted_Penalty>  (304) 
0

>  <i_epik_Tot_Q>  (304) 
0

>  <i_epik_Tot_abs_Q>  (304) 
0

>  <s_lp_Force_Field>  (304) 
OPLS3e

>  <r_lp_Energy>  (304) 
17.237

>  <b_lp_Chiralities_Consistent>  (304) 
1

>  <s_lp_Variant>  (304) 
102:0-1

>  <s_i_glide_gridfile>  (304) 
pfpi4k_grid

>  <i_i_glide_lignum>  (304) 
20

>  <i_i_glide_rotatable_bonds>  (304) 
0

>  <r_i_docking_score>  (304) 
-5.93176

>  <r_i_glide_ligand_efficiency>  (304) 
-0.423697

>  <r_i_glide_ligand_efficiency_sa>  (304) 
-1.02117

>  <r_i_glide_ligand_efficiency_ln>  (304) 
-1.63003

>  <r_i_glide_gscore>  (304) 
-5.93176

>  <r_i_glide_lipo>  (304) 
-1.72817

>  <r_i_glide_hbond>  (304) 
0

>  <r_i_glide_metal>  (304) 
-0

>  <r_i_glide_rewards>  (304) 
-2.87062

>  <r_i_glide_evdw>  (304) 
-20.7903

>  <r_i_glide_ecoul>  (304) 
-1.95642

>  <r_i_glide_erotb>  (304) 
0

>  <r_i_glide_esite>  (304) 
0

>  <r_i_glide_emodel>  (304) 
-30.8499

>  <r_i_glide_energy>  (304) 
-22.7468

>  <r_i_glide_einternal>  (304) 
0

>  <r_i_glide_intrahb_reward>  (304) 
-0

>  <i_i_glide_confnum>  (304) 
1

>  <i_i_glide_posenum>  (304) 
2

>  <r_i_glide_eff_state_penalty>  (304) 
0

>  <ligand_id>  (304) 
102

>  <original_smiles>  (304) 
O=C1NCCC12CCc1ccccc12

>  <smiles>  (304) 
[H]c1c([H])c([H])c2c(c1[H])C([H])([H])C([H])([H])C21C(=O)N([H])C([H])([H])C1([H])[H]

$$$$
102:0:2
     RDKit          3D

 27 29  0  0  1  0  0  0  0  0999 V2000
    7.2440   -2.1396    0.1815 O   0  0  0  0  0  0  0  0  0  0  0  0
    6.2113   -1.7653    0.7186 C   0  0  0  0  0  0  0  0  0  0  0  0
    6.0972   -0.6858    1.5076 N   0  0  0  0  0  0  0  0  0  0  0  0
    4.7533   -0.4112    1.9527 C   0  0  0  0  0  0  0  0  0  0  0  0
    3.9460   -1.6037    1.4887 C   0  0  0  0  0  0  0  0  0  0  0  0
    4.8356   -2.3972    0.5161 C   0  0  2  0  0  0  0  0  0  0  0  0
    4.8422   -3.9403    0.7081 C   0  0  0  0  0  0  0  0  0  0  0  0
    4.8262   -4.5656   -0.7015 C   0  0  0  0  0  0  0  0  0  0  0  0
    4.4769   -3.4211   -1.6184 C   0  0  0  0  0  0  0  0  0  0  0  0
    4.2158   -3.4584   -3.0016 C   0  0  0  0  0  0  0  0  0  0  0  0
    3.9170   -2.2474   -3.6687 C   0  0  0  0  0  0  0  0  0  0  0  0
    3.9173   -1.0224   -2.9679 C   0  0  0  0  0  0  0  0  0  0  0  0
    4.2084   -1.0062   -1.5891 C   0  0  0  0  0  0  0  0  0  0  0  0
    4.4704   -2.2175   -0.9376 C   0  0  0  0  0  0  0  0  0  0  0  0
    6.8835   -0.0756    1.6925 H   0  0  0  0  0  0  0  0  0  0  0  0
    4.7383   -0.3009    3.0340 H   0  0  0  0  0  0  0  0  0  0  0  0
    4.3944    0.5015    1.4819 H   0  0  0  0  0  0  0  0  0  0  0  0
    3.6863   -2.2069    2.3516 H   0  0  0  0  0  0  0  0  0  0  0  0
    3.0196   -1.3005    1.0175 H   0  0  0  0  0  0  0  0  0  0  0  0
    5.6810   -4.2917    1.3123 H   0  0  0  0  0  0  0  0  0  0  0  0
    3.9339   -4.2526    1.2276 H   0  0  0  0  0  0  0  0  0  0  0  0
    5.8038   -4.9509   -0.9598 H   0  0  0  0  0  0  0  0  0  0  0  0
    4.1043   -5.3744   -0.7417 H   0  0  0  0  0  0  0  0  0  0  0  0
    4.2264   -4.3958   -3.5299 H   0  0  0  0  0  0  0  0  0  0  0  0
    3.6723   -2.2612   -4.7175 H   0  0  0  0  0  0  0  0  0  0  0  0
    3.6918   -0.0955   -3.4735 H   0  0  0  0  0  0  0  0  0  0  0  0
    4.2198   -0.0811   -1.0341 H   0  0  0  0  0  0  0  0  0  0  0  0
  1  2  2  0
  2  6  1  0
  2  3  1  0
  3  4  1  0
  3 15  1  0
  4  5  1  0
  4 16  1  0
  4 17  1  0
  6  5  1  1
  5 18  1  0
  5 19  1  0
  6 14  1  0
  6  7  1  0
  7  8  1  0
  7 20  1  0
  7 21  1  0
  8  9  1  0
  8 22  1  0
  8 23  1  0
  9 14  2  0
  9 10  1  0
 10 11  2  0
 10 24  1  0
 11 12  1  0
 11 25  1  0
 12 13  2  0
 12 26  1  0
 13 14  1  0
 13 27  1  0
M  END
>  <i_m_ct_stereo_status>  (305) 
1

>  <s_m_source_file>  (305) 
/var/tmp/pbs.5076255.sched01/tmph7d3_0rd/117btfl79hs.sdf

>  <i_m_source_file_index>  (305) 
20

>  <i_lp_mmshare_version>  (305) 
48012

>  <i_f3d_flags>  (305) 
0

>  <s_epik_input>  (305) 
W0NIMl0xW0NIMl1bTkhdQyg9TylbQ0BdMTJjM2MoW0NIMl1bQ0gyXTIpW2NIXVtjSF1bY0hdW2NIXTM=

>  <s_epik_cmdline>  (305) 
J2VwaWtfcHl0aG9uJywgJy1waHQnLCAnMi4wJywgJy1waCcsICc3LjAnLCAnLXRuJywgJzgnLCAnLW1hJywgJzIwMCcsICctaW1hZScsICc8aW5maWxlLm1hZT4nLCAnLW9tYWUnLCAnPG91dGZpbGUubWFlPic=

>  <r_lp_tautomer_probability>  (305) 
1

>  <r_epik_Ionization_Penalty>  (305) 
1.87799e-08

>  <r_epik_Ionization_Penalty_Charging>  (305) 
0

>  <r_epik_Ionization_Penalty_Neutral>  (305) 
1.87799e-08

>  <r_epik_State_Penalty>  (305) 
-0

>  <r_epik_Charging_Adjusted_Penalty>  (305) 
0

>  <i_epik_Tot_Q>  (305) 
0

>  <i_epik_Tot_abs_Q>  (305) 
0

>  <s_lp_Force_Field>  (305) 
OPLS3e

>  <r_lp_Energy>  (305) 
17.237

>  <b_lp_Chiralities_Consistent>  (305) 
1

>  <s_lp_Variant>  (305) 
102:0-1

>  <s_i_glide_gridfile>  (305) 
pfpi4k_grid

>  <i_i_glide_lignum>  (305) 
20

>  <i_i_glide_rotatable_bonds>  (305) 
0

>  <r_i_docking_score>  (305) 
-4.44551

>  <r_i_glide_ligand_efficiency>  (305) 
-0.317537

>  <r_i_glide_ligand_efficiency_sa>  (305) 
-0.765309

>  <r_i_glide_ligand_efficiency_ln>  (305) 
-1.22161

>  <r_i_glide_gscore>  (305) 
-4.44551

>  <r_i_glide_lipo>  (305) 
-0.41953

>  <r_i_glide_hbond>  (305) 
-0.32

>  <r_i_glide_metal>  (305) 
-0

>  <r_i_glide_rewards>  (305) 
-2.27379

>  <r_i_glide_evdw>  (305) 
-18.9937

>  <r_i_glide_ecoul>  (305) 
-3.21675

>  <r_i_glide_erotb>  (305) 
0

>  <r_i_glide_esite>  (305) 
0

>  <r_i_glide_emodel>  (305) 
-28.1901

>  <r_i_glide_energy>  (305) 
-22.2104

>  <r_i_glide_einternal>  (305) 
0

>  <r_i_glide_intrahb_reward>  (305) 
-0

>  <i_i_glide_confnum>  (305) 
1

>  <i_i_glide_posenum>  (305) 
8

>  <r_i_glide_eff_state_penalty>  (305) 
0

>  <ligand_id>  (305) 
102

>  <original_smiles>  (305) 
O=C1NCCC12CCc1ccccc12

>  <smiles>  (305) 
[H]c1c([H])c([H])c2c(c1[H])C([H])([H])C([H])([H])C21C(=O)N([H])C([H])([H])C1([H])[H]

$$$$
103:0:0
     RDKit          3D

 22 24  0  0  1  0  0  0  0  0999 V2000
    2.4744    4.5935    2.7579 C   0  0  0  0  0  0  0  0  0  0  0  0
    1.5404    4.3309    3.8909 C   0  0  0  0  0  0  0  0  0  0  0  0
    0.2862    3.8913    3.6714 N   0  0  0  0  0  0  0  0  0  0  0  0
   -0.3125    3.7457    4.9171 C   0  0  0  0  0  0  0  0  0  0  0  0
   -1.5653    3.3310    5.3980 C   0  0  0  0  0  0  0  0  0  0  0  0
   -1.7803    3.3267    6.7939 C   0  0  0  0  0  0  0  0  0  0  0  0
   -2.9760    2.9331    7.2975 N   0  0  0  0  0  0  0  0  0  0  0  0
   -3.1658    2.9495    8.6334 C   0  0  0  0  0  0  0  0  0  0  0  0
   -2.1696    3.3379    9.5403 C   0  0  0  0  0  0  0  0  0  0  0  0
   -0.9254    3.7436    9.0232 C   0  0  0  0  0  0  0  0  0  0  0  0
   -0.6998    3.7505    7.6290 C   0  0  0  0  0  0  0  0  0  0  0  0
    0.5087    4.1504    7.1554 N   0  0  0  0  0  0  0  0  0  0  0  0
    0.6948    4.1422    5.8332 C   0  0  0  0  0  0  0  0  0  0  0  0
    1.8576    4.5085    5.1738 N   0  0  0  0  0  0  0  0  0  0  0  0
    3.4292    4.9505    3.1381 H   0  0  0  0  0  0  0  0  0  0  0  0
    2.0618    5.3491    2.0904 H   0  0  0  0  0  0  0  0  0  0  0  0
    2.6493    3.6855    2.1816 H   0  0  0  0  0  0  0  0  0  0  0  0
   -2.3438    3.0225    4.7168 H   0  0  0  0  0  0  0  0  0  0  0  0
   -4.1349    2.6374    8.9943 H   0  0  0  0  0  0  0  0  0  0  0  0
   -2.3519    3.3233   10.6072 H   0  0  0  0  0  0  0  0  0  0  0  0
   -0.1414    4.0505    9.6993 H   0  0  0  0  0  0  0  0  0  0  0  0
   -0.0878    3.7412    2.7386 H   0  0  0  0  0  0  0  0  0  0  0  0
  1  2  1  0
  1 15  1  0
  1 16  1  0
  1 17  1  0
  2 14  2  0
  2  3  1  0
  3  4  1  0
  3 22  1  0
  4 13  2  0
  4  5  1  0
  5  6  2  0
  5 18  1  0
  6 11  1  0
  6  7  1  0
  7  8  2  0
  8  9  1  0
  8 19  1  0
  9 10  2  0
  9 20  1  0
 10 11  1  0
 10 21  1  0
 11 12  2  0
 12 13  1  0
 13 14  1  0
M  END
>  <i_m_ct_stereo_status>  (306) 
1

>  <s_m_source_file>  (306) 
/var/tmp/pbs.5076255.sched01/tmph7d3_0rd/117btfl79hs.sdf

>  <i_m_source_file_index>  (306) 
21

>  <i_lp_mmshare_version>  (306) 
48012

>  <i_f3d_flags>  (306) 
0

>  <s_epik_input>  (306) 
W0NIM11jKG4xKVtuSF1jKGMxMiluYzNjKFtjSF0yKW5bY0hdW2NIXVtjSF0z

>  <s_epik_cmdline>  (306) 
J2VwaWtfcHl0aG9uJywgJy1waHQnLCAnMi4wJywgJy1waCcsICc3LjAnLCAnLXRuJywgJzgnLCAnLW1hJywgJzIwMCcsICctaW1hZScsICc8aW5maWxlLm1hZT4nLCAnLW9tYWUnLCAnPG91dGZpbGUubWFlPic=

>  <r_epik_Ionization_Penalty>  (306) 
0.000355282

>  <r_epik_Ionization_Penalty_Charging>  (306) 
0

>  <r_epik_Ionization_Penalty_Neutral>  (306) 
0.000355282

>  <r_epik_State_Penalty>  (306) 
0.188191

>  <r_epik_Charging_Adjusted_Penalty>  (306) 
0.188191

>  <i_epik_Tot_Q>  (306) 
0

>  <i_epik_Tot_abs_Q>  (306) 
0

>  <s_lp_Force_Field>  (306) 
OPLS3e

>  <r_lp_Energy>  (306) 
19.291

>  <b_lp_Chiralities_Consistent>  (306) 
1

>  <s_lp_Variant>  (306) 
103:0-1

>  <s_i_glide_gridfile>  (306) 
pfpi4k_grid

>  <i_i_glide_lignum>  (306) 
21

>  <i_i_glide_rotatable_bonds>  (306) 
0

>  <r_i_docking_score>  (306) 
-3.85455

>  <r_i_glide_ligand_efficiency>  (306) 
-0.275325

>  <r_i_glide_ligand_efficiency_sa>  (306) 
-0.663572

>  <r_i_glide_ligand_efficiency_ln>  (306) 
-1.05922

>  <r_i_glide_gscore>  (306) 
-3.85455

>  <r_i_glide_lipo>  (306) 
-0.0736195

>  <r_i_glide_hbond>  (306) 
-0.123686

>  <r_i_glide_metal>  (306) 
-0

>  <r_i_glide_rewards>  (306) 
-2.1532

>  <r_i_glide_evdw>  (306) 
-15.0536

>  <r_i_glide_ecoul>  (306) 
-3.99493

>  <r_i_glide_erotb>  (306) 
0

>  <r_i_glide_esite>  (306) 
-0.152123

>  <r_i_glide_emodel>  (306) 
-24.5512

>  <r_i_glide_energy>  (306) 
-19.0485

>  <r_i_glide_einternal>  (306) 
0

>  <r_i_glide_intrahb_reward>  (306) 
-0

>  <i_i_glide_confnum>  (306) 
2

>  <i_i_glide_posenum>  (306) 
39

>  <r_i_glide_eff_state_penalty>  (306) 
0

>  <ligand_id>  (306) 
103

>  <original_smiles>  (306) 
Cc1nc2cc3ncccc3nc2[nH]1

>  <smiles>  (306) 
[H]c1nc2c([H])c3c(nc(C([H])([H])[H])n3[H])nc2c([H])c1[H]

$$$$
103:0:1
     RDKit          3D

 22 24  0  0  1  0  0  0  0  0999 V2000
   -0.5105    0.9893    2.0938 C   0  0  0  0  0  0  0  0  0  0  0  0
   -0.8219    1.3431    3.5081 C   0  0  0  0  0  0  0  0  0  0  0  0
   -1.7793    2.2410    3.8090 N   0  0  0  0  0  0  0  0  0  0  0  0
   -1.8161    2.3340    5.1942 C   0  0  0  0  0  0  0  0  0  0  0  0
   -2.5667    3.0514    6.1378 C   0  0  0  0  0  0  0  0  0  0  0  0
   -2.2895    2.8598    7.5073 C   0  0  0  0  0  0  0  0  0  0  0  0
   -2.9907    3.5417    8.4434 N   0  0  0  0  0  0  0  0  0  0  0  0
   -2.7107    3.3491    9.7509 C   0  0  0  0  0  0  0  0  0  0  0  0
   -1.7065    2.4711   10.1865 C   0  0  0  0  0  0  0  0  0  0  0  0
   -0.9761    1.7603    9.2184 C   0  0  0  0  0  0  0  0  0  0  0  0
   -1.2580    1.9292    7.8440 C   0  0  0  0  0  0  0  0  0  0  0  0
   -0.5606    1.2090    6.9262 N   0  0  0  0  0  0  0  0  0  0  0  0
   -0.8243    1.4233    5.6339 C   0  0  0  0  0  0  0  0  0  0  0  0
   -0.2087    0.7985    4.5616 N   0  0  0  0  0  0  0  0  0  0  0  0
    0.2912    0.2535    2.0601 H   0  0  0  0  0  0  0  0  0  0  0  0
   -0.1912    1.8701    1.5375 H   0  0  0  0  0  0  0  0  0  0  0  0
   -1.3910    0.5664    1.6145 H   0  0  0  0  0  0  0  0  0  0  0  0
   -3.3412    3.7318    5.8240 H   0  0  0  0  0  0  0  0  0  0  0  0
   -3.2990    3.9051   10.4671 H   0  0  0  0  0  0  0  0  0  0  0  0
   -1.5231    2.3262   11.2445 H   0  0  0  0  0  0  0  0  0  0  0  0
   -0.2087    1.0677    9.5301 H   0  0  0  0  0  0  0  0  0  0  0  0
   -2.3507    2.7099    3.1208 H   0  0  0  0  0  0  0  0  0  0  0  0
  1  2  1  0
  1 15  1  0
  1 16  1  0
  1 17  1  0
  2 14  2  0
  2  3  1  0
  3  4  1  0
  3 22  1  0
  4 13  2  0
  4  5  1  0
  5  6  2  0
  5 18  1  0
  6 11  1  0
  6  7  1  0
  7  8  2  0
  8  9  1  0
  8 19  1  0
  9 10  2  0
  9 20  1  0
 10 11  1  0
 10 21  1  0
 11 12  2  0
 12 13  1  0
 13 14  1  0
M  END
>  <i_m_ct_stereo_status>  (307) 
1

>  <s_m_source_file>  (307) 
/var/tmp/pbs.5076255.sched01/tmph7d3_0rd/117btfl79hs.sdf

>  <i_m_source_file_index>  (307) 
21

>  <i_lp_mmshare_version>  (307) 
48012

>  <i_f3d_flags>  (307) 
0

>  <s_epik_input>  (307) 
W0NIM11jKG4xKVtuSF1jKGMxMiluYzNjKFtjSF0yKW5bY0hdW2NIXVtjSF0z

>  <s_epik_cmdline>  (307) 
J2VwaWtfcHl0aG9uJywgJy1waHQnLCAnMi4wJywgJy1waCcsICc3LjAnLCAnLXRuJywgJzgnLCAnLW1hJywgJzIwMCcsICctaW1hZScsICc8aW5maWxlLm1hZT4nLCAnLW9tYWUnLCAnPG91dGZpbGUubWFlPic=

>  <r_epik_Ionization_Penalty>  (307) 
0.000355282

>  <r_epik_Ionization_Penalty_Charging>  (307) 
0

>  <r_epik_Ionization_Penalty_Neutral>  (307) 
0.000355282

>  <r_epik_State_Penalty>  (307) 
0.188191

>  <r_epik_Charging_Adjusted_Penalty>  (307) 
0.188191

>  <i_epik_Tot_Q>  (307) 
0

>  <i_epik_Tot_abs_Q>  (307) 
0

>  <s_lp_Force_Field>  (307) 
OPLS3e

>  <r_lp_Energy>  (307) 
19.291

>  <b_lp_Chiralities_Consistent>  (307) 
1

>  <s_lp_Variant>  (307) 
103:0-1

>  <s_i_glide_gridfile>  (307) 
pfpi4k_grid

>  <i_i_glide_lignum>  (307) 
21

>  <i_i_glide_rotatable_bonds>  (307) 
0

>  <r_i_docking_score>  (307) 
-3.60102

>  <r_i_glide_ligand_efficiency>  (307) 
-0.257216

>  <r_i_glide_ligand_efficiency_sa>  (307) 
-0.619927

>  <r_i_glide_ligand_efficiency_ln>  (307) 
-0.989548

>  <r_i_glide_gscore>  (307) 
-3.60102

>  <r_i_glide_lipo>  (307) 
-0.190126

>  <r_i_glide_hbond>  (307) 
0

>  <r_i_glide_metal>  (307) 
-0

>  <r_i_glide_rewards>  (307) 
-2.1532

>  <r_i_glide_evdw>  (307) 
-17.7964

>  <r_i_glide_ecoul>  (307) 
-1.95854

>  <r_i_glide_erotb>  (307) 
0

>  <r_i_glide_esite>  (307) 
-0.0740935

>  <r_i_glide_emodel>  (307) 
-24.9015

>  <r_i_glide_energy>  (307) 
-19.7549

>  <r_i_glide_einternal>  (307) 
0

>  <r_i_glide_intrahb_reward>  (307) 
-0

>  <i_i_glide_confnum>  (307) 
1

>  <i_i_glide_posenum>  (307) 
28

>  <r_i_glide_eff_state_penalty>  (307) 
0

>  <ligand_id>  (307) 
103

>  <original_smiles>  (307) 
Cc1nc2cc3ncccc3nc2[nH]1

>  <smiles>  (307) 
[H]c1nc2c([H])c3c(nc(C([H])([H])[H])n3[H])nc2c([H])c1[H]

$$$$
103:0:2
     RDKit          3D

 22 24  0  0  1  0  0  0  0  0999 V2000
   -0.5630   -5.2391    7.3569 C   0  0  0  0  0  0  0  0  0  0  0  0
   -0.4651   -4.0188    6.5030 C   0  0  0  0  0  0  0  0  0  0  0  0
    0.5855   -3.8152    5.6852 N   0  0  0  0  0  0  0  0  0  0  0  0
    0.3630   -2.6011    5.0530 C   0  0  0  0  0  0  0  0  0  0  0  0
    1.0398   -1.8179    4.1087 C   0  0  0  0  0  0  0  0  0  0  0  0
    0.4572   -0.5955    3.7106 C   0  0  0  0  0  0  0  0  0  0  0  0
    1.0831    0.1812    2.7949 N   0  0  0  0  0  0  0  0  0  0  0  0
    0.5111    1.3403    2.4024 C   0  0  0  0  0  0  0  0  0  0  0  0
   -0.7137    1.7889    2.9217 C   0  0  0  0  0  0  0  0  0  0  0  0
   -1.3635    0.9891    3.8792 C   0  0  0  0  0  0  0  0  0  0  0  0
   -0.7965   -0.2351    4.3009 C   0  0  0  0  0  0  0  0  0  0  0  0
   -1.4500   -1.0023    5.2152 N   0  0  0  0  0  0  0  0  0  0  0  0
   -0.8731   -2.1510    5.5758 C   0  0  0  0  0  0  0  0  0  0  0  0
   -1.3881   -3.0574    6.4826 N   0  0  0  0  0  0  0  0  0  0  0  0
   -1.4842   -5.2089    7.9380 H   0  0  0  0  0  0  0  0  0  0  0  0
    0.2804   -5.2898    8.0452 H   0  0  0  0  0  0  0  0  0  0  0  0
   -0.5733   -6.1344    6.7360 H   0  0  0  0  0  0  0  0  0  0  0  0
    1.9817   -2.1398    3.6931 H   0  0  0  0  0  0  0  0  0  0  0  0
    1.0462    1.9307    1.6721 H   0  0  0  0  0  0  0  0  0  0  0  0
   -1.1362    2.7252    2.5859 H   0  0  0  0  0  0  0  0  0  0  0  0
   -2.3100    1.3091    4.2837 H   0  0  0  0  0  0  0  0  0  0  0  0
    1.3696   -4.4452    5.5867 H   0  0  0  0  0  0  0  0  0  0  0  0
  1  2  1  0
  1 15  1  0
  1 16  1  0
  1 17  1  0
  2 14  2  0
  2  3  1  0
  3  4  1  0
  3 22  1  0
  4 13  2  0
  4  5  1  0
  5  6  2  0
  5 18  1  0
  6 11  1  0
  6  7  1  0
  7  8  2  0
  8  9  1  0
  8 19  1  0
  9 10  2  0
  9 20  1  0
 10 11  1  0
 10 21  1  0
 11 12  2  0
 12 13  1  0
 13 14  1  0
M  END
>  <i_m_ct_stereo_status>  (308) 
1

>  <s_m_source_file>  (308) 
/var/tmp/pbs.5076255.sched01/tmph7d3_0rd/117btfl79hs.sdf

>  <i_m_source_file_index>  (308) 
21

>  <i_lp_mmshare_version>  (308) 
48012

>  <i_f3d_flags>  (308) 
0

>  <s_epik_input>  (308) 
W0NIM11jKG4xKVtuSF1jKGMxMiluYzNjKFtjSF0yKW5bY0hdW2NIXVtjSF0z

>  <s_epik_cmdline>  (308) 
J2VwaWtfcHl0aG9uJywgJy1waHQnLCAnMi4wJywgJy1waCcsICc3LjAnLCAnLXRuJywgJzgnLCAnLW1hJywgJzIwMCcsICctaW1hZScsICc8aW5maWxlLm1hZT4nLCAnLW9tYWUnLCAnPG91dGZpbGUubWFlPic=

>  <r_epik_Ionization_Penalty>  (308) 
0.000355282

>  <r_epik_Ionization_Penalty_Charging>  (308) 
0

>  <r_epik_Ionization_Penalty_Neutral>  (308) 
0.000355282

>  <r_epik_State_Penalty>  (308) 
0.188191

>  <r_epik_Charging_Adjusted_Penalty>  (308) 
0.188191

>  <i_epik_Tot_Q>  (308) 
0

>  <i_epik_Tot_abs_Q>  (308) 
0

>  <s_lp_Force_Field>  (308) 
OPLS3e

>  <r_lp_Energy>  (308) 
19.291

>  <b_lp_Chiralities_Consistent>  (308) 
1

>  <s_lp_Variant>  (308) 
103:0-1

>  <s_i_glide_gridfile>  (308) 
pfpi4k_grid

>  <i_i_glide_lignum>  (308) 
21

>  <i_i_glide_rotatable_bonds>  (308) 
0

>  <r_i_docking_score>  (308) 
-3.57358

>  <r_i_glide_ligand_efficiency>  (308) 
-0.255256

>  <r_i_glide_ligand_efficiency_sa>  (308) 
-0.615203

>  <r_i_glide_ligand_efficiency_ln>  (308) 
-0.982008

>  <r_i_glide_gscore>  (308) 
-3.57358

>  <r_i_glide_lipo>  (308) 
-0.0768667

>  <r_i_glide_hbond>  (308) 
0

>  <r_i_glide_metal>  (308) 
-0

>  <r_i_glide_rewards>  (308) 
-2.1532

>  <r_i_glide_evdw>  (308) 
-15.5735

>  <r_i_glide_ecoul>  (308) 
-3.38887

>  <r_i_glide_erotb>  (308) 
0

>  <r_i_glide_esite>  (308) 
-0.0565117

>  <r_i_glide_emodel>  (308) 
-24.0679

>  <r_i_glide_energy>  (308) 
-18.9624

>  <r_i_glide_einternal>  (308) 
0

>  <r_i_glide_intrahb_reward>  (308) 
-0

>  <i_i_glide_confnum>  (308) 
1

>  <i_i_glide_posenum>  (308) 
2

>  <r_i_glide_eff_state_penalty>  (308) 
0

>  <ligand_id>  (308) 
103

>  <original_smiles>  (308) 
Cc1nc2cc3ncccc3nc2[nH]1

>  <smiles>  (308) 
[H]c1nc2c([H])c3c(nc(C([H])([H])[H])n3[H])nc2c([H])c1[H]

$$$$
103:1:0
     RDKit          3D

 22 24  0  0  1  0  0  0  0  0999 V2000
    4.1225   -0.7075    0.8020 C   0  0  0  0  0  0  0  0  0  0  0  0
    3.1226   -0.0211    1.6724 C   0  0  0  0  0  0  0  0  0  0  0  0
    3.4139    0.4689    2.8795 N   0  0  0  0  0  0  0  0  0  0  0  0
    2.2009    1.0095    3.2840 C   0  0  0  0  0  0  0  0  0  0  0  0
    1.7987    1.6838    4.4536 C   0  0  0  0  0  0  0  0  0  0  0  0
    0.4597    2.1127    4.6019 C   0  0  0  0  0  0  0  0  0  0  0  0
    0.0838    2.7499    5.7346 N   0  0  0  0  0  0  0  0  0  0  0  0
   -1.1909    3.1653    5.8745 C   0  0  0  0  0  0  0  0  0  0  0  0
   -2.1663    2.9620    4.8850 C   0  0  0  0  0  0  0  0  0  0  0  0
   -1.7805    2.2959    3.7046 C   0  0  0  0  0  0  0  0  0  0  0  0
   -0.4526    1.8411    3.5343 C   0  0  0  0  0  0  0  0  0  0  0  0
   -0.1157    1.1802    2.3999 N   0  0  0  0  0  0  0  0  0  0  0  0
    1.1914    0.8061    2.3088 C   0  0  0  0  0  0  0  0  0  0  0  0
    1.8397    0.1438    1.2840 N   0  0  0  0  0  0  0  0  0  0  0  0
    1.4284   -0.2004    0.4071 H   0  0  0  0  0  0  0  0  0  0  0  0
    5.0932   -0.7285    1.3013 H   0  0  0  0  0  0  0  0  0  0  0  0
    4.2359   -0.1790   -0.1438 H   0  0  0  0  0  0  0  0  0  0  0  0
    3.8146   -1.7342    0.6032 H   0  0  0  0  0  0  0  0  0  0  0  0
    2.5189    1.8591    5.2375 H   0  0  0  0  0  0  0  0  0  0  0  0
   -1.4383    3.6715    6.7978 H   0  0  0  0  0  0  0  0  0  0  0  0
   -3.1863    3.2984    5.0312 H   0  0  0  0  0  0  0  0  0  0  0  0
   -2.5157    2.1290    2.9299 H   0  0  0  0  0  0  0  0  0  0  0  0
  1  2  1  0
  1 16  1  0
  1 17  1  0
  1 18  1  0
  2 14  1  0
  2  3  2  0
  3  4  1  0
  4 13  2  0
  4  5  1  0
  5  6  2  0
  5 19  1  0
  6 11  1  0
  6  7  1  0
  7  8  2  0
  8  9  1  0
  8 20  1  0
  9 10  2  0
  9 21  1  0
 10 11  1  0
 10 22  1  0
 11 12  2  0
 12 13  1  0
 13 14  1  0
 14 15  1  0
M  END
>  <i_m_ct_stereo_status>  (309) 
1

>  <s_m_source_file>  (309) 
/var/tmp/pbs.5076255.sched01/tmph7d3_0rd/117btfl79hs.sdf

>  <i_m_source_file_index>  (309) 
22

>  <i_lp_mmshare_version>  (309) 
48012

>  <i_f3d_flags>  (309) 
0

>  <s_epik_input>  (309) 
W0NIM11jKG4xKVtuSF1jKGMxMiluYzNjKFtjSF0yKW5bY0hdW2NIXVtjSF0z

>  <s_epik_cmdline>  (309) 
J2VwaWtfcHl0aG9uJywgJy1waHQnLCAnMi4wJywgJy1waCcsICc3LjAnLCAnLXRuJywgJzgnLCAnLW1hJywgJzIwMCcsICctaW1hZScsICc8aW5maWxlLm1hZT4nLCAnLW9tYWUnLCAnPG91dGZpbGUubWFlPic=

>  <r_epik_Ionization_Penalty>  (309) 
0.000450037

>  <r_epik_Ionization_Penalty_Charging>  (309) 
5.42579e-05

>  <r_epik_Ionization_Penalty_Neutral>  (309) 
0.000395779

>  <r_epik_State_Penalty>  (309) 
0.77111

>  <r_epik_Charging_Adjusted_Penalty>  (309) 
0.771165

>  <i_epik_Tot_Q>  (309) 
0

>  <i_epik_Tot_abs_Q>  (309) 
0

>  <s_lp_Force_Field>  (309) 
OPLS3e

>  <r_lp_Energy>  (309) 
18.4493

>  <b_lp_Chiralities_Consistent>  (309) 
1

>  <s_lp_Variant>  (309) 
103:0-2

>  <s_i_glide_gridfile>  (309) 
pfpi4k_grid

>  <i_i_glide_lignum>  (309) 
22

>  <i_i_glide_rotatable_bonds>  (309) 
0

>  <r_i_docking_score>  (309) 
-3.76647

>  <r_i_glide_ligand_efficiency>  (309) 
-0.269033

>  <r_i_glide_ligand_efficiency_sa>  (309) 
-0.648409

>  <r_i_glide_ligand_efficiency_ln>  (309) 
-1.03501

>  <r_i_glide_gscore>  (309) 
-3.76647

>  <r_i_glide_lipo>  (309) 
-0.0642972

>  <r_i_glide_hbond>  (309) 
-0.16

>  <r_i_glide_metal>  (309) 
-0

>  <r_i_glide_rewards>  (309) 
-2.1532

>  <r_i_glide_evdw>  (309) 
-14.3961

>  <r_i_glide_ecoul>  (309) 
-3.6266

>  <r_i_glide_erotb>  (309) 
0

>  <r_i_glide_esite>  (309) 
-0.125177

>  <r_i_glide_emodel>  (309) 
-23.6345

>  <r_i_glide_energy>  (309) 
-18.0227

>  <r_i_glide_einternal>  (309) 
0

>  <r_i_glide_intrahb_reward>  (309) 
-0

>  <i_i_glide_confnum>  (309) 
2

>  <i_i_glide_posenum>  (309) 
10

>  <r_i_glide_eff_state_penalty>  (309) 
0

>  <ligand_id>  (309) 
103

>  <original_smiles>  (309) 
Cc1nc2cc3ncccc3nc2[nH]1

>  <smiles>  (309) 
[H]c1nc2c([H])c3nc(C([H])([H])[H])n([H])c3nc2c([H])c1[H]

$$$$
103:1:1
     RDKit          3D

 22 24  0  0  1  0  0  0  0  0999 V2000
    3.2814   -2.3412    1.4728 C   0  0  0  0  0  0  0  0  0  0  0  0
    2.3882   -1.4600    2.2747 C   0  0  0  0  0  0  0  0  0  0  0  0
    2.4393   -1.3673    3.6029 N   0  0  0  0  0  0  0  0  0  0  0  0
    1.4370   -0.4458    3.8857 C   0  0  0  0  0  0  0  0  0  0  0  0
    0.9526    0.1072    5.0867 C   0  0  0  0  0  0  0  0  0  0  0  0
   -0.1147    1.0319    5.0663 C   0  0  0  0  0  0  0  0  0  0  0  0
   -0.5727    1.5462    6.2326 N   0  0  0  0  0  0  0  0  0  0  0  0
   -1.5730    2.4509    6.2116 C   0  0  0  0  0  0  0  0  0  0  0  0
   -2.1843    2.8692    5.0215 C   0  0  0  0  0  0  0  0  0  0  0  0
   -1.7281    2.3212    3.8057 C   0  0  0  0  0  0  0  0  0  0  0  0
   -0.6720    1.3837    3.7979 C   0  0  0  0  0  0  0  0  0  0  0  0
   -0.2477    0.8720    2.6140 N   0  0  0  0  0  0  0  0  0  0  0  0
    0.7914   -0.0072    2.6961 C   0  0  0  0  0  0  0  0  0  0  0  0
    1.4431   -0.6896    1.6840 N   0  0  0  0  0  0  0  0  0  0  0  0
    1.2250   -0.6662    0.6791 H   0  0  0  0  0  0  0  0  0  0  0  0
    3.9671   -2.8686    2.1378 H   0  0  0  0  0  0  0  0  0  0  0  0
    3.8704   -1.7507    0.7711 H   0  0  0  0  0  0  0  0  0  0  0  0
    2.7013   -3.0806    0.9206 H   0  0  0  0  0  0  0  0  0  0  0  0
    1.4046   -0.1865    6.0196 H   0  0  0  0  0  0  0  0  0  0  0  0
   -1.9006    2.8395    7.1667 H   0  0  0  0  0  0  0  0  0  0  0  0
   -3.0018    3.5793    5.0418 H   0  0  0  0  0  0  0  0  0  0  0  0
   -2.1967    2.6205    2.8776 H   0  0  0  0  0  0  0  0  0  0  0  0
  1  2  1  0
  1 16  1  0
  1 17  1  0
  1 18  1  0
  2 14  1  0
  2  3  2  0
  3  4  1  0
  4 13  2  0
  4  5  1  0
  5  6  2  0
  5 19  1  0
  6 11  1  0
  6  7  1  0
  7  8  2  0
  8  9  1  0
  8 20  1  0
  9 10  2  0
  9 21  1  0
 10 11  1  0
 10 22  1  0
 11 12  2  0
 12 13  1  0
 13 14  1  0
 14 15  1  0
M  END
>  <i_m_ct_stereo_status>  (310) 
1

>  <s_m_source_file>  (310) 
/var/tmp/pbs.5076255.sched01/tmph7d3_0rd/117btfl79hs.sdf

>  <i_m_source_file_index>  (310) 
22

>  <i_lp_mmshare_version>  (310) 
48012

>  <i_f3d_flags>  (310) 
0

>  <s_epik_input>  (310) 
W0NIM11jKG4xKVtuSF1jKGMxMiluYzNjKFtjSF0yKW5bY0hdW2NIXVtjSF0z

>  <s_epik_cmdline>  (310) 
J2VwaWtfcHl0aG9uJywgJy1waHQnLCAnMi4wJywgJy1waCcsICc3LjAnLCAnLXRuJywgJzgnLCAnLW1hJywgJzIwMCcsICctaW1hZScsICc8aW5maWxlLm1hZT4nLCAnLW9tYWUnLCAnPG91dGZpbGUubWFlPic=

>  <r_epik_Ionization_Penalty>  (310) 
0.000450037

>  <r_epik_Ionization_Penalty_Charging>  (310) 
5.42579e-05

>  <r_epik_Ionization_Penalty_Neutral>  (310) 
0.000395779

>  <r_epik_State_Penalty>  (310) 
0.77111

>  <r_epik_Charging_Adjusted_Penalty>  (310) 
0.771165

>  <i_epik_Tot_Q>  (310) 
0

>  <i_epik_Tot_abs_Q>  (310) 
0

>  <s_lp_Force_Field>  (310) 
OPLS3e

>  <r_lp_Energy>  (310) 
18.4493

>  <b_lp_Chiralities_Consistent>  (310) 
1

>  <s_lp_Variant>  (310) 
103:0-2

>  <s_i_glide_gridfile>  (310) 
pfpi4k_grid

>  <i_i_glide_lignum>  (310) 
22

>  <i_i_glide_rotatable_bonds>  (310) 
0

>  <r_i_docking_score>  (310) 
-3.75315

>  <r_i_glide_ligand_efficiency>  (310) 
-0.268082

>  <r_i_glide_ligand_efficiency_sa>  (310) 
-0.646116

>  <r_i_glide_ligand_efficiency_ln>  (310) 
-1.03135

>  <r_i_glide_gscore>  (310) 
-3.75315

>  <r_i_glide_lipo>  (310) 
-0.0237266

>  <r_i_glide_hbond>  (310) 
-0.16

>  <r_i_glide_metal>  (310) 
-0

>  <r_i_glide_rewards>  (310) 
-2.1532

>  <r_i_glide_evdw>  (310) 
-11.9312

>  <r_i_glide_ecoul>  (310) 
-4.40858

>  <r_i_glide_erotb>  (310) 
0

>  <r_i_glide_esite>  (310) 
-0.158374

>  <r_i_glide_emodel>  (310) 
-21.9306

>  <r_i_glide_energy>  (310) 
-16.3398

>  <r_i_glide_einternal>  (310) 
0

>  <r_i_glide_intrahb_reward>  (310) 
-0

>  <i_i_glide_confnum>  (310) 
1

>  <i_i_glide_posenum>  (310) 
20

>  <r_i_glide_eff_state_penalty>  (310) 
0

>  <ligand_id>  (310) 
103

>  <original_smiles>  (310) 
Cc1nc2cc3ncccc3nc2[nH]1

>  <smiles>  (310) 
[H]c1nc2c([H])c3nc(C([H])([H])[H])n([H])c3nc2c([H])c1[H]

$$$$
103:1:2
     RDKit          3D

 22 24  0  0  1  0  0  0  0  0999 V2000
    0.4119    1.3367    1.4508 C   0  0  0  0  0  0  0  0  0  0  0  0
   -0.0877    1.6516    2.8137 C   0  0  0  0  0  0  0  0  0  0  0  0
   -0.5446    0.7250    3.6569 N   0  0  0  0  0  0  0  0  0  0  0  0
   -0.8698    1.4807    4.7691 C   0  0  0  0  0  0  0  0  0  0  0  0
   -1.4002    1.1263    6.0233 C   0  0  0  0  0  0  0  0  0  0  0  0
   -1.6371    2.1167    6.9996 C   0  0  0  0  0  0  0  0  0  0  0  0
   -2.1575    1.7580    8.1983 N   0  0  0  0  0  0  0  0  0  0  0  0
   -2.3741    2.7059    9.1390 C   0  0  0  0  0  0  0  0  0  0  0  0
   -2.0871    4.0631    8.9222 C   0  0  0  0  0  0  0  0  0  0  0  0
   -1.5405    4.4335    7.6812 C   0  0  0  0  0  0  0  0  0  0  0  0
   -1.3134    3.4697    6.6704 C   0  0  0  0  0  0  0  0  0  0  0  0
   -0.8168    3.8603    5.4655 N   0  0  0  0  0  0  0  0  0  0  0  0
   -0.6072    2.8581    4.5689 C   0  0  0  0  0  0  0  0  0  0  0  0
   -0.0986    2.9167    3.2782 N   0  0  0  0  0  0  0  0  0  0  0  0
    0.1976    3.7158    2.7240 H   0  0  0  0  0  0  0  0  0  0  0  0
    0.3261    0.2658    1.2880 H   0  0  0  0  0  0  0  0  0  0  0  0
    1.4519    1.6374    1.3364 H   0  0  0  0  0  0  0  0  0  0  0  0
   -0.1850    1.8524    0.6979 H   0  0  0  0  0  0  0  0  0  0  0  0
   -1.6230    0.0938    6.2320 H   0  0  0  0  0  0  0  0  0  0  0  0
   -2.7863    2.3746   10.0834 H   0  0  0  0  0  0  0  0  0  0  0  0
   -2.2865    4.8006    9.6903 H   0  0  0  0  0  0  0  0  0  0  0  0
   -1.3180    5.4725    7.4952 H   0  0  0  0  0  0  0  0  0  0  0  0
  1  2  1  0
  1 16  1  0
  1 17  1  0
  1 18  1  0
  2 14  1  0
  2  3  2  0
  3  4  1  0
  4 13  2  0
  4  5  1  0
  5  6  2  0
  5 19  1  0
  6 11  1  0
  6  7  1  0
  7  8  2  0
  8  9  1  0
  8 20  1  0
  9 10  2  0
  9 21  1  0
 10 11  1  0
 10 22  1  0
 11 12  2  0
 12 13  1  0
 13 14  1  0
 14 15  1  0
M  END
>  <i_m_ct_stereo_status>  (311) 
1

>  <s_m_source_file>  (311) 
/var/tmp/pbs.5076255.sched01/tmph7d3_0rd/117btfl79hs.sdf

>  <i_m_source_file_index>  (311) 
22

>  <i_lp_mmshare_version>  (311) 
48012

>  <i_f3d_flags>  (311) 
0

>  <s_epik_input>  (311) 
W0NIM11jKG4xKVtuSF1jKGMxMiluYzNjKFtjSF0yKW5bY0hdW2NIXVtjSF0z

>  <s_epik_cmdline>  (311) 
J2VwaWtfcHl0aG9uJywgJy1waHQnLCAnMi4wJywgJy1waCcsICc3LjAnLCAnLXRuJywgJzgnLCAnLW1hJywgJzIwMCcsICctaW1hZScsICc8aW5maWxlLm1hZT4nLCAnLW9tYWUnLCAnPG91dGZpbGUubWFlPic=

>  <r_epik_Ionization_Penalty>  (311) 
0.000450037

>  <r_epik_Ionization_Penalty_Charging>  (311) 
5.42579e-05

>  <r_epik_Ionization_Penalty_Neutral>  (311) 
0.000395779

>  <r_epik_State_Penalty>  (311) 
0.77111

>  <r_epik_Charging_Adjusted_Penalty>  (311) 
0.771165

>  <i_epik_Tot_Q>  (311) 
0

>  <i_epik_Tot_abs_Q>  (311) 
0

>  <s_lp_Force_Field>  (311) 
OPLS3e

>  <r_lp_Energy>  (311) 
18.4493

>  <b_lp_Chiralities_Consistent>  (311) 
1

>  <s_lp_Variant>  (311) 
103:0-2

>  <s_i_glide_gridfile>  (311) 
pfpi4k_grid

>  <i_i_glide_lignum>  (311) 
22

>  <i_i_glide_rotatable_bonds>  (311) 
0

>  <r_i_docking_score>  (311) 
-3.7171

>  <r_i_glide_ligand_efficiency>  (311) 
-0.265507

>  <r_i_glide_ligand_efficiency_sa>  (311) 
-0.63991

>  <r_i_glide_ligand_efficiency_ln>  (311) 
-1.02145

>  <r_i_glide_gscore>  (311) 
-3.7171

>  <r_i_glide_lipo>  (311) 
-0.0275798

>  <r_i_glide_hbond>  (311) 
-0.114744

>  <r_i_glide_metal>  (311) 
-0

>  <r_i_glide_rewards>  (311) 
-2.1532

>  <r_i_glide_evdw>  (311) 
-14.8142

>  <r_i_glide_ecoul>  (311) 
-3.48148

>  <r_i_glide_erotb>  (311) 
0

>  <r_i_glide_esite>  (311) 
-0.158648

>  <r_i_glide_emodel>  (311) 
-23.8051

>  <r_i_glide_energy>  (311) 
-18.2957

>  <r_i_glide_einternal>  (311) 
0

>  <r_i_glide_intrahb_reward>  (311) 
-0

>  <i_i_glide_confnum>  (311) 
1

>  <i_i_glide_posenum>  (311) 
37

>  <r_i_glide_eff_state_penalty>  (311) 
0

>  <ligand_id>  (311) 
103

>  <original_smiles>  (311) 
Cc1nc2cc3ncccc3nc2[nH]1

>  <smiles>  (311) 
[H]c1nc2c([H])c3nc(C([H])([H])[H])n([H])c3nc2c([H])c1[H]

$$$$
104:0:0
     RDKit          3D

 67 72  0  0  1  0  0  0  0  0999 V2000
    6.0562   -0.1654    3.5589 C   0  0  0  0  0  0  0  0  0  0  0  0
    5.8020    0.2335    5.0255 C   0  0  0  0  0  0  0  0  0  0  0  0
    4.4465   -0.1235    5.4570 N   0  0  0  0  0  0  0  0  0  0  0  0
    3.3281    0.4597    4.9876 C   0  0  0  0  0  0  0  0  0  0  0  0
    3.2747    1.3725    4.1502 O   0  0  0  0  0  0  0  0  0  0  0  0
    2.0926   -0.1437    5.6478 C   0  0  2  0  0  0  0  0  0  0  0  0
    2.6639   -1.2398    6.5312 C   0  0  2  0  0  0  0  0  0  0  0  0
    4.1638   -1.0695    6.3687 C   0  0  0  0  0  0  0  0  0  0  0  0
    4.9776   -1.7317    7.0281 O   0  0  0  0  0  0  0  0  0  0  0  0
    1.9739   -2.5579    6.0770 C   0  0  2  0  0  0  0  0  0  0  0  0
    1.7833   -3.4852    7.3064 C   0  0  0  0  0  0  0  0  0  0  0  0
    2.5720   -3.2766    4.8492 N   0  0  2  0  0  0  0  0  0  0  0  0
    3.7413   -4.2122    5.1320 C   0  0  0  0  0  0  0  0  0  0  0  0
    5.0884   -3.8069    4.5132 C   0  0  0  0  0  0  0  0  0  0  0  0
    3.4273   -5.6784    4.7420 C   0  0  0  0  0  0  0  0  0  0  0  0
    2.6075   -2.4916    3.5450 C   0  0  1  0  0  0  0  0  0  0  0  0
    2.5720   -3.3970    2.3392 C   0  0  0  0  0  0  0  0  0  0  0  0
    3.0363   -3.2709    1.0566 C   0  0  0  0  0  0  0  0  0  0  0  0
    2.7842   -4.5140    0.4078 C   0  0  0  0  0  0  0  0  0  0  0  0
    2.1588   -5.2828    1.3350 C   0  0  0  0  0  0  0  0  0  0  0  0
    1.9460   -4.5936    2.4855 O   0  0  0  0  0  0  0  0  0  0  0  0
    1.3980   -1.5407    3.4759 C   0  0  2  0  0  0  0  0  0  0  0  0
    1.3346   -0.4930    2.4448 N   0  0  0  0  0  0  0  0  0  0  0  0
    0.3300    0.3553    2.9476 C   0  0  0  0  0  0  0  0  0  0  0  0
   -0.3418    1.3390    2.2322 C   0  0  0  0  0  0  0  0  0  0  0  0
   -1.3591    2.0447    2.8902 C   0  0  0  0  0  0  0  0  0  0  0  0
   -1.6997    1.7620    4.2296 C   0  0  0  0  0  0  0  0  0  0  0  0
   -0.9986    0.7817    4.9656 C   0  0  0  0  0  0  0  0  0  0  0  0
   -1.2763    0.4393    6.2716 O   0  0  0  0  0  0  0  0  0  0  0  0
   -1.9807    1.3772    7.0687 C   0  0  0  0  0  0  0  0  0  0  0  0
    0.0288    0.1007    4.2904 C   0  0  0  0  0  0  0  0  0  0  0  0
    1.0171   -0.8882    4.8106 C   0  0  2  0  0  0  0  0  0  0  0  0
    0.6665   -1.9531    5.7560 N   0  0  0  0  0  0  0  0  0  0  0  0
   -0.4151   -2.8706    5.3966 C   0  0  0  0  0  0  0  0  0  0  0  0
    7.0712    0.0968    3.2863 H   0  0  0  0  0  0  0  0  0  0  0  0
    5.3746    0.3384    2.8751 H   0  0  0  0  0  0  0  0  0  0  0  0
    5.9399   -1.2307    3.3704 H   0  0  0  0  0  0  0  0  0  0  0  0
    6.5678   -0.2282    5.6543 H   0  0  0  0  0  0  0  0  0  0  0  0
    5.9430    1.3086    5.1485 H   0  0  0  0  0  0  0  0  0  0  0  0
    1.6238    0.6215    6.2741 H   0  0  0  0  0  0  0  0  0  0  0  0
    2.4108   -1.0195    7.5743 H   0  0  0  0  0  0  0  0  0  0  0  0
    1.1417   -3.0056    8.0559 H   0  0  0  0  0  0  0  0  0  0  0  0
    2.7237   -3.6826    7.8251 H   0  0  0  0  0  0  0  0  0  0  0  0
    1.3333   -4.4420    7.0407 H   0  0  0  0  0  0  0  0  0  0  0  0
    3.9429   -4.2359    6.2025 H   0  0  0  0  0  0  0  0  0  0  0  0
    5.8739   -4.4441    4.9302 H   0  0  0  0  0  0  0  0  0  0  0  0
    5.3847   -2.7918    4.7582 H   0  0  0  0  0  0  0  0  0  0  0  0
    5.1103   -3.9066    3.4196 H   0  0  0  0  0  0  0  0  0  0  0  0
    4.1843   -6.3379    5.2079 H   0  0  0  0  0  0  0  0  0  0  0  0
    3.4369   -5.8329    3.6657 H   0  0  0  0  0  0  0  0  0  0  0  0
    2.4599   -5.9972    5.1440 H   0  0  0  0  0  0  0  0  0  0  0  0
    3.5184   -1.8961    3.5142 H   0  0  0  0  0  0  0  0  0  0  0  0
    3.5418   -2.4056    0.6458 H   0  0  0  0  0  0  0  0  0  0  0  0
    3.0430   -4.8158   -0.5982 H   0  0  0  0  0  0  0  0  0  0  0  0
    1.8166   -6.3101    1.3200 H   0  0  0  0  0  0  0  0  0  0  0  0
    0.5674   -2.1930    3.2057 H   0  0  0  0  0  0  0  0  0  0  0  0
    1.3061   -0.6782    1.4482 H   0  0  0  0  0  0  0  0  0  0  0  0
   -0.0961    1.5362    1.1964 H   0  0  0  0  0  0  0  0  0  0  0  0
   -1.8946    2.8062    2.3567 H   0  0  0  0  0  0  0  0  0  0  0  0
   -2.5170    2.3094    4.6580 H   0  0  0  0  0  0  0  0  0  0  0  0
   -2.0755    0.9884    8.0840 H   0  0  0  0  0  0  0  0  0  0  0  0
   -2.9853    1.5558    6.6984 H   0  0  0  0  0  0  0  0  0  0  0  0
   -1.4464    2.3247    7.1181 H   0  0  0  0  0  0  0  0  0  0  0  0
   -1.2851   -2.3014    5.0669 H   0  0  0  0  0  0  0  0  0  0  0  0
   -0.7228   -3.4598    6.2643 H   0  0  0  0  0  0  0  0  0  0  0  0
   -0.1304   -3.5633    4.6049 H   0  0  0  0  0  0  0  0  0  0  0  0
    1.8361   -3.9370    4.6649 H   0  0  0  0  0  0  0  0  0  0  0  0
  1  2  1  0
  1 35  1  0
  1 36  1  0
  1 37  1  0
  2 38  1  0
  2 39  1  0
  2  3  1  0
  3  8  1  0
  3  4  1  0
  4  5  2  0
  4  6  1  0
  6 32  1  0
  6 40  1  1
  6  7  1  0
  7 10  1  0
  7 41  1  1
  7  8  1  0
  8  9  2  0
 10 33  1  0
 10 11  1  1
 10 12  1  0
 11 42  1  0
 11 43  1  0
 11 44  1  0
 12 13  1  0
 12 16  1  0
 12 67  1  6
 13 14  1  0
 13 15  1  0
 13 45  1  0
 14 46  1  0
 14 47  1  0
 14 48  1  0
 15 49  1  0
 15 50  1  0
 15 51  1  0
 16 17  1  0
 16 22  1  0
 16 52  1  1
 17 21  1  0
 17 18  2  0
 18 19  1  0
 18 53  1  0
 19 20  2  0
 19 54  1  0
 20 21  1  0
 20 55  1  0
 22 32  1  0
 22 23  1  0
 22 56  1  6
 23 24  1  0
 23 57  1  0
 24 31  2  0
 24 25  1  0
 25 26  2  0
 25 58  1  0
 26 27  1  0
 26 59  1  0
 27 28  2  0
 27 60  1  0
 28 29  1  0
 28 31  1  0
 29 30  1  0
 30 61  1  0
 30 62  1  0
 30 63  1  0
 32 31  1  6
 32 33  1  0
 33 34  1  0
 34 64  1  0
 34 65  1  0
 34 66  1  0
M  CHG  1  12   1
M  END
>  <i_m_ct_stereo_status>  (312) 
1

>  <s_m_source_file>  (312) 
/var/tmp/pbs.5076255.sched01/tmph7d3_0rd/117btfl79hs.sdf

>  <i_m_source_file_index>  (312) 
23

>  <i_lp_mmshare_version>  (312) 
48012

>  <i_f3d_flags>  (312) 
0

>  <s_epik_input>  (312) 
W0NIM11bQ0gyXW4oYzFbT0hdKWMoW09IXSljKGMxW0NAXTIzNClbQ0BAXShbQ0gzXSkoTjRbQ0gzXSlOKFtDSF0oW0NIM10pW0NIM10pW0NAQEhdKGM1W2NIXVtjSF1bY0hdbzUpW0NAQEhdMltOSF1jNmMzYyhPW0NIM10pW2NIXVtjSF1bY0hdNg==

>  <s_epik_cmdline>  (312) 
J2VwaWtfcHl0aG9uJywgJy1waHQnLCAnMi4wJywgJy1waCcsICc3LjAnLCAnLXRuJywgJzgnLCAnLW1hJywgJzIwMCcsICctaW1hZScsICc8aW5maWxlLm1hZT4nLCAnLW9tYWUnLCAnPG91dGZpbGUubWFlPic=

>  <r_lp_tautomer_probability>  (312) 
1

>  <r_epik_Ionization_Penalty>  (312) 
0.000190643

>  <r_epik_Ionization_Penalty_Charging>  (312) 
0.000189902

>  <r_epik_Ionization_Penalty_Neutral>  (312) 
7.40681e-07

>  <r_epik_State_Penalty>  (312) 
-0

>  <r_epik_Charging_Adjusted_Penalty>  (312) 
0.000189902

>  <i_epik_Tot_Q>  (312) 
1

>  <i_epik_Tot_abs_Q>  (312) 
1

>  <s_lp_Force_Field>  (312) 
OPLS3e

>  <r_lp_Energy>  (312) 
35.6742

>  <b_lp_Chiralities_Consistent>  (312) 
1

>  <s_lp_Variant>  (312) 
104:0-1

>  <s_i_glide_gridfile>  (312) 
pfpi4k_grid

>  <i_i_glide_lignum>  (312) 
23

>  <i_i_glide_rotatable_bonds>  (312) 
4

>  <r_i_docking_score>  (312) 
-2.16115

>  <r_i_glide_ligand_efficiency>  (312) 
-0.0635632

>  <r_i_glide_ligand_efficiency_sa>  (312) 
-0.20592

>  <r_i_glide_ligand_efficiency_ln>  (312) 
-0.477458

>  <r_i_glide_gscore>  (312) 
-2.16115

>  <r_i_glide_lipo>  (312) 
-0.238995

>  <r_i_glide_hbond>  (312) 
-0.105779

>  <r_i_glide_metal>  (312) 
-0

>  <r_i_glide_rewards>  (312) 
-0.251692

>  <r_i_glide_evdw>  (312) 
-24.0231

>  <r_i_glide_ecoul>  (312) 
-2.78394

>  <r_i_glide_erotb>  (312) 
0.0930473

>  <r_i_glide_esite>  (312) 
-0.0389829

>  <r_i_glide_emodel>  (312) 
-27.1869

>  <r_i_glide_energy>  (312) 
-26.807

>  <r_i_glide_einternal>  (312) 
2.83811

>  <r_i_glide_intrahb_reward>  (312) 
-0

>  <i_i_glide_confnum>  (312) 
5

>  <i_i_glide_posenum>  (312) 
7

>  <r_i_glide_eff_state_penalty>  (312) 
0

>  <ligand_id>  (312) 
104

>  <original_smiles>  (312) 
CCn1c(O)c2c(c1O)C1(C)N(C(C)C)C(c3ccco3)C3Nc4cccc(OC)c4C23N1C

>  <smiles>  (312) 
[H]c1oc(C2([H])C3([H])N([H])c4c([H])c([H])c([H])c(OC([H])([H])[H])c4C34N(C([H])([H])[H])C(C([H])([H])[H])(C3([H])C(=O)N(C([H])([H])C([H])([H])[H])C(=O)C34[H])[N+]2([H])C([H])(C([H])([H])[H])C([H])([H])[H])c([H])c1[H]

$$$$
104:0:1
     RDKit          3D

 67 72  0  0  1  0  0  0  0  0999 V2000
    5.4234    5.5823    7.0117 C   0  0  0  0  0  0  0  0  0  0  0  0
    5.2713    4.3863    6.0618 C   0  0  0  0  0  0  0  0  0  0  0  0
    4.1710    3.5014    6.4634 N   0  0  0  0  0  0  0  0  0  0  0  0
    2.8983    3.6451    6.0683 C   0  0  0  0  0  0  0  0  0  0  0  0
    2.4711    4.5335    5.3334 O   0  0  0  0  0  0  0  0  0  0  0  0
    2.0139    2.5591    6.6888 C   0  0  2  0  0  0  0  0  0  0  0  0
    2.9992    1.6952    7.4361 C   0  0  2  0  0  0  0  0  0  0  0  0
    4.3156    2.4371    7.2656 C   0  0  0  0  0  0  0  0  0  0  0  0
    5.3529    2.0762    7.8199 O   0  0  0  0  0  0  0  0  0  0  0  0
    2.8406    0.2597    6.8613 C   0  0  2  0  0  0  0  0  0  0  0  0
    3.0756   -0.7784    7.9915 C   0  0  0  0  0  0  0  0  0  0  0  0
    3.6182   -0.0479    5.5602 N   0  0  2  0  0  0  0  0  0  0  0  0
    5.0647   -0.4750    5.7381 C   0  0  0  0  0  0  0  0  0  0  0  0
    6.2120    0.4551    5.1928 C   0  0  0  0  0  0  0  0  0  0  0  0
    5.2037   -1.9591    5.3407 C   0  0  0  0  0  0  0  0  0  0  0  0
    3.2811    0.7682    4.3168 C   0  0  1  0  0  0  0  0  0  0  0  0
    3.5185    0.0225    2.9999 C   0  0  0  0  0  0  0  0  0  0  0  0
    2.7117   -0.4232    1.9739 C   0  0  0  0  0  0  0  0  0  0  0  0
    3.5716   -1.0415    1.0088 C   0  0  0  0  0  0  0  0  0  0  0  0
    4.8284   -0.9196    1.5283 C   0  0  0  0  0  0  0  0  0  0  0  0
    4.8071   -0.2549    2.7099 O   0  0  0  0  0  0  0  0  0  0  0  0
    1.8050    1.2132    4.3977 C   0  0  2  0  0  0  0  0  0  0  0  0
    1.2986    2.2368    3.4832 N   0  0  0  0  0  0  0  0  0  0  0  0
    0.0749    2.5668    4.0838 C   0  0  0  0  0  0  0  0  0  0  0  0
   -0.9654    3.2757    3.4676 C   0  0  0  0  0  0  0  0  0  0  0  0
   -2.1575    3.4594    4.1902 C   0  0  0  0  0  0  0  0  0  0  0  0
   -2.3028    2.9581    5.4988 C   0  0  0  0  0  0  0  0  0  0  0  0
   -1.2373    2.2689    6.1350 C   0  0  0  0  0  0  0  0  0  0  0  0
   -1.3030    1.7304    7.3926 O   0  0  0  0  0  0  0  0  0  0  0  0
   -2.2563    2.2868    8.2870 C   0  0  0  0  0  0  0  0  0  0  0  0
   -0.0489    2.1044    5.3901 C   0  0  0  0  0  0  0  0  0  0  0  0
    1.2682    1.5356    5.7998 C   0  0  2  0  0  0  0  0  0  0  0  0
    1.3834    0.3317    6.6261 N   0  0  0  0  0  0  0  0  0  0  0  0
    0.7264   -0.8958    6.1731 C   0  0  0  0  0  0  0  0  0  0  0  0
    6.2410    6.2294    6.6873 H   0  0  0  0  0  0  0  0  0  0  0  0
    5.6347    5.2543    8.0306 H   0  0  0  0  0  0  0  0  0  0  0  0
    4.5131    6.1829    7.0406 H   0  0  0  0  0  0  0  0  0  0  0  0
    5.0977    4.7487    5.0477 H   0  0  0  0  0  0  0  0  0  0  0  0
    6.2126    3.8346    6.0286 H   0  0  0  0  0  0  0  0  0  0  0  0
    1.3144    3.0280    7.3867 H   0  0  0  0  0  0  0  0  0  0  0  0
    2.7389    1.6968    8.4898 H   0  0  0  0  0  0  0  0  0  0  0  0
    2.3408   -0.6470    8.7899 H   0  0  0  0  0  0  0  0  0  0  0  0
    4.0415   -0.6483    8.4776 H   0  0  0  0  0  0  0  0  0  0  0  0
    3.0107   -1.8106    7.6423 H   0  0  0  0  0  0  0  0  0  0  0  0
    5.2854   -0.4787    6.8056 H   0  0  0  0  0  0  0  0  0  0  0  0
    7.1490    0.1669    5.6889 H   0  0  0  0  0  0  0  0  0  0  0  0
    6.0283    1.5104    5.4249 H   0  0  0  0  0  0  0  0  0  0  0  0
    6.4809    0.4181    4.1386 H   0  0  0  0  0  0  0  0  0  0  0  0
    6.1967   -2.3158    5.5931 H   0  0  0  0  0  0  0  0  0  0  0  0
    5.0435   -2.1338    4.2740 H   0  0  0  0  0  0  0  0  0  0  0  0
    4.4890   -2.6014    5.8661 H   0  0  0  0  0  0  0  0  0  0  0  0
    3.8998    1.6581    4.3255 H   0  0  0  0  0  0  0  0  0  0  0  0
    1.6377   -0.3100    1.8927 H   0  0  0  0  0  0  0  0  0  0  0  0
    3.3242   -1.5112    0.0589 H   0  0  0  0  0  0  0  0  0  0  0  0
    5.8078   -1.2247    1.2061 H   0  0  0  0  0  0  0  0  0  0  0  0
    1.2462    0.3363    4.0999 H   0  0  0  0  0  0  0  0  0  0  0  0
    1.2953    2.1552    2.4699 H   0  0  0  0  0  0  0  0  0  0  0  0
   -0.8645    3.6880    2.4737 H   0  0  0  0  0  0  0  0  0  0  0  0
   -2.9487    4.0007    3.7066 H   0  0  0  0  0  0  0  0  0  0  0  0
   -3.2456    3.1118    5.9850 H   0  0  0  0  0  0  0  0  0  0  0  0
   -2.1487    1.7876    9.2464 H   0  0  0  0  0  0  0  0  0  0  0  0
   -3.2829    2.1438    7.9501 H   0  0  0  0  0  0  0  0  0  0  0  0
   -2.0622    3.3497    8.4297 H   0  0  0  0  0  0  0  0  0  0  0  0
   -0.3090   -0.6795    5.9031 H   0  0  0  0  0  0  0  0  0  0  0  0
    0.7064   -1.6282    6.9825 H   0  0  0  0  0  0  0  0  0  0  0  0
    1.2219   -1.3483    5.3134 H   0  0  0  0  0  0  0  0  0  0  0  0
    3.1754   -0.9321    5.3313 H   0  0  0  0  0  0  0  0  0  0  0  0
  1  2  1  0
  1 35  1  0
  1 36  1  0
  1 37  1  0
  2 38  1  0
  2 39  1  0
  2  3  1  0
  3  8  1  0
  3  4  1  0
  4  5  2  0
  4  6  1  0
  6 32  1  0
  6 40  1  1
  6  7  1  0
  7 10  1  0
  7 41  1  1
  7  8  1  0
  8  9  2  0
 10 33  1  0
 10 11  1  1
 10 12  1  0
 11 42  1  0
 11 43  1  0
 11 44  1  0
 12 13  1  0
 12 16  1  0
 12 67  1  6
 13 14  1  0
 13 15  1  0
 13 45  1  0
 14 46  1  0
 14 47  1  0
 14 48  1  0
 15 49  1  0
 15 50  1  0
 15 51  1  0
 16 17  1  0
 16 22  1  0
 16 52  1  6
 17 21  1  0
 17 18  2  0
 18 19  1  0
 18 53  1  0
 19 20  2  0
 19 54  1  0
 20 21  1  0
 20 55  1  0
 22 32  1  0
 22 23  1  0
 22 56  1  6
 23 24  1  0
 23 57  1  0
 24 31  2  0
 24 25  1  0
 25 26  2  0
 25 58  1  0
 26 27  1  0
 26 59  1  0
 27 28  2  0
 27 60  1  0
 28 29  1  0
 28 31  1  0
 29 30  1  0
 30 61  1  0
 30 62  1  0
 30 63  1  0
 32 31  1  6
 32 33  1  0
 33 34  1  0
 34 64  1  0
 34 65  1  0
 34 66  1  0
M  CHG  1  12   1
M  END
>  <i_m_ct_stereo_status>  (313) 
1

>  <s_m_source_file>  (313) 
/var/tmp/pbs.5076255.sched01/tmph7d3_0rd/117btfl79hs.sdf

>  <i_m_source_file_index>  (313) 
23

>  <i_lp_mmshare_version>  (313) 
48012

>  <i_f3d_flags>  (313) 
0

>  <s_epik_input>  (313) 
W0NIM11bQ0gyXW4oYzFbT0hdKWMoW09IXSljKGMxW0NAXTIzNClbQ0BAXShbQ0gzXSkoTjRbQ0gzXSlOKFtDSF0oW0NIM10pW0NIM10pW0NAQEhdKGM1W2NIXVtjSF1bY0hdbzUpW0NAQEhdMltOSF1jNmMzYyhPW0NIM10pW2NIXVtjSF1bY0hdNg==

>  <s_epik_cmdline>  (313) 
J2VwaWtfcHl0aG9uJywgJy1waHQnLCAnMi4wJywgJy1waCcsICc3LjAnLCAnLXRuJywgJzgnLCAnLW1hJywgJzIwMCcsICctaW1hZScsICc8aW5maWxlLm1hZT4nLCAnLW9tYWUnLCAnPG91dGZpbGUubWFlPic=

>  <r_lp_tautomer_probability>  (313) 
1

>  <r_epik_Ionization_Penalty>  (313) 
0.000190643

>  <r_epik_Ionization_Penalty_Charging>  (313) 
0.000189902

>  <r_epik_Ionization_Penalty_Neutral>  (313) 
7.40681e-07

>  <r_epik_State_Penalty>  (313) 
-0

>  <r_epik_Charging_Adjusted_Penalty>  (313) 
0.000189902

>  <i_epik_Tot_Q>  (313) 
1

>  <i_epik_Tot_abs_Q>  (313) 
1

>  <s_lp_Force_Field>  (313) 
OPLS3e

>  <r_lp_Energy>  (313) 
35.6742

>  <b_lp_Chiralities_Consistent>  (313) 
1

>  <s_lp_Variant>  (313) 
104:0-1

>  <s_i_glide_gridfile>  (313) 
pfpi4k_grid

>  <i_i_glide_lignum>  (313) 
23

>  <i_i_glide_rotatable_bonds>  (313) 
4

>  <r_i_docking_score>  (313) 
-1.95082

>  <r_i_glide_ligand_efficiency>  (313) 
-0.0573769

>  <r_i_glide_ligand_efficiency_sa>  (313) 
-0.185879

>  <r_i_glide_ligand_efficiency_ln>  (313) 
-0.43099

>  <r_i_glide_gscore>  (313) 
-1.95082

>  <r_i_glide_lipo>  (313) 
-0.326665

>  <r_i_glide_hbond>  (313) 
0

>  <r_i_glide_metal>  (313) 
-0

>  <r_i_glide_rewards>  (313) 
-0.235697

>  <r_i_glide_evdw>  (313) 
-22.6664

>  <r_i_glide_ecoul>  (313) 
-2.10223

>  <r_i_glide_erotb>  (313) 
0.0930473

>  <r_i_glide_esite>  (313) 
-0.0328454

>  <r_i_glide_emodel>  (313) 
-26.1632

>  <r_i_glide_energy>  (313) 
-24.7687

>  <r_i_glide_einternal>  (313) 
1.45718

>  <r_i_glide_intrahb_reward>  (313) 
-0

>  <i_i_glide_confnum>  (313) 
5

>  <i_i_glide_posenum>  (313) 
18

>  <r_i_glide_eff_state_penalty>  (313) 
0

>  <ligand_id>  (313) 
104

>  <original_smiles>  (313) 
CCn1c(O)c2c(c1O)C1(C)N(C(C)C)C(c3ccco3)C3Nc4cccc(OC)c4C23N1C

>  <smiles>  (313) 
[H]c1oc(C2([H])C3([H])N([H])c4c([H])c([H])c([H])c(OC([H])([H])[H])c4C34N(C([H])([H])[H])C(C([H])([H])[H])(C3([H])C(=O)N(C([H])([H])C([H])([H])[H])C(=O)C34[H])[N+]2([H])C([H])(C([H])([H])[H])C([H])([H])[H])c([H])c1[H]

$$$$
104:0:2
     RDKit          3D

 67 72  0  0  1  0  0  0  0  0999 V2000
    4.8540    5.8704    6.2986 C   0  0  0  0  0  0  0  0  0  0  0  0
    4.7725    4.5349    5.5554 C   0  0  0  0  0  0  0  0  0  0  0  0
    3.6870    3.6872    6.0570 N   0  0  0  0  0  0  0  0  0  0  0  0
    2.4143    3.7634    5.6410 C   0  0  0  0  0  0  0  0  0  0  0  0
    1.9727    4.5594    4.8134 O   0  0  0  0  0  0  0  0  0  0  0  0
    1.5480    2.7354    6.3731 C   0  0  2  0  0  0  0  0  0  0  0  0
    2.5398    1.9822    7.2227 C   0  0  2  0  0  0  0  0  0  0  0  0
    3.8448    2.7254    6.9791 C   0  0  0  0  0  0  0  0  0  0  0  0
    4.8833    2.4460    7.5775 O   0  0  0  0  0  0  0  0  0  0  0  0
    2.4081    0.4884    6.8075 C   0  0  2  0  0  0  0  0  0  0  0  0
    2.6641   -0.4208    8.0383 C   0  0  0  0  0  0  0  0  0  0  0  0
    3.1827    0.0482    5.5481 N   0  0  2  0  0  0  0  0  0  0  0  0
    4.6331   -0.3476    5.7564 C   0  0  0  0  0  0  0  0  0  0  0  0
    5.6799    0.5402    5.0546 C   0  0  0  0  0  0  0  0  0  0  0  0
    4.8725   -1.8296    5.3929 C   0  0  0  0  0  0  0  0  0  0  0  0
    2.8455    0.7517    4.2442 C   0  0  1  0  0  0  0  0  0  0  0  0
    3.1265   -0.1168    3.0434 C   0  0  0  0  0  0  0  0  0  0  0  0
    3.5892    0.1377    1.7728 C   0  0  0  0  0  0  0  0  0  0  0  0
    3.7011   -1.1158    1.1147 C   0  0  0  0  0  0  0  0  0  0  0  0
    3.2697   -2.0492    2.0109 C   0  0  0  0  0  0  0  0  0  0  0  0
    2.8232   -1.4457    3.1544 O   0  0  0  0  0  0  0  0  0  0  0  0
    1.3622    1.1314    4.2451 C   0  0  2  0  0  0  0  0  0  0  0  0
    0.8425    2.0486    3.2240 N   0  0  0  0  0  0  0  0  0  0  0  0
   -0.3863    2.4359    3.7753 C   0  0  0  0  0  0  0  0  0  0  0  0
   -1.4485    3.0617    3.1067 C   0  0  0  0  0  0  0  0  0  0  0  0
   -2.6302    3.3228    3.8019 C   0  0  0  0  0  0  0  0  0  0  0  0
   -2.7516    2.9737    5.1660 C   0  0  0  0  0  0  0  0  0  0  0  0
   -1.6888    2.3549    5.8562 C   0  0  0  0  0  0  0  0  0  0  0  0
   -1.7392    1.9540    7.1787 O   0  0  0  0  0  0  0  0  0  0  0  0
   -2.7936    2.4661    7.9777 C   0  0  0  0  0  0  0  0  0  0  0  0
   -0.5062    2.1240    5.1342 C   0  0  0  0  0  0  0  0  0  0  0  0
    0.8171    1.6115    5.5972 C   0  0  2  0  0  0  0  0  0  0  0  0
    0.9517    0.5105    6.5562 N   0  0  0  0  0  0  0  0  0  0  0  0
    0.3119   -0.7642    6.2409 C   0  0  0  0  0  0  0  0  0  0  0  0
    5.6639    6.4811    5.8975 H   0  0  0  0  0  0  0  0  0  0  0  0
    5.0404    5.7167    7.3615 H   0  0  0  0  0  0  0  0  0  0  0  0
    3.9277    6.4363    6.1975 H   0  0  0  0  0  0  0  0  0  0  0  0
    4.6154    4.7182    4.4920 H   0  0  0  0  0  0  0  0  0  0  0  0
    5.7298    4.0225    5.6530 H   0  0  0  0  0  0  0  0  0  0  0  0
    0.8459    3.2716    7.0156 H   0  0  0  0  0  0  0  0  0  0  0  0
    2.2775    2.1067    8.2705 H   0  0  0  0  0  0  0  0  0  0  0  0
    1.9297   -0.2263    8.8237 H   0  0  0  0  0  0  0  0  0  0  0  0
    3.6303   -0.2278    8.5030 H   0  0  0  0  0  0  0  0  0  0  0  0
    2.6157   -1.4817    7.7898 H   0  0  0  0  0  0  0  0  0  0  0  0
    4.8875   -0.2827    6.8083 H   0  0  0  0  0  0  0  0  0  0  0  0
    6.6711    0.2911    5.4355 H   0  0  0  0  0  0  0  0  0  0  0  0
    5.5493    1.6017    5.2496 H   0  0  0  0  0  0  0  0  0  0  0  0
    5.6968    0.4153    3.9701 H   0  0  0  0  0  0  0  0  0  0  0  0
    5.8663   -2.1464    5.7080 H   0  0  0  0  0  0  0  0  0  0  0  0
    4.8618   -2.0098    4.3158 H   0  0  0  0  0  0  0  0  0  0  0  0
    4.1407   -2.4912    5.8654 H   0  0  0  0  0  0  0  0  0  0  0  0
    3.4429    1.6579    4.1643 H   0  0  0  0  0  0  0  0  0  0  0  0
    3.8236    1.1087    1.3711 H   0  0  0  0  0  0  0  0  0  0  0  0
    4.0531   -1.3289    0.1134 H   0  0  0  0  0  0  0  0  0  0  0  0
    3.2270   -3.1272    1.9903 H   0  0  0  0  0  0  0  0  0  0  0  0
    0.8329    0.2150    3.9973 H   0  0  0  0  0  0  0  0  0  0  0  0
    0.8554    1.8460    2.2269 H   0  0  0  0  0  0  0  0  0  0  0  0
   -1.3766    3.3420    2.0773 H   0  0  0  0  0  0  0  0  0  0  0  0
   -3.4495    3.7798    3.2788 H   0  0  0  0  0  0  0  0  0  0  0  0
   -3.6972    3.1733    5.6370 H   0  0  0  0  0  0  0  0  0  0  0  0
   -2.6659    2.0875    8.9897 H   0  0  0  0  0  0  0  0  0  0  0  0
   -3.7742    2.1471    7.6228 H   0  0  0  0  0  0  0  0  0  0  0  0
   -2.7569    3.5549    8.0175 H   0  0  0  0  0  0  0  0  0  0  0  0
   -0.7267   -0.5960    5.9549 H   0  0  0  0  0  0  0  0  0  0  0  0
    0.3066   -1.4035    7.1248 H   0  0  0  0  0  0  0  0  0  0  0  0
    0.8116   -1.3013    5.4364 H   0  0  0  0  0  0  0  0  0  0  0  0
    2.7597   -0.8540    5.3985 H   0  0  0  0  0  0  0  0  0  0  0  0
  1  2  1  0
  1 35  1  0
  1 36  1  0
  1 37  1  0
  2 38  1  0
  2 39  1  0
  2  3  1  0
  3  8  1  0
  3  4  1  0
  4  5  2  0
  4  6  1  0
  6 32  1  0
  6 40  1  1
  6  7  1  0
  7 10  1  0
  7 41  1  1
  7  8  1  0
  8  9  2  0
 10 33  1  0
 10 11  1  1
 10 12  1  0
 11 42  1  0
 11 43  1  0
 11 44  1  0
 12 13  1  0
 12 16  1  0
 12 67  1  6
 13 14  1  0
 13 15  1  0
 13 45  1  0
 14 46  1  0
 14 47  1  0
 14 48  1  0
 15 49  1  0
 15 50  1  0
 15 51  1  0
 16 17  1  0
 16 22  1  0
 16 52  1  6
 17 21  1  0
 17 18  2  0
 18 19  1  0
 18 53  1  0
 19 20  2  0
 19 54  1  0
 20 21  1  0
 20 55  1  0
 22 32  1  0
 22 23  1  0
 22 56  1  6
 23 24  1  0
 23 57  1  0
 24 31  2  0
 24 25  1  0
 25 26  2  0
 25 58  1  0
 26 27  1  0
 26 59  1  0
 27 28  2  0
 27 60  1  0
 28 29  1  0
 28 31  1  0
 29 30  1  0
 30 61  1  0
 30 62  1  0
 30 63  1  0
 32 31  1  6
 32 33  1  0
 33 34  1  0
 34 64  1  0
 34 65  1  0
 34 66  1  0
M  CHG  1  12   1
M  END
>  <i_m_ct_stereo_status>  (314) 
1

>  <s_m_source_file>  (314) 
/var/tmp/pbs.5076255.sched01/tmph7d3_0rd/117btfl79hs.sdf

>  <i_m_source_file_index>  (314) 
23

>  <i_lp_mmshare_version>  (314) 
48012

>  <i_f3d_flags>  (314) 
0

>  <s_epik_input>  (314) 
W0NIM11bQ0gyXW4oYzFbT0hdKWMoW09IXSljKGMxW0NAXTIzNClbQ0BAXShbQ0gzXSkoTjRbQ0gzXSlOKFtDSF0oW0NIM10pW0NIM10pW0NAQEhdKGM1W2NIXVtjSF1bY0hdbzUpW0NAQEhdMltOSF1jNmMzYyhPW0NIM10pW2NIXVtjSF1bY0hdNg==

>  <s_epik_cmdline>  (314) 
J2VwaWtfcHl0aG9uJywgJy1waHQnLCAnMi4wJywgJy1waCcsICc3LjAnLCAnLXRuJywgJzgnLCAnLW1hJywgJzIwMCcsICctaW1hZScsICc8aW5maWxlLm1hZT4nLCAnLW9tYWUnLCAnPG91dGZpbGUubWFlPic=

>  <r_lp_tautomer_probability>  (314) 
1

>  <r_epik_Ionization_Penalty>  (314) 
0.000190643

>  <r_epik_Ionization_Penalty_Charging>  (314) 
0.000189902

>  <r_epik_Ionization_Penalty_Neutral>  (314) 
7.40681e-07

>  <r_epik_State_Penalty>  (314) 
-0

>  <r_epik_Charging_Adjusted_Penalty>  (314) 
0.000189902

>  <i_epik_Tot_Q>  (314) 
1

>  <i_epik_Tot_abs_Q>  (314) 
1

>  <s_lp_Force_Field>  (314) 
OPLS3e

>  <r_lp_Energy>  (314) 
35.6742

>  <b_lp_Chiralities_Consistent>  (314) 
1

>  <s_lp_Variant>  (314) 
104:0-1

>  <s_i_glide_gridfile>  (314) 
pfpi4k_grid

>  <i_i_glide_lignum>  (314) 
23

>  <i_i_glide_rotatable_bonds>  (314) 
4

>  <r_i_docking_score>  (314) 
-1.74222

>  <r_i_glide_ligand_efficiency>  (314) 
-0.0512418

>  <r_i_glide_ligand_efficiency_sa>  (314) 
-0.166004

>  <r_i_glide_ligand_efficiency_ln>  (314) 
-0.384906

>  <r_i_glide_gscore>  (314) 
-1.74222

>  <r_i_glide_lipo>  (314) 
-0.280737

>  <r_i_glide_hbond>  (314) 
0

>  <r_i_glide_metal>  (314) 
-0

>  <r_i_glide_rewards>  (314) 
-0.234787

>  <r_i_glide_evdw>  (314) 
-21.8992

>  <r_i_glide_ecoul>  (314) 
-1.19696

>  <r_i_glide_erotb>  (314) 
0.0930473

>  <r_i_glide_esite>  (314) 
-0.0452402

>  <r_i_glide_emodel>  (314) 
-24.068

>  <r_i_glide_energy>  (314) 
-23.0962

>  <r_i_glide_einternal>  (314) 
1.47805

>  <r_i_glide_intrahb_reward>  (314) 
-0

>  <i_i_glide_confnum>  (314) 
4

>  <i_i_glide_posenum>  (314) 
32

>  <r_i_glide_eff_state_penalty>  (314) 
0

>  <ligand_id>  (314) 
104

>  <original_smiles>  (314) 
CCn1c(O)c2c(c1O)C1(C)N(C(C)C)C(c3ccco3)C3Nc4cccc(OC)c4C23N1C

>  <smiles>  (314) 
[H]c1oc(C2([H])C3([H])N([H])c4c([H])c([H])c([H])c(OC([H])([H])[H])c4C34N(C([H])([H])[H])C(C([H])([H])[H])(C3([H])C(=O)N(C([H])([H])C([H])([H])[H])C(=O)C34[H])[N+]2([H])C([H])(C([H])([H])[H])C([H])([H])[H])c([H])c1[H]

$$$$
105:0:0
     RDKit          3D

 52 56  0  0  1  0  0  0  0  0999 V2000
    2.5625    2.9774    4.9827 C   0  0  0  0  0  0  0  0  0  0  0  0
    2.5913    2.1464    3.8291 O   0  0  0  0  0  0  0  0  0  0  0  0
    2.3940    0.7353    3.9761 C   0  0  2  0  0  0  0  0  0  0  0  0
    3.5675    0.1563    4.8095 C   0  0  0  0  0  0  0  0  0  0  0  0
    3.8478   -1.1972    4.4878 O   0  0  0  0  0  0  0  0  0  0  0  0
    4.0050   -1.4724    3.1313 C   0  0  0  0  0  0  0  0  0  0  0  0
    5.3005   -0.8674    2.5422 C   0  0  0  0  0  0  0  0  0  0  0  0
    5.7479   -1.8561    1.4522 C   0  0  0  0  0  0  0  0  0  0  0  0
    4.9002   -3.1248    1.6164 C   0  0  0  0  0  0  0  0  0  0  0  0
    4.2013   -2.9872    2.9709 C   0  0  0  0  0  0  0  0  0  0  0  0
    2.8791   -1.1043    2.3869 O   0  0  0  0  0  0  0  0  0  0  0  0
    2.4632    0.2572    2.4941 C   0  0  1  0  0  0  0  0  0  0  0  0
    1.0357    0.3917    1.9731 C   0  0  2  0  0  0  0  0  0  0  0  0
    0.5555    1.7477    1.4904 C   0  0  0  0  0  0  0  0  0  0  0  0
   -0.1914    1.9144    2.7239 N   0  0  1  0  0  0  0  0  0  0  0  0
   -1.6196    2.2665    2.5389 C   0  0  0  0  0  0  0  0  0  0  0  0
    0.0944    0.5380    3.1535 C   0  0  2  0  0  0  0  0  0  0  0  0
    0.9245    0.4341    4.4377 C   0  0  1  0  0  0  0  0  0  0  0  0
    0.7700   -0.9411    5.1093 C   0  0  0  0  0  0  0  0  0  0  0  0
    0.7538   -2.1344    4.3463 C   0  0  0  0  0  0  0  0  0  0  0  0
    0.6078   -3.3873    4.9617 C   0  0  0  0  0  0  0  0  0  0  0  0
    0.4407   -3.4730    6.3556 C   0  0  0  0  0  0  0  0  0  0  0  0
    0.1932   -5.0186    7.0799 Cl  0  0  0  0  0  0  0  0  0  0  0  0
    0.4488   -2.2982    7.1331 C   0  0  0  0  0  0  0  0  0  0  0  0
    0.2168   -2.3749    8.8439 Cl  0  0  0  0  0  0  0  0  0  0  0  0
    0.6210   -1.0397    6.5115 C   0  0  0  0  0  0  0  0  0  0  0  0
    2.8375    3.9910    4.6880 H   0  0  0  0  0  0  0  0  0  0  0  0
    3.2679    2.6568    5.7482 H   0  0  0  0  0  0  0  0  0  0  0  0
    1.5678    3.0426    5.4205 H   0  0  0  0  0  0  0  0  0  0  0  0
    4.4729    0.7371    4.6280 H   0  0  0  0  0  0  0  0  0  0  0  0
    3.3639    0.2406    5.8793 H   0  0  0  0  0  0  0  0  0  0  0  0
    5.1588    0.1397    2.1591 H   0  0  0  0  0  0  0  0  0  0  0  0
    6.0594   -0.8226    3.3243 H   0  0  0  0  0  0  0  0  0  0  0  0
    5.6132   -1.4400    0.4537 H   0  0  0  0  0  0  0  0  0  0  0  0
    6.8074   -2.0824    1.5685 H   0  0  0  0  0  0  0  0  0  0  0  0
    4.1545   -3.1716    0.8215 H   0  0  0  0  0  0  0  0  0  0  0  0
    5.5008   -4.0338    1.5509 H   0  0  0  0  0  0  0  0  0  0  0  0
    4.8521   -3.3572    3.7650 H   0  0  0  0  0  0  0  0  0  0  0  0
    3.2545   -3.5211    3.0279 H   0  0  0  0  0  0  0  0  0  0  0  0
    3.1401    0.8742    1.9023 H   0  0  0  0  0  0  0  0  0  0  0  0
    0.7253   -0.3940    1.2900 H   0  0  0  0  0  0  0  0  0  0  0  0
    1.3619    2.4842    1.3930 H   0  0  0  0  0  0  0  0  0  0  0  0
   -0.0738    1.7292    0.6000 H   0  0  0  0  0  0  0  0  0  0  0  0
   -2.1378    1.5647    1.8813 H   0  0  0  0  0  0  0  0  0  0  0  0
   -1.6987    3.2625    2.0952 H   0  0  0  0  0  0  0  0  0  0  0  0
   -2.1386    2.2850    3.4999 H   0  0  0  0  0  0  0  0  0  0  0  0
   -0.7941   -0.0926    3.1026 H   0  0  0  0  0  0  0  0  0  0  0  0
    0.5831    1.1586    5.1725 H   0  0  0  0  0  0  0  0  0  0  0  0
    0.8585   -2.1086    3.2726 H   0  0  0  0  0  0  0  0  0  0  0  0
    0.6086   -4.2844    4.3612 H   0  0  0  0  0  0  0  0  0  0  0  0
    0.6287   -0.1471    7.1228 H   0  0  0  0  0  0  0  0  0  0  0  0
    0.3053    2.5900    3.2899 H   0  0  0  0  0  0  0  0  0  0  0  0
  1  2  1  0
  1 27  1  0
  1 28  1  0
  1 29  1  0
  3  2  1  6
  3 12  1  0
  3 18  1  0
  3  4  1  0
  4  5  1  0
  4 30  1  0
  4 31  1  0
  5  6  1  0
  6 10  1  0
  6  7  1  0
  6 11  1  0
  7  8  1  0
  7 32  1  0
  7 33  1  0
  8  9  1  0
  8 34  1  0
  8 35  1  0
  9 10  1  0
  9 36  1  0
  9 37  1  0
 10 38  1  0
 10 39  1  0
 11 12  1  0
 12 13  1  0
 12 40  1  6
 13 17  1  0
 13 14  1  0
 13 41  1  6
 14 15  1  0
 14 42  1  0
 14 43  1  0
 15 16  1  0
 15 17  1  0
 15 52  1  1
 16 44  1  0
 16 45  1  0
 16 46  1  0
 17 18  1  0
 17 47  1  1
 18 19  1  0
 18 48  1  1
 19 26  1  0
 19 20  2  0
 20 21  1  0
 20 49  1  0
 21 22  2  0
 21 50  1  0
 22 23  1  0
 22 24  1  0
 24 25  1  0
 24 26  2  0
 26 51  1  0
M  CHG  1  15   1
M  END
>  <i_m_ct_stereo_status>  (315) 
1

>  <s_m_source_file>  (315) 
/var/tmp/pbs.5076255.sched01/tmph7d3_0rd/117btfl79hs.sdf

>  <i_m_source_file_index>  (315) 
24

>  <i_lp_mmshare_version>  (315) 
48012

>  <i_f3d_flags>  (315) 
0

>  <s_epik_input>  (315) 
W0NIMl0xW0NIMl1bQ0gyXVtDSDJdQzEyT1tDSDJdW0NAQF0zKE9bQ0gzXSlbQ0BASF0oTzIpW0NASF00W0NASF0oTihbQ0gyXTQpW0NIM10pW0NASF0zYzVbY0hdW2NIXWMoQ2wpYyhDbClbY0hdNQ==

>  <s_epik_cmdline>  (315) 
J2VwaWtfcHl0aG9uJywgJy1waHQnLCAnMi4wJywgJy1waCcsICc3LjAnLCAnLXRuJywgJzgnLCAnLW1hJywgJzIwMCcsICctaW1hZScsICc8aW5maWxlLm1hZT4nLCAnLW9tYWUnLCAnPG91dGZpbGUubWFlPic=

>  <r_epik_Ionization_Penalty>  (315) 
0.00806643

>  <r_epik_Ionization_Penalty_Charging>  (315) 
0.00806643

>  <r_epik_Ionization_Penalty_Neutral>  (315) 
1.34847e-13

>  <r_epik_State_Penalty>  (315) 
0.00605962

>  <r_epik_Charging_Adjusted_Penalty>  (315) 
0.014126

>  <i_epik_Tot_Q>  (315) 
1

>  <i_epik_Tot_abs_Q>  (315) 
1

>  <s_lp_Force_Field>  (315) 
OPLS3e

>  <r_lp_Energy>  (315) 
43.9632

>  <b_lp_Chiralities_Consistent>  (315) 
1

>  <s_lp_Variant>  (315) 
105:0-1

>  <s_i_glide_gridfile>  (315) 
pfpi4k_grid

>  <i_i_glide_lignum>  (315) 
24

>  <i_i_glide_rotatable_bonds>  (315) 
2

>  <r_i_docking_score>  (315) 
-2.38841

>  <r_i_glide_ligand_efficiency>  (315) 
-0.0918621

>  <r_i_glide_ligand_efficiency_sa>  (315) 
-0.272141

>  <r_i_glide_ligand_efficiency_ln>  (315) 
-0.560911

>  <r_i_glide_gscore>  (315) 
-2.38841

>  <r_i_glide_lipo>  (315) 
-0.30573

>  <r_i_glide_hbond>  (315) 
0

>  <r_i_glide_metal>  (315) 
-0

>  <r_i_glide_rewards>  (315) 
-0.687306

>  <r_i_glide_evdw>  (315) 
-18.2605

>  <r_i_glide_ecoul>  (315) 
-3.5529

>  <r_i_glide_erotb>  (315) 
0.12287

>  <r_i_glide_esite>  (315) 
-0.0722874

>  <r_i_glide_emodel>  (315) 
-25.3627

>  <r_i_glide_energy>  (315) 
-21.8134

>  <r_i_glide_einternal>  (315) 
0.23943

>  <r_i_glide_intrahb_reward>  (315) 
-0

>  <i_i_glide_confnum>  (315) 
4

>  <i_i_glide_posenum>  (315) 
34

>  <r_i_glide_eff_state_penalty>  (315) 
0

>  <ligand_id>  (315) 
105

>  <original_smiles>  (315) 
COC12COC3(CCCC3)OC1C1CN(C)C1C2c1ccc(Cl)c(Cl)c1

>  <smiles>  (315) 
[H]c1c([H])c(C2([H])C3(OC([H])([H])[H])C([H])([H])OC4(OC3([H])C3([H])C([H])([H])[N+]([H])(C([H])([H])[H])C23[H])C([H])([H])C([H])([H])C([H])([H])C4([H])[H])c([H])c(Cl)c1Cl

$$$$
105:0:1
     RDKit          3D

 52 56  0  0  1  0  0  0  0  0999 V2000
    3.3425    2.2767    4.6259 C   0  0  0  0  0  0  0  0  0  0  0  0
    2.9819    1.4958    3.4940 O   0  0  0  0  0  0  0  0  0  0  0  0
    2.5172    0.1569    3.6805 C   0  0  2  0  0  0  0  0  0  0  0  0
    3.6567   -0.6811    4.3119 C   0  0  0  0  0  0  0  0  0  0  0  0
    3.5760   -2.0504    3.9544 O   0  0  0  0  0  0  0  0  0  0  0  0
    3.4694   -2.3117    2.5875 C   0  0  0  0  0  0  0  0  0  0  0  0
    4.7562   -1.9911    1.8030 C   0  0  0  0  0  0  0  0  0  0  0  0
    4.7845   -3.0213    0.6597 C   0  0  0  0  0  0  0  0  0  0  0  0
    3.7179   -4.0822    0.9712 C   0  0  0  0  0  0  0  0  0  0  0  0
    3.2982   -3.8282    2.4186 C   0  0  0  0  0  0  0  0  0  0  0  0
    2.3567   -1.6827    2.0119 O   0  0  0  0  0  0  0  0  0  0  0  0
    2.2521   -0.2691    2.2074 C   0  0  1  0  0  0  0  0  0  0  0  0
    0.8118    0.1737    1.9410 C   0  0  2  0  0  0  0  0  0  0  0  0
    0.5590    1.6107    1.5346 C   0  0  0  0  0  0  0  0  0  0  0  0
    0.0722    1.8864    2.8686 N   0  0  1  0  0  0  0  0  0  0  0  0
   -1.2521    2.5411    2.9156 C   0  0  0  0  0  0  0  0  0  0  0  0
    0.1304    0.4753    3.2561 C   0  0  2  0  0  0  0  0  0  0  0  0
    1.1099    0.1623    4.3844 C   0  0  1  0  0  0  0  0  0  0  0  0
    0.7693   -1.1612    5.0879 C   0  0  0  0  0  0  0  0  0  0  0  0
    0.4867   -2.3379    4.3557 C   0  0  0  0  0  0  0  0  0  0  0  0
    0.2111   -3.5551    5.0011 C   0  0  0  0  0  0  0  0  0  0  0  0
    0.1360   -3.6051    6.4015 C   0  0  0  0  0  0  0  0  0  0  0  0
   -0.3113   -5.0889    7.1625 Cl  0  0  0  0  0  0  0  0  0  0  0  0
    0.3781   -2.4427    7.1543 C   0  0  0  0  0  0  0  0  0  0  0  0
    0.2369   -2.4709    8.8779 Cl  0  0  0  0  0  0  0  0  0  0  0  0
    0.7099   -1.2275    6.5036 C   0  0  0  0  0  0  0  0  0  0  0  0
    3.7720    3.2162    4.2757 H   0  0  0  0  0  0  0  0  0  0  0  0
    4.0900    1.7903    5.2511 H   0  0  0  0  0  0  0  0  0  0  0  0
    2.4811    2.5385    5.2379 H   0  0  0  0  0  0  0  0  0  0  0  0
    4.6242   -0.3064    3.9741 H   0  0  0  0  0  0  0  0  0  0  0  0
    3.6543   -0.5882    5.4000 H   0  0  0  0  0  0  0  0  0  0  0  0
    4.7766   -0.9665    1.4368 H   0  0  0  0  0  0  0  0  0  0  0  0
    5.6192   -2.1366    2.4536 H   0  0  0  0  0  0  0  0  0  0  0  0
    4.5740   -2.5592   -0.3061 H   0  0  0  0  0  0  0  0  0  0  0  0
    5.7729   -3.4766    0.5971 H   0  0  0  0  0  0  0  0  0  0  0  0
    2.8595   -3.9460    0.3113 H   0  0  0  0  0  0  0  0  0  0  0  0
    4.0878   -5.0972    0.8152 H   0  0  0  0  0  0  0  0  0  0  0  0
    3.9742   -4.3525    3.1000 H   0  0  0  0  0  0  0  0  0  0  0  0
    2.2806   -4.1458    2.6415 H   0  0  0  0  0  0  0  0  0  0  0  0
    2.9287    0.2318    1.5089 H   0  0  0  0  0  0  0  0  0  0  0  0
    0.2234   -0.4947    1.3255 H   0  0  0  0  0  0  0  0  0  0  0  0
    1.4547    2.1726    1.2856 H   0  0  0  0  0  0  0  0  0  0  0  0
   -0.1985    1.7138    0.7582 H   0  0  0  0  0  0  0  0  0  0  0  0
   -2.0140    1.9833    2.3597 H   0  0  0  0  0  0  0  0  0  0  0  0
   -1.1970    3.5364    2.4790 H   0  0  0  0  0  0  0  0  0  0  0  0
   -1.5926    2.6481    3.9450 H   0  0  0  0  0  0  0  0  0  0  0  0
   -0.8715    0.0377    3.3397 H   0  0  0  0  0  0  0  0  0  0  0  0
    1.0659    0.9331    5.1558 H   0  0  0  0  0  0  0  0  0  0  0  0
    0.4768   -2.3446    3.2736 H   0  0  0  0  0  0  0  0  0  0  0  0
    0.0360   -4.4447    4.4141 H   0  0  0  0  0  0  0  0  0  0  0  0
    0.9012   -0.3441    7.0946 H   0  0  0  0  0  0  0  0  0  0  0  0
    0.7954    2.4255    3.3431 H   0  0  0  0  0  0  0  0  0  0  0  0
  1  2  1  0
  1 27  1  0
  1 28  1  0
  1 29  1  0
  3  2  1  6
  3 12  1  0
  3 18  1  0
  3  4  1  0
  4  5  1  0
  4 30  1  0
  4 31  1  0
  5  6  1  0
  6 10  1  0
  6  7  1  0
  6 11  1  0
  7  8  1  0
  7 32  1  0
  7 33  1  0
  8  9  1  0
  8 34  1  0
  8 35  1  0
  9 10  1  0
  9 36  1  0
  9 37  1  0
 10 38  1  0
 10 39  1  0
 11 12  1  0
 12 13  1  0
 12 40  1  6
 13 17  1  0
 13 14  1  0
 13 41  1  6
 14 15  1  0
 14 42  1  0
 14 43  1  0
 15 16  1  0
 15 17  1  0
 15 52  1  1
 16 44  1  0
 16 45  1  0
 16 46  1  0
 17 18  1  0
 17 47  1  1
 18 19  1  0
 18 48  1  1
 19 26  1  0
 19 20  2  0
 20 21  1  0
 20 49  1  0
 21 22  2  0
 21 50  1  0
 22 23  1  0
 22 24  1  0
 24 25  1  0
 24 26  2  0
 26 51  1  0
M  CHG  1  15   1
M  END
>  <i_m_ct_stereo_status>  (316) 
1

>  <s_m_source_file>  (316) 
/var/tmp/pbs.5076255.sched01/tmph7d3_0rd/117btfl79hs.sdf

>  <i_m_source_file_index>  (316) 
24

>  <i_lp_mmshare_version>  (316) 
48012

>  <i_f3d_flags>  (316) 
0

>  <s_epik_input>  (316) 
W0NIMl0xW0NIMl1bQ0gyXVtDSDJdQzEyT1tDSDJdW0NAQF0zKE9bQ0gzXSlbQ0BASF0oTzIpW0NASF00W0NASF0oTihbQ0gyXTQpW0NIM10pW0NASF0zYzVbY0hdW2NIXWMoQ2wpYyhDbClbY0hdNQ==

>  <s_epik_cmdline>  (316) 
J2VwaWtfcHl0aG9uJywgJy1waHQnLCAnMi4wJywgJy1waCcsICc3LjAnLCAnLXRuJywgJzgnLCAnLW1hJywgJzIwMCcsICctaW1hZScsICc8aW5maWxlLm1hZT4nLCAnLW9tYWUnLCAnPG91dGZpbGUubWFlPic=

>  <r_epik_Ionization_Penalty>  (316) 
0.00806643

>  <r_epik_Ionization_Penalty_Charging>  (316) 
0.00806643

>  <r_epik_Ionization_Penalty_Neutral>  (316) 
1.34847e-13

>  <r_epik_State_Penalty>  (316) 
0.00605962

>  <r_epik_Charging_Adjusted_Penalty>  (316) 
0.014126

>  <i_epik_Tot_Q>  (316) 
1

>  <i_epik_Tot_abs_Q>  (316) 
1

>  <s_lp_Force_Field>  (316) 
OPLS3e

>  <r_lp_Energy>  (316) 
43.9632

>  <b_lp_Chiralities_Consistent>  (316) 
1

>  <s_lp_Variant>  (316) 
105:0-1

>  <s_i_glide_gridfile>  (316) 
pfpi4k_grid

>  <i_i_glide_lignum>  (316) 
24

>  <i_i_glide_rotatable_bonds>  (316) 
2

>  <r_i_docking_score>  (316) 
-2.19843

>  <r_i_glide_ligand_efficiency>  (316) 
-0.084555

>  <r_i_glide_ligand_efficiency_sa>  (316) 
-0.250494

>  <r_i_glide_ligand_efficiency_ln>  (316) 
-0.516294

>  <r_i_glide_gscore>  (316) 
-2.19843

>  <r_i_glide_lipo>  (316) 
-0.151655

>  <r_i_glide_hbond>  (316) 
0

>  <r_i_glide_metal>  (316) 
-0

>  <r_i_glide_rewards>  (316) 
-0.686381

>  <r_i_glide_evdw>  (316) 
-18.7083

>  <r_i_glide_ecoul>  (316) 
-3.209

>  <r_i_glide_erotb>  (316) 
0.12287

>  <r_i_glide_esite>  (316) 
-0.0664986

>  <r_i_glide_emodel>  (316) 
-24.8756

>  <r_i_glide_energy>  (316) 
-21.9173

>  <r_i_glide_einternal>  (316) 
0.41642

>  <r_i_glide_intrahb_reward>  (316) 
-0

>  <i_i_glide_confnum>  (316) 
4

>  <i_i_glide_posenum>  (316) 
18

>  <r_i_glide_eff_state_penalty>  (316) 
0

>  <ligand_id>  (316) 
105

>  <original_smiles>  (316) 
COC12COC3(CCCC3)OC1C1CN(C)C1C2c1ccc(Cl)c(Cl)c1

>  <smiles>  (316) 
[H]c1c([H])c(C2([H])C3(OC([H])([H])[H])C([H])([H])OC4(OC3([H])C3([H])C([H])([H])[N+]([H])(C([H])([H])[H])C23[H])C([H])([H])C([H])([H])C([H])([H])C4([H])[H])c([H])c(Cl)c1Cl

$$$$
105:0:2
     RDKit          3D

 52 56  0  0  1  0  0  0  0  0999 V2000
    4.3897    3.0509    6.4056 C   0  0  0  0  0  0  0  0  0  0  0  0
    3.5607    2.3455    5.4903 O   0  0  0  0  0  0  0  0  0  0  0  0
    2.1820    2.1311    5.8181 C   0  0  2  0  0  0  0  0  0  0  0  0
    2.1046    1.2086    7.0628 C   0  0  0  0  0  0  0  0  0  0  0  0
    0.9196    0.4274    7.0861 O   0  0  0  0  0  0  0  0  0  0  0  0
    0.6444   -0.2739    5.9160 C   0  0  0  0  0  0  0  0  0  0  0  0
    1.6331   -1.4372    5.6649 C   0  0  0  0  0  0  0  0  0  0  0  0
    0.8067   -2.5279    4.9621 C   0  0  0  0  0  0  0  0  0  0  0  0
   -0.6645   -2.1165    5.0783 C   0  0  0  0  0  0  0  0  0  0  0  0
   -0.7022   -0.9791    6.0967 C   0  0  0  0  0  0  0  0  0  0  0  0
    0.5376    0.5733    4.8095 O   0  0  0  0  0  0  0  0  0  0  0  0
    1.6708    1.3982    4.5414 C   0  0  1  0  0  0  0  0  0  0  0  0
    1.2583    2.5135    3.5844 C   0  0  2  0  0  0  0  0  0  0  0  0
    2.3233    3.1941    2.7388 C   0  0  0  0  0  0  0  0  0  0  0  0
    2.2874    4.3316    3.6392 N   0  0  1  0  0  0  0  0  0  0  0  0
    2.1035    5.6416    2.9767 C   0  0  0  0  0  0  0  0  0  0  0  0
    1.1300    3.8043    4.3680 C   0  0  2  0  0  0  0  0  0  0  0  0
    1.4049    3.4927    5.8438 C   0  0  1  0  0  0  0  0  0  0  0  0
    0.1094    3.4302    6.6698 C   0  0  0  0  0  0  0  0  0  0  0  0
   -1.0764    2.8663    6.1402 C   0  0  0  0  0  0  0  0  0  0  0  0
   -2.2607    2.8334    6.8921 C   0  0  0  0  0  0  0  0  0  0  0  0
   -2.2910    3.3719    8.1913 C   0  0  0  0  0  0  0  0  0  0  0  0
   -3.7663    3.3356    9.0789 Cl  0  0  0  0  0  0  0  0  0  0  0  0
   -1.1204    3.9369    8.7376 C   0  0  0  0  0  0  0  0  0  0  0  0
   -1.1393    4.6254   10.3214 Cl  0  0  0  0  0  0  0  0  0  0  0  0
    0.0735    3.9576    7.9823 C   0  0  0  0  0  0  0  0  0  0  0  0
    5.4174    3.0196    6.0413 H   0  0  0  0  0  0  0  0  0  0  0  0
    4.3820    2.6104    7.4017 H   0  0  0  0  0  0  0  0  0  0  0  0
    4.1221    4.1038    6.4786 H   0  0  0  0  0  0  0  0  0  0  0  0
    2.9527    0.5234    7.0697 H   0  0  0  0  0  0  0  0  0  0  0  0
    2.1797    1.7865    7.9860 H   0  0  0  0  0  0  0  0  0  0  0  0
    2.5032   -1.1371    5.0862 H   0  0  0  0  0  0  0  0  0  0  0  0
    1.9850   -1.8177    6.6263 H   0  0  0  0  0  0  0  0  0  0  0  0
    1.0849   -2.6337    3.9130 H   0  0  0  0  0  0  0  0  0  0  0  0
    0.9785   -3.4927    5.4406 H   0  0  0  0  0  0  0  0  0  0  0  0
   -1.0189   -1.7603    4.1105 H   0  0  0  0  0  0  0  0  0  0  0  0
   -1.2947   -2.9509    5.3831 H   0  0  0  0  0  0  0  0  0  0  0  0
   -0.7458   -1.3958    7.1021 H   0  0  0  0  0  0  0  0  0  0  0  0
   -1.5376   -0.2948    5.9585 H   0  0  0  0  0  0  0  0  0  0  0  0
    2.4509    0.7840    4.0895 H   0  0  0  0  0  0  0  0  0  0  0  0
    0.3723    2.3066    2.9836 H   0  0  0  0  0  0  0  0  0  0  0  0
    3.2867    2.6811    2.7572 H   0  0  0  0  0  0  0  0  0  0  0  0
    1.9852    3.3958    1.7222 H   0  0  0  0  0  0  0  0  0  0  0  0
    1.2143    5.6593    2.3469 H   0  0  0  0  0  0  0  0  0  0  0  0
    2.9803    5.8412    2.3572 H   0  0  0  0  0  0  0  0  0  0  0  0
    2.0046    6.4468    3.7085 H   0  0  0  0  0  0  0  0  0  0  0  0
    0.2217    4.3651    4.1469 H   0  0  0  0  0  0  0  0  0  0  0  0
    1.9976    4.2812    6.3000 H   0  0  0  0  0  0  0  0  0  0  0  0
   -1.0902    2.4483    5.1426 H   0  0  0  0  0  0  0  0  0  0  0  0
   -3.1559    2.4033    6.4707 H   0  0  0  0  0  0  0  0  0  0  0  0
    0.9633    4.3917    8.4210 H   0  0  0  0  0  0  0  0  0  0  0  0
    3.1142    4.3065    4.2182 H   0  0  0  0  0  0  0  0  0  0  0  0
  1  2  1  0
  1 27  1  0
  1 28  1  0
  1 29  1  0
  3  2  1  6
  3 12  1  0
  3 18  1  0
  3  4  1  0
  4  5  1  0
  4 30  1  0
  4 31  1  0
  5  6  1  0
  6 10  1  0
  6  7  1  0
  6 11  1  0
  7  8  1  0
  7 32  1  0
  7 33  1  0
  8  9  1  0
  8 34  1  0
  8 35  1  0
  9 10  1  0
  9 36  1  0
  9 37  1  0
 10 38  1  0
 10 39  1  0
 11 12  1  0
 12 13  1  0
 12 40  1  6
 13 17  1  0
 13 14  1  0
 13 41  1  6
 14 15  1  0
 14 42  1  0
 14 43  1  0
 15 16  1  0
 15 17  1  0
 15 52  1  1
 16 44  1  0
 16 45  1  0
 16 46  1  0
 17 18  1  0
 17 47  1  1
 18 19  1  0
 18 48  1  1
 19 26  1  0
 19 20  2  0
 20 21  1  0
 20 49  1  0
 21 22  2  0
 21 50  1  0
 22 23  1  0
 22 24  1  0
 24 25  1  0
 24 26  2  0
 26 51  1  0
M  CHG  1  15   1
M  END
>  <i_m_ct_stereo_status>  (317) 
1

>  <s_m_source_file>  (317) 
/var/tmp/pbs.5076255.sched01/tmph7d3_0rd/117btfl79hs.sdf

>  <i_m_source_file_index>  (317) 
24

>  <i_lp_mmshare_version>  (317) 
48012

>  <i_f3d_flags>  (317) 
0

>  <s_epik_input>  (317) 
W0NIMl0xW0NIMl1bQ0gyXVtDSDJdQzEyT1tDSDJdW0NAQF0zKE9bQ0gzXSlbQ0BASF0oTzIpW0NASF00W0NASF0oTihbQ0gyXTQpW0NIM10pW0NASF0zYzVbY0hdW2NIXWMoQ2wpYyhDbClbY0hdNQ==

>  <s_epik_cmdline>  (317) 
J2VwaWtfcHl0aG9uJywgJy1waHQnLCAnMi4wJywgJy1waCcsICc3LjAnLCAnLXRuJywgJzgnLCAnLW1hJywgJzIwMCcsICctaW1hZScsICc8aW5maWxlLm1hZT4nLCAnLW9tYWUnLCAnPG91dGZpbGUubWFlPic=

>  <r_epik_Ionization_Penalty>  (317) 
0.00806643

>  <r_epik_Ionization_Penalty_Charging>  (317) 
0.00806643

>  <r_epik_Ionization_Penalty_Neutral>  (317) 
1.34847e-13

>  <r_epik_State_Penalty>  (317) 
0.00605962

>  <r_epik_Charging_Adjusted_Penalty>  (317) 
0.014126

>  <i_epik_Tot_Q>  (317) 
1

>  <i_epik_Tot_abs_Q>  (317) 
1

>  <s_lp_Force_Field>  (317) 
OPLS3e

>  <r_lp_Energy>  (317) 
43.9632

>  <b_lp_Chiralities_Consistent>  (317) 
1

>  <s_lp_Variant>  (317) 
105:0-1

>  <s_i_glide_gridfile>  (317) 
pfpi4k_grid

>  <i_i_glide_lignum>  (317) 
24

>  <i_i_glide_rotatable_bonds>  (317) 
2

>  <r_i_docking_score>  (317) 
-2.06265

>  <r_i_glide_ligand_efficiency>  (317) 
-0.0793328

>  <r_i_glide_ligand_efficiency_sa>  (317) 
-0.235023

>  <r_i_glide_ligand_efficiency_ln>  (317) 
-0.484407

>  <r_i_glide_gscore>  (317) 
-2.06265

>  <r_i_glide_lipo>  (317) 
-0.238466

>  <r_i_glide_hbond>  (317) 
0

>  <r_i_glide_metal>  (317) 
-0

>  <r_i_glide_rewards>  (317) 
-0.686381

>  <r_i_glide_evdw>  (317) 
-18.609

>  <r_i_glide_ecoul>  (317) 
-1.94621

>  <r_i_glide_erotb>  (317) 
0.12287

>  <r_i_glide_esite>  (317) 
-0.0382948

>  <r_i_glide_emodel>  (317) 
-23.6172

>  <r_i_glide_energy>  (317) 
-20.5552

>  <r_i_glide_einternal>  (317) 
0.220468

>  <r_i_glide_intrahb_reward>  (317) 
-0

>  <i_i_glide_confnum>  (317) 
4

>  <i_i_glide_posenum>  (317) 
2

>  <r_i_glide_eff_state_penalty>  (317) 
0

>  <ligand_id>  (317) 
105

>  <original_smiles>  (317) 
COC12COC3(CCCC3)OC1C1CN(C)C1C2c1ccc(Cl)c(Cl)c1

>  <smiles>  (317) 
[H]c1c([H])c(C2([H])C3(OC([H])([H])[H])C([H])([H])OC4(OC3([H])C3([H])C([H])([H])[N+]([H])(C([H])([H])[H])C23[H])C([H])([H])C([H])([H])C([H])([H])C4([H])[H])c([H])c(Cl)c1Cl

$$$$
105:1:0
     RDKit          3D

 51 55  0  0  1  0  0  0  0  0999 V2000
    4.1780    3.3504    6.8857 C   0  0  0  0  0  0  0  0  0  0  0  0
    3.4764    2.5707    5.9253 O   0  0  0  0  0  0  0  0  0  0  0  0
    2.0680    2.3531    6.0882 C   0  0  2  0  0  0  0  0  0  0  0  0
    1.8953    1.4159    7.3109 C   0  0  0  0  0  0  0  0  0  0  0  0
    0.7561    0.5713    7.2006 O   0  0  0  0  0  0  0  0  0  0  0  0
    0.6525   -0.1177    5.9929 C   0  0  0  0  0  0  0  0  0  0  0  0
   -0.6538   -0.9160    6.0151 C   0  0  0  0  0  0  0  0  0  0  0  0
   -0.4244   -2.0182    4.9831 C   0  0  0  0  0  0  0  0  0  0  0  0
    1.0758   -2.3233    5.0150 C   0  0  0  0  0  0  0  0  0  0  0  0
    1.7446   -1.2017    5.8234 C   0  0  0  0  0  0  0  0  0  0  0  0
    0.6014    0.7493    4.8966 O   0  0  0  0  0  0  0  0  0  0  0  0
    1.7077    1.6403    4.7504 C   0  0  1  0  0  0  0  0  0  0  0  0
    1.3225    2.7560    3.7863 C   0  0  2  0  0  0  0  0  0  0  0  0
    2.4218    3.5159    3.0561 C   0  0  0  0  0  0  0  0  0  0  0  0
    2.2446    4.6113    4.0011 N   0  0  0  0  0  0  0  0  0  0  0  0
    1.9867    5.8724    3.3109 C   0  0  0  0  0  0  0  0  0  0  0  0
    1.0451    4.0112    4.5854 C   0  0  2  0  0  0  0  0  0  0  0  0
    1.2451    3.6924    6.0676 C   0  0  1  0  0  0  0  0  0  0  0  0
   -0.0778    3.6025    6.8278 C   0  0  0  0  0  0  0  0  0  0  0  0
   -1.2242    3.0116    6.2482 C   0  0  0  0  0  0  0  0  0  0  0  0
   -2.4307    2.9372    6.9637 C   0  0  0  0  0  0  0  0  0  0  0  0
   -2.5039    3.4498    8.2751 C   0  0  0  0  0  0  0  0  0  0  0  0
   -3.9892    3.3468    9.1444 Cl  0  0  0  0  0  0  0  0  0  0  0  0
   -1.3707    4.0444    8.8618 C   0  0  0  0  0  0  0  0  0  0  0  0
   -1.4508    4.7022   10.4587 Cl  0  0  0  0  0  0  0  0  0  0  0  0
   -0.1642    4.1185    8.1428 C   0  0  0  0  0  0  0  0  0  0  0  0
    5.2434    3.3092    6.6554 H   0  0  0  0  0  0  0  0  0  0  0  0
    4.0455    2.9752    7.8994 H   0  0  0  0  0  0  0  0  0  0  0  0
    3.9028    4.4034    6.8534 H   0  0  0  0  0  0  0  0  0  0  0  0
    2.7717    0.7730    7.4083 H   0  0  0  0  0  0  0  0  0  0  0  0
    1.8413    1.9828    8.2439 H   0  0  0  0  0  0  0  0  0  0  0  0
   -0.7815   -1.3613    7.0021 H   0  0  0  0  0  0  0  0  0  0  0  0
   -1.5123   -0.2798    5.7965 H   0  0  0  0  0  0  0  0  0  0  0  0
   -1.0093   -2.9113    5.1942 H   0  0  0  0  0  0  0  0  0  0  0  0
   -0.7007   -1.6573    3.9930 H   0  0  0  0  0  0  0  0  0  0  0  0
    1.2633   -3.2858    5.4915 H   0  0  0  0  0  0  0  0  0  0  0  0
    1.4689   -2.3843    3.9985 H   0  0  0  0  0  0  0  0  0  0  0  0
    2.6489   -0.8290    5.3475 H   0  0  0  0  0  0  0  0  0  0  0  0
    2.0187   -1.5832    6.8078 H   0  0  0  0  0  0  0  0  0  0  0  0
    2.5577    1.0817    4.3549 H   0  0  0  0  0  0  0  0  0  0  0  0
    0.5098    2.5157    3.1013 H   0  0  0  0  0  0  0  0  0  0  0  0
    3.4172    3.0916    3.1732 H   0  0  0  0  0  0  0  0  0  0  0  0
    2.1751    3.8067    2.0331 H   0  0  0  0  0  0  0  0  0  0  0  0
    1.7450    6.6504    4.0371 H   0  0  0  0  0  0  0  0  0  0  0  0
    1.1762    5.8153    2.5746 H   0  0  0  0  0  0  0  0  0  0  0  0
    2.9034    6.1698    2.7992 H   0  0  0  0  0  0  0  0  0  0  0  0
    0.1601    4.5673    4.2789 H   0  0  0  0  0  0  0  0  0  0  0  0
    1.7945    4.5034    6.5439 H   0  0  0  0  0  0  0  0  0  0  0  0
   -1.1836    2.6076    5.2460 H   0  0  0  0  0  0  0  0  0  0  0  0
   -3.3052    2.4946    6.5097 H   0  0  0  0  0  0  0  0  0  0  0  0
    0.6963    4.5739    8.6037 H   0  0  0  0  0  0  0  0  0  0  0  0
  1  2  1  0
  1 27  1  0
  1 28  1  0
  1 29  1  0
  3  2  1  6
  3 12  1  0
  3 18  1  0
  3  4  1  0
  4  5  1  0
  4 30  1  0
  4 31  1  0
  5  6  1  0
  6 10  1  0
  6  7  1  0
  6 11  1  0
  7  8  1  0
  7 32  1  0
  7 33  1  0
  8  9  1  0
  8 34  1  0
  8 35  1  0
  9 10  1  0
  9 36  1  0
  9 37  1  0
 10 38  1  0
 10 39  1  0
 11 12  1  0
 12 13  1  0
 12 40  1  6
 13 17  1  0
 13 14  1  0
 13 41  1  6
 14 15  1  0
 14 42  1  0
 14 43  1  0
 15 16  1  0
 15 17  1  0
 16 44  1  0
 16 45  1  0
 16 46  1  0
 17 18  1  0
 17 47  1  1
 18 19  1  0
 18 48  1  1
 19 26  1  0
 19 20  2  0
 20 21  1  0
 20 49  1  0
 21 22  2  0
 21 50  1  0
 22 23  1  0
 22 24  1  0
 24 25  1  0
 24 26  2  0
 26 51  1  0
M  END
>  <i_m_ct_stereo_status>  (318) 
1

>  <s_m_source_file>  (318) 
/var/tmp/pbs.5076255.sched01/tmph7d3_0rd/117btfl79hs.sdf

>  <i_m_source_file_index>  (318) 
25

>  <i_lp_mmshare_version>  (318) 
48012

>  <i_f3d_flags>  (318) 
0

>  <s_epik_input>  (318) 
W0NIMl0xW0NIMl1bQ0gyXVtDSDJdQzEyT1tDSDJdW0NAQF0zKE9bQ0gzXSlbQ0BASF0oTzIpW0NASF00W0NASF0oTihbQ0gyXTQpW0NIM10pW0NASF0zYzVbY0hdW2NIXWMoQ2wpYyhDbClbY0hdNQ==

>  <s_epik_cmdline>  (318) 
J2VwaWtfcHl0aG9uJywgJy1waHQnLCAnMi4wJywgJy1waCcsICc3LjAnLCAnLXRuJywgJzgnLCAnLW1hJywgJzIwMCcsICctaW1hZScsICc8aW5maWxlLm1hZT4nLCAnLW9tYWUnLCAnPG91dGZpbGUubWFlPic=

>  <r_epik_Ionization_Penalty>  (318) 
2.54971

>  <r_epik_Ionization_Penalty_Charging>  (318) 
0

>  <r_epik_Ionization_Penalty_Neutral>  (318) 
2.54971

>  <r_epik_State_Penalty>  (318) 
2.7182

>  <r_epik_Charging_Adjusted_Penalty>  (318) 
2.7182

>  <i_epik_Tot_Q>  (318) 
0

>  <i_epik_Tot_abs_Q>  (318) 
0

>  <s_lp_Force_Field>  (318) 
OPLS3e

>  <r_lp_Energy>  (318) 
35.7997

>  <b_lp_Chiralities_Consistent>  (318) 
1

>  <s_lp_Variant>  (318) 
105:0-2

>  <s_i_glide_gridfile>  (318) 
pfpi4k_grid

>  <i_i_glide_lignum>  (318) 
25

>  <i_i_glide_rotatable_bonds>  (318) 
2

>  <r_i_docking_score>  (318) 
-1.86976

>  <r_i_glide_ligand_efficiency>  (318) 
-0.071914

>  <r_i_glide_ligand_efficiency_sa>  (318) 
-0.213045

>  <r_i_glide_ligand_efficiency_ln>  (318) 
-0.439108

>  <r_i_glide_gscore>  (318) 
-1.86976

>  <r_i_glide_lipo>  (318) 
-0.304228

>  <r_i_glide_hbond>  (318) 
0

>  <r_i_glide_metal>  (318) 
-0

>  <r_i_glide_rewards>  (318) 
-0.693254

>  <r_i_glide_evdw>  (318) 
-19.7558

>  <r_i_glide_ecoul>  (318) 
-0.000854396

>  <r_i_glide_erotb>  (318) 
0.12343

>  <r_i_glide_esite>  (318) 
-0.00779263

>  <r_i_glide_emodel>  (318) 
-21.7707

>  <r_i_glide_energy>  (318) 
-19.7567

>  <r_i_glide_einternal>  (318) 
0.0255842

>  <r_i_glide_intrahb_reward>  (318) 
-0

>  <i_i_glide_confnum>  (318) 
3

>  <i_i_glide_posenum>  (318) 
5

>  <r_i_glide_eff_state_penalty>  (318) 
0

>  <ligand_id>  (318) 
105

>  <original_smiles>  (318) 
COC12COC3(CCCC3)OC1C1CN(C)C1C2c1ccc(Cl)c(Cl)c1

>  <smiles>  (318) 
[H]c1c([H])c(C2([H])C3([H])N(C([H])([H])[H])C([H])([H])C3([H])C3([H])OC4(OC([H])([H])C32OC([H])([H])[H])C([H])([H])C([H])([H])C([H])([H])C4([H])[H])c([H])c(Cl)c1Cl

$$$$
105:1:1
     RDKit          3D

 51 55  0  0  1  0  0  0  0  0999 V2000
    2.1778    2.8835    6.1159 C   0  0  0  0  0  0  0  0  0  0  0  0
    1.9878    2.3403    4.8153 O   0  0  0  0  0  0  0  0  0  0  0  0
    1.6679    0.9504    4.6696 C   0  0  2  0  0  0  0  0  0  0  0  0
    2.9109    0.1486    5.1342 C   0  0  0  0  0  0  0  0  0  0  0  0
    3.0585   -1.0861    4.4483 O   0  0  0  0  0  0  0  0  0  0  0  0
    2.9804   -1.0023    3.0578 C   0  0  0  0  0  0  0  0  0  0  0  0
    3.0819   -2.4229    2.4895 C   0  0  0  0  0  0  0  0  0  0  0  0
    3.5418   -2.2030    1.0468 C   0  0  0  0  0  0  0  0  0  0  0  0
    4.4077   -0.9359    1.0698 C   0  0  0  0  0  0  0  0  0  0  0  0
    4.1871   -0.2648    2.4347 C   0  0  0  0  0  0  0  0  0  0  0  0
    1.7630   -0.4586    2.6337 O   0  0  0  0  0  0  0  0  0  0  0  0
    1.4463    0.8421    3.1317 C   0  0  1  0  0  0  0  0  0  0  0  0
   -0.0408    1.1080    2.9228 C   0  0  2  0  0  0  0  0  0  0  0  0
   -0.5312    2.5487    2.8766 C   0  0  0  0  0  0  0  0  0  0  0  0
   -1.0292    2.3919    4.2359 N   0  0  0  0  0  0  0  0  0  0  0  0
   -2.4445    2.7370    4.3411 C   0  0  0  0  0  0  0  0  0  0  0  0
   -0.7575    0.9526    4.2486 C   0  0  2  0  0  0  0  0  0  0  0  0
    0.2780    0.5917    5.3113 C   0  0  1  0  0  0  0  0  0  0  0  0
    0.1687   -0.8720    5.7513 C   0  0  0  0  0  0  0  0  0  0  0  0
    0.0040   -1.9107    4.8088 C   0  0  0  0  0  0  0  0  0  0  0  0
   -0.0624   -3.2505    5.2237 C   0  0  0  0  0  0  0  0  0  0  0  0
   -0.0003   -3.5723    6.5931 C   0  0  0  0  0  0  0  0  0  0  0  0
   -0.1583   -5.2235    7.0791 Cl  0  0  0  0  0  0  0  0  0  0  0  0
    0.1653   -2.5448    7.5426 C   0  0  0  0  0  0  0  0  0  0  0  0
    0.2149   -2.9026    9.2318 Cl  0  0  0  0  0  0  0  0  0  0  0  0
    0.2483   -1.2021    7.1206 C   0  0  0  0  0  0  0  0  0  0  0  0
    2.5195    3.9142    6.0129 H   0  0  0  0  0  0  0  0  0  0  0  0
    2.9349    2.3462    6.6852 H   0  0  0  0  0  0  0  0  0  0  0  0
    1.2557    2.9219    6.6936 H   0  0  0  0  0  0  0  0  0  0  0  0
    3.8150    0.7331    4.9566 H   0  0  0  0  0  0  0  0  0  0  0  0
    2.8828   -0.0346    6.2117 H   0  0  0  0  0  0  0  0  0  0  0  0
    3.8368   -2.9847    3.0447 H   0  0  0  0  0  0  0  0  0  0  0  0
    2.1316   -2.9497    2.5698 H   0  0  0  0  0  0  0  0  0  0  0  0
    4.0827   -3.0629    0.6499 H   0  0  0  0  0  0  0  0  0  0  0  0
    2.6751   -2.0376    0.4050 H   0  0  0  0  0  0  0  0  0  0  0  0
    5.4622   -1.1837    0.9477 H   0  0  0  0  0  0  0  0  0  0  0  0
    4.1326   -0.2753    0.2455 H   0  0  0  0  0  0  0  0  0  0  0  0
    4.0236    0.8064    2.3507 H   0  0  0  0  0  0  0  0  0  0  0  0
    5.0637   -0.4242    3.0632 H   0  0  0  0  0  0  0  0  0  0  0  0
    2.0356    1.5810    2.5870 H   0  0  0  0  0  0  0  0  0  0  0  0
   -0.5013    0.5228    2.1279 H   0  0  0  0  0  0  0  0  0  0  0  0
    0.2549    3.3049    2.8664 H   0  0  0  0  0  0  0  0  0  0  0  0
   -1.3315    2.7262    2.1557 H   0  0  0  0  0  0  0  0  0  0  0  0
   -2.7951    2.5188    5.3502 H   0  0  0  0  0  0  0  0  0  0  0  0
   -3.0772    2.2094    3.6211 H   0  0  0  0  0  0  0  0  0  0  0  0
   -2.5604    3.8099    4.1800 H   0  0  0  0  0  0  0  0  0  0  0  0
   -1.6926    0.3933    4.2097 H   0  0  0  0  0  0  0  0  0  0  0  0
    0.1020    1.1826    6.2089 H   0  0  0  0  0  0  0  0  0  0  0  0
   -0.0628   -1.6936    3.7520 H   0  0  0  0  0  0  0  0  0  0  0  0
   -0.1799   -4.0346    4.4907 H   0  0  0  0  0  0  0  0  0  0  0  0
    0.3675   -0.4241    7.8580 H   0  0  0  0  0  0  0  0  0  0  0  0
  1  2  1  0
  1 27  1  0
  1 28  1  0
  1 29  1  0
  3  2  1  6
  3 12  1  0
  3 18  1  0
  3  4  1  0
  4  5  1  0
  4 30  1  0
  4 31  1  0
  5  6  1  0
  6 10  1  0
  6  7  1  0
  6 11  1  0
  7  8  1  0
  7 32  1  0
  7 33  1  0
  8  9  1  0
  8 34  1  0
  8 35  1  0
  9 10  1  0
  9 36  1  0
  9 37  1  0
 10 38  1  0
 10 39  1  0
 11 12  1  0
 12 13  1  0
 12 40  1  6
 13 17  1  0
 13 14  1  0
 13 41  1  6
 14 15  1  0
 14 42  1  0
 14 43  1  0
 15 16  1  0
 15 17  1  0
 16 44  1  0
 16 45  1  0
 16 46  1  0
 17 18  1  0
 17 47  1  6
 18 19  1  0
 18 48  1  1
 19 26  1  0
 19 20  2  0
 20 21  1  0
 20 49  1  0
 21 22  2  0
 21 50  1  0
 22 23  1  0
 22 24  1  0
 24 25  1  0
 24 26  2  0
 26 51  1  0
M  END
>  <i_m_ct_stereo_status>  (319) 
1

>  <s_m_source_file>  (319) 
/var/tmp/pbs.5076255.sched01/tmph7d3_0rd/117btfl79hs.sdf

>  <i_m_source_file_index>  (319) 
25

>  <i_lp_mmshare_version>  (319) 
48012

>  <i_f3d_flags>  (319) 
0

>  <s_epik_input>  (319) 
W0NIMl0xW0NIMl1bQ0gyXVtDSDJdQzEyT1tDSDJdW0NAQF0zKE9bQ0gzXSlbQ0BASF0oTzIpW0NASF00W0NASF0oTihbQ0gyXTQpW0NIM10pW0NASF0zYzVbY0hdW2NIXWMoQ2wpYyhDbClbY0hdNQ==

>  <s_epik_cmdline>  (319) 
J2VwaWtfcHl0aG9uJywgJy1waHQnLCAnMi4wJywgJy1waCcsICc3LjAnLCAnLXRuJywgJzgnLCAnLW1hJywgJzIwMCcsICctaW1hZScsICc8aW5maWxlLm1hZT4nLCAnLW9tYWUnLCAnPG91dGZpbGUubWFlPic=

>  <r_epik_Ionization_Penalty>  (319) 
2.54971

>  <r_epik_Ionization_Penalty_Charging>  (319) 
0

>  <r_epik_Ionization_Penalty_Neutral>  (319) 
2.54971

>  <r_epik_State_Penalty>  (319) 
2.7182

>  <r_epik_Charging_Adjusted_Penalty>  (319) 
2.7182

>  <i_epik_Tot_Q>  (319) 
0

>  <i_epik_Tot_abs_Q>  (319) 
0

>  <s_lp_Force_Field>  (319) 
OPLS3e

>  <r_lp_Energy>  (319) 
35.7997

>  <b_lp_Chiralities_Consistent>  (319) 
1

>  <s_lp_Variant>  (319) 
105:0-2

>  <s_i_glide_gridfile>  (319) 
pfpi4k_grid

>  <i_i_glide_lignum>  (319) 
25

>  <i_i_glide_rotatable_bonds>  (319) 
2

>  <r_i_docking_score>  (319) 
-1.80139

>  <r_i_glide_ligand_efficiency>  (319) 
-0.0692842

>  <r_i_glide_ligand_efficiency_sa>  (319) 
-0.205254

>  <r_i_glide_ligand_efficiency_ln>  (319) 
-0.42305

>  <r_i_glide_gscore>  (319) 
-1.80139

>  <r_i_glide_lipo>  (319) 
-0.131442

>  <r_i_glide_hbond>  (319) 
0

>  <r_i_glide_metal>  (319) 
-0

>  <r_i_glide_rewards>  (319) 
-0.693254

>  <r_i_glide_evdw>  (319) 
-18.8022

>  <r_i_glide_ecoul>  (319) 
-1.0504

>  <r_i_glide_erotb>  (319) 
0.12343

>  <r_i_glide_esite>  (319) 
-0.00245181

>  <r_i_glide_emodel>  (319) 
-21.7649

>  <r_i_glide_energy>  (319) 
-19.8526

>  <r_i_glide_einternal>  (319) 
0.0210881

>  <r_i_glide_intrahb_reward>  (319) 
-0

>  <i_i_glide_confnum>  (319) 
3

>  <i_i_glide_posenum>  (319) 
2

>  <r_i_glide_eff_state_penalty>  (319) 
0

>  <ligand_id>  (319) 
105

>  <original_smiles>  (319) 
COC12COC3(CCCC3)OC1C1CN(C)C1C2c1ccc(Cl)c(Cl)c1

>  <smiles>  (319) 
[H]c1c([H])c(C2([H])C3([H])N(C([H])([H])[H])C([H])([H])C3([H])C3([H])OC4(OC([H])([H])C32OC([H])([H])[H])C([H])([H])C([H])([H])C([H])([H])C4([H])[H])c([H])c(Cl)c1Cl

$$$$
105:1:2
     RDKit          3D

 51 55  0  0  1  0  0  0  0  0999 V2000
    1.8369    0.9844    1.7979 C   0  0  0  0  0  0  0  0  0  0  0  0
    1.1002    2.1262    2.2856 O   0  0  0  0  0  0  0  0  0  0  0  0
    1.3806    2.7227    3.5691 C   0  0  2  0  0  0  0  0  0  0  0  0
    2.8809    3.1224    3.5993 C   0  0  0  0  0  0  0  0  0  0  0  0
    3.4057    3.1531    4.9202 O   0  0  0  0  0  0  0  0  0  0  0  0
    3.1097    2.0224    5.6743 C   0  0  0  0  0  0  0  0  0  0  0  0
    3.7349    2.2176    7.0511 C   0  0  0  0  0  0  0  0  0  0  0  0
    3.8387    0.7965    7.6150 C   0  0  0  0  0  0  0  0  0  0  0  0
    4.0777   -0.1182    6.4090 C   0  0  0  0  0  0  0  0  0  0  0  0
    3.7893    0.7202    5.1513 C   0  0  0  0  0  0  0  0  0  0  0  0
    1.7303    1.8689    5.8543 O   0  0  0  0  0  0  0  0  0  0  0  0
    0.9688    1.6838    4.6641 C   0  0  1  0  0  0  0  0  0  0  0  0
   -0.5077    1.9414    4.9428 C   0  0  2  0  0  0  0  0  0  0  0  0
   -1.5522    1.3557    3.9909 C   0  0  0  0  0  0  0  0  0  0  0  0
   -1.7287    2.6830    3.4159 N   0  0  0  0  0  0  0  0  0  0  0  0
   -3.1248    3.1212    3.4523 C   0  0  0  0  0  0  0  0  0  0  0  0
   -0.8702    3.3172    4.4225 C   0  0  2  0  0  0  0  0  0  0  0  0
    0.3819    3.9299    3.8000 C   0  0  1  0  0  0  0  0  0  0  0  0
    0.9492    5.0583    4.6786 C   0  0  0  0  0  0  0  0  0  0  0  0
    0.8917    4.9977    6.0921 C   0  0  0  0  0  0  0  0  0  0  0  0
    1.4346    6.0303    6.8807 C   0  0  0  0  0  0  0  0  0  0  0  0
    2.0550    7.1348    6.2620 C   0  0  0  0  0  0  0  0  0  0  0  0
    2.7217    8.3774    7.2573 Cl  0  0  0  0  0  0  0  0  0  0  0  0
    2.1300    7.2076    4.8598 C   0  0  0  0  0  0  0  0  0  0  0  0
    2.9034    8.5401    4.0796 Cl  0  0  0  0  0  0  0  0  0  0  0  0
    1.5676    6.1761    4.0752 C   0  0  0  0  0  0  0  0  0  0  0  0
    1.2902    0.5176    0.9749 H   0  0  0  0  0  0  0  0  0  0  0  0
    1.9863    0.1986    2.5382 H   0  0  0  0  0  0  0  0  0  0  0  0
    2.8168    1.2711    1.4040 H   0  0  0  0  0  0  0  0  0  0  0  0
    3.4798    2.3893    3.0827 H   0  0  0  0  0  0  0  0  0  0  0  0
    3.0652    4.0768    3.0830 H   0  0  0  0  0  0  0  0  0  0  0  0
    4.7310    2.6544    6.9348 H   0  0  0  0  0  0  0  0  0  0  0  0
    3.1238    2.8928    7.6530 H   0  0  0  0  0  0  0  0  0  0  0  0
    4.6318    0.7123    8.3595 H   0  0  0  0  0  0  0  0  0  0  0  0
    2.8978    0.5278    8.0973 H   0  0  0  0  0  0  0  0  0  0  0  0
    5.1066   -0.4822    6.3917 H   0  0  0  0  0  0  0  0  0  0  0  0
    3.4305   -0.9964    6.4693 H   0  0  0  0  0  0  0  0  0  0  0  0
    3.1831    0.1681    4.4429 H   0  0  0  0  0  0  0  0  0  0  0  0
    4.7330    0.9658    4.6598 H   0  0  0  0  0  0  0  0  0  0  0  0
    1.0881    0.6474    4.3597 H   0  0  0  0  0  0  0  0  0  0  0  0
   -0.8047    1.7979    5.9850 H   0  0  0  0  0  0  0  0  0  0  0  0
   -1.1702    0.6856    3.2219 H   0  0  0  0  0  0  0  0  0  0  0  0
   -2.4567    0.9968    4.4755 H   0  0  0  0  0  0  0  0  0  0  0  0
   -3.1844    4.1549    3.1051 H   0  0  0  0  0  0  0  0  0  0  0  0
   -3.5766    3.0439    4.4482 H   0  0  0  0  0  0  0  0  0  0  0  0
   -3.7205    2.5290    2.7539 H   0  0  0  0  0  0  0  0  0  0  0  0
   -1.4806    3.9198    5.1001 H   0  0  0  0  0  0  0  0  0  0  0  0
    0.1192    4.4154    2.8807 H   0  0  0  0  0  0  0  0  0  0  0  0
    0.4329    4.1553    6.5821 H   0  0  0  0  0  0  0  0  0  0  0  0
    1.3733    5.9695    7.9535 H   0  0  0  0  0  0  0  0  0  0  0  0
    1.6250    6.2477    3.0026 H   0  0  0  0  0  0  0  0  0  0  0  0
  1  2  1  0
  1 27  1  0
  1 28  1  0
  1 29  1  0
  3  2  1  6
  3 12  1  0
  3 18  1  0
  3  4  1  0
  4  5  1  0
  4 30  1  0
  4 31  1  0
  5  6  1  0
  6 10  1  0
  6  7  1  0
  6 11  1  0
  7  8  1  0
  7 32  1  0
  7 33  1  0
  8  9  1  0
  8 34  1  0
  8 35  1  0
  9 10  1  0
  9 36  1  0
  9 37  1  0
 10 38  1  0
 10 39  1  0
 11 12  1  0
 12 13  1  0
 12 40  1  6
 13 17  1  0
 13 14  1  0
 13 41  1  1
 14 15  1  0
 14 42  1  0
 14 43  1  0
 15 16  1  0
 15 17  1  0
 16 44  1  0
 16 45  1  0
 16 46  1  0
 17 18  1  0
 17 47  1  1
 18 19  1  0
 18 48  1  6
 19 26  1  0
 19 20  2  0
 20 21  1  0
 20 49  1  0
 21 22  2  0
 21 50  1  0
 22 23  1  0
 22 24  1  0
 24 25  1  0
 24 26  2  0
 26 51  1  0
M  END
>  <i_m_ct_stereo_status>  (320) 
1

>  <s_m_source_file>  (320) 
/var/tmp/pbs.5076255.sched01/tmph7d3_0rd/117btfl79hs.sdf

>  <i_m_source_file_index>  (320) 
25

>  <i_lp_mmshare_version>  (320) 
48012

>  <i_f3d_flags>  (320) 
0

>  <s_epik_input>  (320) 
W0NIMl0xW0NIMl1bQ0gyXVtDSDJdQzEyT1tDSDJdW0NAQF0zKE9bQ0gzXSlbQ0BASF0oTzIpW0NASF00W0NASF0oTihbQ0gyXTQpW0NIM10pW0NASF0zYzVbY0hdW2NIXWMoQ2wpYyhDbClbY0hdNQ==

>  <s_epik_cmdline>  (320) 
J2VwaWtfcHl0aG9uJywgJy1waHQnLCAnMi4wJywgJy1waCcsICc3LjAnLCAnLXRuJywgJzgnLCAnLW1hJywgJzIwMCcsICctaW1hZScsICc8aW5maWxlLm1hZT4nLCAnLW9tYWUnLCAnPG91dGZpbGUubWFlPic=

>  <r_epik_Ionization_Penalty>  (320) 
2.54971

>  <r_epik_Ionization_Penalty_Charging>  (320) 
0

>  <r_epik_Ionization_Penalty_Neutral>  (320) 
2.54971

>  <r_epik_State_Penalty>  (320) 
2.7182

>  <r_epik_Charging_Adjusted_Penalty>  (320) 
2.7182

>  <i_epik_Tot_Q>  (320) 
0

>  <i_epik_Tot_abs_Q>  (320) 
0

>  <s_lp_Force_Field>  (320) 
OPLS3e

>  <r_lp_Energy>  (320) 
35.7997

>  <b_lp_Chiralities_Consistent>  (320) 
1

>  <s_lp_Variant>  (320) 
105:0-2

>  <s_i_glide_gridfile>  (320) 
pfpi4k_grid

>  <i_i_glide_lignum>  (320) 
25

>  <i_i_glide_rotatable_bonds>  (320) 
2

>  <r_i_docking_score>  (320) 
-1.65959

>  <r_i_glide_ligand_efficiency>  (320) 
-0.0638305

>  <r_i_glide_ligand_efficiency_sa>  (320) 
-0.189098

>  <r_i_glide_ligand_efficiency_ln>  (320) 
-0.38975

>  <r_i_glide_gscore>  (320) 
-1.65959

>  <r_i_glide_lipo>  (320) 
-0.00152889

>  <r_i_glide_hbond>  (320) 
0

>  <r_i_glide_metal>  (320) 
-0

>  <r_i_glide_rewards>  (320) 
-0.693254

>  <r_i_glide_evdw>  (320) 
-20.5589

>  <r_i_glide_ecoul>  (320) 
-0.401964

>  <r_i_glide_erotb>  (320) 
0.12343

>  <r_i_glide_esite>  (320) 
0

>  <r_i_glide_emodel>  (320) 
-17.6159

>  <r_i_glide_energy>  (320) 
-20.9609

>  <r_i_glide_einternal>  (320) 
9.32703

>  <r_i_glide_intrahb_reward>  (320) 
-0

>  <i_i_glide_confnum>  (320) 
3

>  <i_i_glide_posenum>  (320) 
27

>  <r_i_glide_eff_state_penalty>  (320) 
0

>  <ligand_id>  (320) 
105

>  <original_smiles>  (320) 
COC12COC3(CCCC3)OC1C1CN(C)C1C2c1ccc(Cl)c(Cl)c1

>  <smiles>  (320) 
[H]c1c([H])c(C2([H])C3([H])N(C([H])([H])[H])C([H])([H])C3([H])C3([H])OC4(OC([H])([H])C32OC([H])([H])[H])C([H])([H])C([H])([H])C([H])([H])C4([H])[H])c([H])c(Cl)c1Cl

$$$$
107:0:0
     RDKit          3D

 80 86  0  0  1  0  0  0  0  0999 V2000
    1.3989   -4.2914    8.4650 C   0  0  0  0  0  0  0  0  0  0  0  0
    0.9644   -5.4805    7.5893 C   0  0  2  0  0  0  0  0  0  0  0  0
    0.4898   -6.5271    8.4633 O   0  0  0  0  0  0  0  0  0  0  0  0
    1.0200   -7.8318    8.3175 C   0  0  2  0  0  0  0  0  0  0  0  0
    0.4949   -8.6424    9.5079 C   0  0  0  0  0  0  0  0  0  0  0  0
    2.5639   -7.8009    8.3497 C   0  0  0  0  0  0  0  0  0  0  0  0
    3.1268   -6.6677    7.4863 C   0  0  0  0  0  0  0  0  0  0  0  0
    2.0580   -5.9830    6.5947 C   0  0  1  0  0  0  0  0  0  0  0  0
    1.5149   -6.8872    5.4059 C   0  0  2  0  0  0  0  0  0  0  0  0
    2.6512   -7.7456    4.7435 C   0  0  0  0  0  0  0  0  0  0  0  0
    4.0183   -7.0723    4.3991 C   0  0  0  0  0  0  0  0  0  0  0  0
    4.3309   -6.7094    2.9223 C   0  0  2  0  0  0  0  0  0  0  0  0
    5.8675   -6.6718    2.6807 C   0  0  1  0  0  0  0  0  0  0  0  0
    6.4238   -7.9163    1.9650 C   0  0  0  0  0  0  0  0  0  0  0  0
    6.2011   -5.3145    2.0262 C   0  0  1  0  0  0  0  0  0  0  0  0
    6.2569   -5.3204    0.4922 C   0  0  0  0  0  0  0  0  0  0  0  0
    6.3335   -3.8818   -0.0189 C   0  0  0  0  0  0  0  0  0  0  0  0
    5.0566   -3.1283    0.4225 C   0  0  1  0  0  0  0  0  0  0  0  0
    5.0679   -1.6621   -0.0366 C   0  0  0  0  0  0  0  0  0  0  0  0
    4.2540   -1.6694   -1.3270 C   0  0  0  0  0  0  0  0  0  0  0  0
    3.8215   -3.1238   -1.5052 C   0  0  0  0  0  0  0  0  0  0  0  0
    3.9362   -3.6770   -0.2012 O   0  0  0  0  0  0  0  0  0  0  0  0
    4.9709   -3.1482    1.8242 O   0  0  0  0  0  0  0  0  0  0  0  0
    5.0657   -4.4073    2.5137 C   0  0  1  0  0  0  0  0  0  0  0  0
    3.8299   -5.3147    2.4583 C   0  0  2  0  0  0  0  0  0  0  0  0
    2.5953   -4.7431    3.1761 C   0  0  0  0  0  0  0  0  0  0  0  0
    1.3772   -5.6606    3.0059 C   0  0  0  0  0  0  0  0  0  0  0  0
    0.6662   -6.2055    4.2684 C   0  0  1  0  0  0  0  0  0  0  0  0
   -0.4998   -7.2058    3.8926 C   0  0  1  0  0  0  0  0  0  0  0  0
   -0.6454   -7.6743    2.4256 C   0  0  0  0  0  0  0  0  0  0  0  0
   -0.4343   -8.3793    4.8873 C   0  0  1  0  0  0  0  0  0  0  0  0
    0.2068   -9.5272    4.3735 O   0  0  0  0  0  0  0  0  0  0  0  0
    0.3647   -7.7411    6.0050 C   0  0  1  0  0  0  0  0  0  0  0  0
    0.6038   -8.5222    7.1653 O   0  0  0  0  0  0  0  0  0  0  0  0
    1.8267   -3.4888    7.8640 H   0  0  0  0  0  0  0  0  0  0  0  0
    2.1342   -4.5809    9.2120 H   0  0  0  0  0  0  0  0  0  0  0  0
    0.5454   -3.8813    9.0021 H   0  0  0  0  0  0  0  0  0  0  0  0
    0.1173   -5.1052    7.0163 H   0  0  0  0  0  0  0  0  0  0  0  0
   -0.5912   -8.6808    9.4662 H   0  0  0  0  0  0  0  0  0  0  0  0
    0.7987   -8.1749   10.4457 H   0  0  0  0  0  0  0  0  0  0  0  0
    0.8920   -9.6569    9.4689 H   0  0  0  0  0  0  0  0  0  0  0  0
    2.9038   -7.6700    9.3780 H   0  0  0  0  0  0  0  0  0  0  0  0
    2.9360   -8.7715    8.0163 H   0  0  0  0  0  0  0  0  0  0  0  0
    3.5586   -5.9204    8.1507 H   0  0  0  0  0  0  0  0  0  0  0  0
    3.9895   -7.0478    6.9530 H   0  0  0  0  0  0  0  0  0  0  0  0
    2.5271   -5.1024    6.1671 H   0  0  0  0  0  0  0  0  0  0  0  0
    2.8589   -8.5716    5.4271 H   0  0  0  0  0  0  0  0  0  0  0  0
    2.2839   -8.2410    3.8449 H   0  0  0  0  0  0  0  0  0  0  0  0
    4.2302   -6.2010    5.0150 H   0  0  0  0  0  0  0  0  0  0  0  0
    4.7611   -7.8119    4.6985 H   0  0  0  0  0  0  0  0  0  0  0  0
    3.8876   -7.4708    2.2802 H   0  0  0  0  0  0  0  0  0  0  0  0
    6.3561   -6.6360    3.6560 H   0  0  0  0  0  0  0  0  0  0  0  0
    5.9661   -8.0613    0.9862 H   0  0  0  0  0  0  0  0  0  0  0  0
    6.2280   -8.8127    2.5541 H   0  0  0  0  0  0  0  0  0  0  0  0
    7.5034   -7.8419    1.8262 H   0  0  0  0  0  0  0  0  0  0  0  0
    7.1600   -4.9505    2.3901 H   0  0  0  0  0  0  0  0  0  0  0  0
    7.1365   -5.8646    0.1548 H   0  0  0  0  0  0  0  0  0  0  0  0
    5.3939   -5.8291    0.0681 H   0  0  0  0  0  0  0  0  0  0  0  0
    7.2065   -3.3813    0.3987 H   0  0  0  0  0  0  0  0  0  0  0  0
    6.4286   -3.8567   -1.1049 H   0  0  0  0  0  0  0  0  0  0  0  0
    4.5748   -1.0387    0.7113 H   0  0  0  0  0  0  0  0  0  0  0  0
    6.0868   -1.2992   -0.1570 H   0  0  0  0  0  0  0  0  0  0  0  0
    3.3772   -1.0302   -1.2141 H   0  0  0  0  0  0  0  0  0  0  0  0
    4.8256   -1.3055   -2.1834 H   0  0  0  0  0  0  0  0  0  0  0  0
    2.8073   -3.2176   -1.9003 H   0  0  0  0  0  0  0  0  0  0  0  0
    4.5006   -3.6496   -2.1794 H   0  0  0  0  0  0  0  0  0  0  0  0
    5.2498   -4.1677    3.5637 H   0  0  0  0  0  0  0  0  0  0  0  0
    3.5529   -5.4332    1.4133 H   0  0  0  0  0  0  0  0  0  0  0  0
    2.8103   -4.5152    4.2116 H   0  0  0  0  0  0  0  0  0  0  0  0
    2.3635   -3.7776    2.7246 H   0  0  0  0  0  0  0  0  0  0  0  0
    0.6308   -5.0931    2.4579 H   0  0  0  0  0  0  0  0  0  0  0  0
    1.6502   -6.4844    2.3504 H   0  0  0  0  0  0  0  0  0  0  0  0
    0.1847   -5.3427    4.7263 H   0  0  0  0  0  0  0  0  0  0  0  0
   -1.4269   -6.6747    4.1217 H   0  0  0  0  0  0  0  0  0  0  0  0
    0.2301   -8.2264    2.0755 H   0  0  0  0  0  0  0  0  0  0  0  0
   -0.8116   -6.8414    1.7448 H   0  0  0  0  0  0  0  0  0  0  0  0
   -1.4992   -8.3462    2.3220 H   0  0  0  0  0  0  0  0  0  0  0  0
   -1.4291   -8.6700    5.2206 H   0  0  0  0  0  0  0  0  0  0  0  0
   -0.3144  -10.2752    4.6513 H   0  0  0  0  0  0  0  0  0  0  0  0
   -0.4118   -7.0643    6.3535 H   0  0  0  0  0  0  0  0  0  0  0  0
  1  2  1  0
  1 35  1  0
  1 36  1  0
  1 37  1  0
  2  8  1  0
  2  3  1  0
  2 38  1  6
  3  4  1  0
  4 34  1  0
  4  5  1  1
  4  6  1  0
  5 39  1  0
  5 40  1  0
  5 41  1  0
  6  7  1  0
  6 42  1  0
  6 43  1  0
  7  8  1  0
  7 44  1  0
  7 45  1  0
  8  9  1  0
  8 46  1  6
  9 28  1  0
  9 33  1  0
  9 10  1  6
 10 11  1  0
 10 47  1  0
 10 48  1  0
 11 12  1  0
 11 49  1  0
 11 50  1  0
 12 25  1  0
 12 13  1  0
 12 51  1  6
 13 14  1  0
 13 15  1  0
 13 52  1  1
 14 53  1  0
 14 54  1  0
 14 55  1  0
 15 24  1  0
 15 16  1  0
 15 56  1  1
 16 17  1  0
 16 57  1  0
 16 58  1  0
 17 18  1  0
 17 59  1  0
 17 60  1  0
 18 22  1  6
 18 19  1  0
 18 23  1  0
 19 20  1  0
 19 61  1  0
 19 62  1  0
 20 21  1  0
 20 63  1  0
 20 64  1  0
 21 22  1  0
 21 65  1  0
 21 66  1  0
 23 24  1  0
 24 25  1  0
 24 67  1  1
 25 26  1  0
 25 68  1  6
 26 27  1  0
 26 69  1  0
 26 70  1  0
 27 28  1  0
 27 71  1  0
 27 72  1  0
 28 29  1  0
 28 73  1  1
 29 30  1  0
 29 31  1  0
 29 74  1  1
 30 75  1  0
 30 76  1  0
 30 77  1  0
 31 32  1  0
 31 33  1  0
 31 78  1  1
 32 79  1  0
 33 34  1  0
 33 80  1  1
M  END
>  <i_m_ct_stereo_status>  (321) 
1

>  <s_m_source_file>  (321) 
/var/tmp/pbs.5076255.sched01/tmph7d3_0rd/117btfl79hs.sdf

>  <i_m_source_file_index>  (321) 
27

>  <i_lp_mmshare_version>  (321) 
48012

>  <i_f3d_flags>  (321) 
0

>  <s_epik_input>  (321) 
W0NAQF0xMjNbQ0BIXTRbQ0BIXShbQ0gzXSlPW0NAXShbQ0gzXSkoW0NIMl1bQ0gyXTQpT1tDQEBIXTNbQ0BIXShbT0hdKVtDQEhdKFtDSDNdKVtDQEBIXTJbQ0gyXVtDSDJdW0NAQEhdNVtDQEhdKFtDSDJdW0NIMl0xKVtDQEBIXShbQ0gzXSlbQ0BASF02W0NASF01T1tDQF03KFtDSDJdW0NIMl02KVtDSDJdW0NIMl1bQ0gyXU83

>  <s_epik_cmdline>  (321) 
J2VwaWtfcHl0aG9uJywgJy1waHQnLCAnMi4wJywgJy1waCcsICc3LjAnLCAnLXRuJywgJzgnLCAnLW1hJywgJzIwMCcsICctaW1hZScsICc8aW5maWxlLm1hZT4nLCAnLW9tYWUnLCAnPG91dGZpbGUubWFlPic=

>  <r_lp_tautomer_probability>  (321) 
1

>  <r_epik_Ionization_Penalty>  (321) 
1.50449e-07

>  <r_epik_Ionization_Penalty_Charging>  (321) 
0

>  <r_epik_Ionization_Penalty_Neutral>  (321) 
1.50449e-07

>  <r_epik_State_Penalty>  (321) 
-0

>  <r_epik_Charging_Adjusted_Penalty>  (321) 
0

>  <i_epik_Tot_Q>  (321) 
0

>  <i_epik_Tot_abs_Q>  (321) 
0

>  <s_lp_Force_Field>  (321) 
OPLS3e

>  <r_lp_Energy>  (321) 
87.2531

>  <b_lp_Chiralities_Consistent>  (321) 
1

>  <s_lp_Variant>  (321) 
107:0-1

>  <s_i_glide_gridfile>  (321) 
pfpi4k_grid

>  <i_i_glide_lignum>  (321) 
27

>  <i_i_glide_rotatable_bonds>  (321) 
1

>  <r_i_docking_score>  (321) 
-2.30376

>  <r_i_glide_ligand_efficiency>  (321) 
-0.0677577

>  <r_i_glide_ligand_efficiency_sa>  (321) 
-0.219509

>  <r_i_glide_ligand_efficiency_ln>  (321) 
-0.508965

>  <r_i_glide_gscore>  (321) 
-2.30376

>  <r_i_glide_lipo>  (321) 
-0.367138

>  <r_i_glide_hbond>  (321) 
0

>  <r_i_glide_metal>  (321) 
-0

>  <r_i_glide_rewards>  (321) 
-0.214489

>  <r_i_glide_evdw>  (321) 
-30.6565

>  <r_i_glide_ecoul>  (321) 
-1.13093

>  <r_i_glide_erotb>  (321) 
0

>  <r_i_glide_esite>  (321) 
-0.0196709

>  <r_i_glide_emodel>  (321) 
-35.4546

>  <r_i_glide_energy>  (321) 
-31.7874

>  <r_i_glide_einternal>  (321) 
1.41825

>  <r_i_glide_intrahb_reward>  (321) 
-0

>  <i_i_glide_confnum>  (321) 
6

>  <i_i_glide_posenum>  (321) 
19

>  <r_i_glide_eff_state_penalty>  (321) 
0

>  <ligand_id>  (321) 
107

>  <original_smiles>  (321) 
CC1OC2(C)CCC1C13CCC4C(C)C5CCC6(CCCO6)OC5C4CCC1C(C)C(O)C3O2

>  <smiles>  (321) 
[H]OC1([H])C2([H])OC3(C([H])([H])[H])OC([H])(C([H])([H])[H])C([H])(C([H])([H])C3([H])[H])C23C([H])([H])C([H])([H])C2([H])C([H])(C([H])([H])C([H])([H])C3([H])C1([H])C([H])([H])[H])C1([H])OC3(OC([H])([H])C([H])([H])C3([H])[H])C([H])([H])C([H])([H])C1([H])C2([H])C([H])([H])[H]

$$$$
107:0:1
     RDKit          3D

 80 86  0  0  1  0  0  0  0  0999 V2000
   -1.5489   -7.8662    2.9519 C   0  0  0  0  0  0  0  0  0  0  0  0
   -0.1078   -8.2374    3.3291 C   0  0  2  0  0  0  0  0  0  0  0  0
   -0.1637   -9.0230    4.5311 O   0  0  0  0  0  0  0  0  0  0  0  0
    0.6445   -8.6687    5.6406 C   0  0  2  0  0  0  0  0  0  0  0  0
    0.1967   -9.5699    6.7906 C   0  0  0  0  0  0  0  0  0  0  0  0
    0.4373   -7.1838    6.0049 C   0  0  0  0  0  0  0  0  0  0  0  0
    0.4160   -6.2937    4.7614 C   0  0  0  0  0  0  0  0  0  0  0  0
    0.8625   -7.0260    3.4659 C   0  0  1  0  0  0  0  0  0  0  0  0
    2.4043   -7.4110    3.4282 C   0  0  2  0  0  0  0  0  0  0  0  0
    3.3045   -6.2810    4.0493 C   0  0  0  0  0  0  0  0  0  0  0  0
    3.0454   -4.7891    3.6590 C   0  0  0  0  0  0  0  0  0  0  0  0
    4.0027   -4.0953    2.6569 C   0  0  2  0  0  0  0  0  0  0  0  0
    3.9872   -2.5523    2.8693 C   0  0  1  0  0  0  0  0  0  0  0  0
    5.2124   -2.0182    3.6204 C   0  0  0  0  0  0  0  0  0  0  0  0
    3.7265   -1.8937    1.5009 C   0  0  1  0  0  0  0  0  0  0  0  0
    4.9765   -1.4840    0.7123 C   0  0  0  0  0  0  0  0  0  0  0  0
    4.5556   -1.1010   -0.7019 C   0  0  0  0  0  0  0  0  0  0  0  0
    3.9182   -2.3310   -1.3879 C   0  0  1  0  0  0  0  0  0  0  0  0
    3.4262   -2.0116   -2.8036 C   0  0  0  0  0  0  0  0  0  0  0  0
    4.5584   -2.4900   -3.6922 C   0  0  0  0  0  0  0  0  0  0  0  0
    5.6067   -3.0572   -2.7356 C   0  0  0  0  0  0  0  0  0  0  0  0
    4.8746   -3.3314   -1.5568 O   0  0  0  0  0  0  0  0  0  0  0  0
    2.8149   -2.7707   -0.6487 O   0  0  0  0  0  0  0  0  0  0  0  0
    2.9523   -2.9825    0.7578 C   0  0  1  0  0  0  0  0  0  0  0  0
    3.6470   -4.2823    1.1608 C   0  0  2  0  0  0  0  0  0  0  0  0
    2.8730   -5.5530    0.7763 C   0  0  0  0  0  0  0  0  0  0  0  0
    3.6778   -6.8105    1.1254 C   0  0  0  0  0  0  0  0  0  0  0  0
    3.0361   -7.8675    2.0614 C   0  0  1  0  0  0  0  0  0  0  0  0
    4.0401   -9.0462    2.3889 C   0  0  1  0  0  0  0  0  0  0  0  0
    5.5166   -8.9091    1.9479 C   0  0  0  0  0  0  0  0  0  0  0  0
    3.8923   -9.3824    3.8866 C   0  0  1  0  0  0  0  0  0  0  0  0
    4.8776   -8.7872    4.7070 O   0  0  0  0  0  0  0  0  0  0  0  0
    2.5287   -8.7839    4.1556 C   0  0  1  0  0  0  0  0  0  0  0  0
    2.0242   -8.8924    5.4770 O   0  0  0  0  0  0  0  0  0  0  0  0
   -1.5715   -7.2090    2.0850 H   0  0  0  0  0  0  0  0  0  0  0  0
   -2.0736   -7.3706    3.7646 H   0  0  0  0  0  0  0  0  0  0  0  0
   -2.1191   -8.7597    2.7029 H   0  0  0  0  0  0  0  0  0  0  0  0
    0.2364   -8.8760    2.5155 H   0  0  0  0  0  0  0  0  0  0  0  0
    0.3683  -10.6077    6.5092 H   0  0  0  0  0  0  0  0  0  0  0  0
   -0.8673   -9.4423    6.9862 H   0  0  0  0  0  0  0  0  0  0  0  0
    0.7647   -9.3436    7.6941 H   0  0  0  0  0  0  0  0  0  0  0  0
   -0.5067   -7.0591    6.5319 H   0  0  0  0  0  0  0  0  0  0  0  0
    1.2247   -6.8845    6.7002 H   0  0  0  0  0  0  0  0  0  0  0  0
   -0.6021   -5.9375    4.6238 H   0  0  0  0  0  0  0  0  0  0  0  0
    0.9643   -5.3888    4.9903 H   0  0  0  0  0  0  0  0  0  0  0  0
    0.6557   -6.3563    2.6397 H   0  0  0  0  0  0  0  0  0  0  0  0
    3.1965   -6.3516    5.1337 H   0  0  0  0  0  0  0  0  0  0  0  0
    4.3588   -6.4909    3.8762 H   0  0  0  0  0  0  0  0  0  0  0  0
    2.0237   -4.6023    3.3328 H   0  0  0  0  0  0  0  0  0  0  0  0
    3.1410   -4.2451    4.5993 H   0  0  0  0  0  0  0  0  0  0  0  0
    5.0130   -4.4738    2.8224 H   0  0  0  0  0  0  0  0  0  0  0  0
    3.1164   -2.3022    3.4772 H   0  0  0  0  0  0  0  0  0  0  0  0
    6.1309   -2.2472    3.0779 H   0  0  0  0  0  0  0  0  0  0  0  0
    5.2860   -2.4751    4.6072 H   0  0  0  0  0  0  0  0  0  0  0  0
    5.1601   -0.9370    3.7520 H   0  0  0  0  0  0  0  0  0  0  0  0
    3.1043   -1.0065    1.6213 H   0  0  0  0  0  0  0  0  0  0  0  0
    5.4614   -0.6301    1.1794 H   0  0  0  0  0  0  0  0  0  0  0  0
    5.7077   -2.2885    0.6861 H   0  0  0  0  0  0  0  0  0  0  0  0
    3.8236   -0.2962   -0.6519 H   0  0  0  0  0  0  0  0  0  0  0  0
    5.4060   -0.7357   -1.2766 H   0  0  0  0  0  0  0  0  0  0  0  0
    2.5130   -2.5677   -3.0236 H   0  0  0  0  0  0  0  0  0  0  0  0
    3.2003   -0.9511   -2.9114 H   0  0  0  0  0  0  0  0  0  0  0  0
    4.1906   -3.2665   -4.3635 H   0  0  0  0  0  0  0  0  0  0  0  0
    4.9595   -1.6755   -4.2964 H   0  0  0  0  0  0  0  0  0  0  0  0
    6.0911   -3.9488   -3.1310 H   0  0  0  0  0  0  0  0  0  0  0  0
    6.3754   -2.3183   -2.5099 H   0  0  0  0  0  0  0  0  0  0  0  0
    1.9396   -3.0040    1.1652 H   0  0  0  0  0  0  0  0  0  0  0  0
    4.5965   -4.3270    0.6297 H   0  0  0  0  0  0  0  0  0  0  0  0
    1.8794   -5.5548    1.2018 H   0  0  0  0  0  0  0  0  0  0  0  0
    2.7115   -5.5336   -0.3019 H   0  0  0  0  0  0  0  0  0  0  0  0
    3.9149   -7.3072    0.1850 H   0  0  0  0  0  0  0  0  0  0  0  0
    4.6452   -6.5072    1.5201 H   0  0  0  0  0  0  0  0  0  0  0  0
    2.2257   -8.3193    1.4891 H   0  0  0  0  0  0  0  0  0  0  0  0
    3.6574   -9.9112    1.8432 H   0  0  0  0  0  0  0  0  0  0  0  0
    6.0183   -8.0592    2.4163 H   0  0  0  0  0  0  0  0  0  0  0  0
    5.5995   -8.8008    0.8668 H   0  0  0  0  0  0  0  0  0  0  0  0
    6.0774   -9.8028    2.2226 H   0  0  0  0  0  0  0  0  0  0  0  0
    3.9037  -10.4597    4.0592 H   0  0  0  0  0  0  0  0  0  0  0  0
    4.6743   -9.0143    5.6010 H   0  0  0  0  0  0  0  0  0  0  0  0
    1.9399   -9.5342    3.6278 H   0  0  0  0  0  0  0  0  0  0  0  0
  1  2  1  0
  1 35  1  0
  1 36  1  0
  1 37  1  0
  2  8  1  0
  2  3  1  0
  2 38  1  6
  3  4  1  0
  4 34  1  0
  4  5  1  1
  4  6  1  0
  5 39  1  0
  5 40  1  0
  5 41  1  0
  6  7  1  0
  6 42  1  0
  6 43  1  0
  7  8  1  0
  7 44  1  0
  7 45  1  0
  8  9  1  0
  8 46  1  6
  9 28  1  0
  9 33  1  0
  9 10  1  1
 10 11  1  0
 10 47  1  0
 10 48  1  0
 11 12  1  0
 11 49  1  0
 11 50  1  0
 12 25  1  0
 12 13  1  0
 12 51  1  6
 13 14  1  0
 13 15  1  0
 13 52  1  1
 14 53  1  0
 14 54  1  0
 14 55  1  0
 15 24  1  0
 15 16  1  0
 15 56  1  1
 16 17  1  0
 16 57  1  0
 16 58  1  0
 17 18  1  0
 17 59  1  0
 17 60  1  0
 18 22  1  6
 18 19  1  0
 18 23  1  0
 19 20  1  0
 19 61  1  0
 19 62  1  0
 20 21  1  0
 20 63  1  0
 20 64  1  0
 21 22  1  0
 21 65  1  0
 21 66  1  0
 23 24  1  0
 24 25  1  0
 24 67  1  1
 25 26  1  0
 25 68  1  6
 26 27  1  0
 26 69  1  0
 26 70  1  0
 27 28  1  0
 27 71  1  0
 27 72  1  0
 28 29  1  0
 28 73  1  6
 29 30  1  0
 29 31  1  0
 29 74  1  6
 30 75  1  0
 30 76  1  0
 30 77  1  0
 31 32  1  0
 31 33  1  0
 31 78  1  6
 32 79  1  0
 33 34  1  0
 33 80  1  6
M  END
>  <i_m_ct_stereo_status>  (322) 
1

>  <s_m_source_file>  (322) 
/var/tmp/pbs.5076255.sched01/tmph7d3_0rd/117btfl79hs.sdf

>  <i_m_source_file_index>  (322) 
27

>  <i_lp_mmshare_version>  (322) 
48012

>  <i_f3d_flags>  (322) 
0

>  <s_epik_input>  (322) 
W0NAQF0xMjNbQ0BIXTRbQ0BIXShbQ0gzXSlPW0NAXShbQ0gzXSkoW0NIMl1bQ0gyXTQpT1tDQEBIXTNbQ0BIXShbT0hdKVtDQEhdKFtDSDNdKVtDQEBIXTJbQ0gyXVtDSDJdW0NAQEhdNVtDQEhdKFtDSDJdW0NIMl0xKVtDQEBIXShbQ0gzXSlbQ0BASF02W0NASF01T1tDQF03KFtDSDJdW0NIMl02KVtDSDJdW0NIMl1bQ0gyXU83

>  <s_epik_cmdline>  (322) 
J2VwaWtfcHl0aG9uJywgJy1waHQnLCAnMi4wJywgJy1waCcsICc3LjAnLCAnLXRuJywgJzgnLCAnLW1hJywgJzIwMCcsICctaW1hZScsICc8aW5maWxlLm1hZT4nLCAnLW9tYWUnLCAnPG91dGZpbGUubWFlPic=

>  <r_lp_tautomer_probability>  (322) 
1

>  <r_epik_Ionization_Penalty>  (322) 
1.50449e-07

>  <r_epik_Ionization_Penalty_Charging>  (322) 
0

>  <r_epik_Ionization_Penalty_Neutral>  (322) 
1.50449e-07

>  <r_epik_State_Penalty>  (322) 
-0

>  <r_epik_Charging_Adjusted_Penalty>  (322) 
0

>  <i_epik_Tot_Q>  (322) 
0

>  <i_epik_Tot_abs_Q>  (322) 
0

>  <s_lp_Force_Field>  (322) 
OPLS3e

>  <r_lp_Energy>  (322) 
87.2531

>  <b_lp_Chiralities_Consistent>  (322) 
1

>  <s_lp_Variant>  (322) 
107:0-1

>  <s_i_glide_gridfile>  (322) 
pfpi4k_grid

>  <i_i_glide_lignum>  (322) 
27

>  <i_i_glide_rotatable_bonds>  (322) 
1

>  <r_i_docking_score>  (322) 
-2.14332

>  <r_i_glide_ligand_efficiency>  (322) 
-0.0630387

>  <r_i_glide_ligand_efficiency_sa>  (322) 
-0.204221

>  <r_i_glide_ligand_efficiency_ln>  (322) 
-0.473518

>  <r_i_glide_gscore>  (322) 
-2.14332

>  <r_i_glide_lipo>  (322) 
-0.4624

>  <r_i_glide_hbond>  (322) 
0

>  <r_i_glide_metal>  (322) 
-0

>  <r_i_glide_rewards>  (322) 
-0.172687

>  <r_i_glide_evdw>  (322) 
-35.9181

>  <r_i_glide_ecoul>  (322) 
2.38783

>  <r_i_glide_erotb>  (322) 
0

>  <r_i_glide_esite>  (322) 
-0.0704977

>  <r_i_glide_emodel>  (322) 
-37.5768

>  <r_i_glide_energy>  (322) 
-33.5303

>  <r_i_glide_einternal>  (322) 
0.312438

>  <r_i_glide_intrahb_reward>  (322) 
-0

>  <i_i_glide_confnum>  (322) 
2

>  <i_i_glide_posenum>  (322) 
12

>  <r_i_glide_eff_state_penalty>  (322) 
0

>  <ligand_id>  (322) 
107

>  <original_smiles>  (322) 
CC1OC2(C)CCC1C13CCC4C(C)C5CCC6(CCCO6)OC5C4CCC1C(C)C(O)C3O2

>  <smiles>  (322) 
[H]OC1([H])C2([H])OC3(C([H])([H])[H])OC([H])(C([H])([H])[H])C([H])(C([H])([H])C3([H])[H])C23C([H])([H])C([H])([H])C2([H])C([H])(C([H])([H])C([H])([H])C3([H])C1([H])C([H])([H])[H])C1([H])OC3(OC([H])([H])C([H])([H])C3([H])[H])C([H])([H])C([H])([H])C1([H])C2([H])C([H])([H])[H]

$$$$
107:0:2
     RDKit          3D

 80 86  0  0  1  0  0  0  0  0999 V2000
   -1.4695   -7.7835    3.4926 C   0  0  0  0  0  0  0  0  0  0  0  0
   -0.0074   -8.1237    3.8203 C   0  0  2  0  0  0  0  0  0  0  0  0
    0.0045   -8.8095    5.0813 O   0  0  0  0  0  0  0  0  0  0  0  0
    0.8730   -8.3790    6.1114 C   0  0  2  0  0  0  0  0  0  0  0  0
    0.4978   -9.1859    7.3558 C   0  0  0  0  0  0  0  0  0  0  0  0
    0.6715   -6.8743    6.3809 C   0  0  0  0  0  0  0  0  0  0  0  0
    0.5787   -6.0793    5.0770 C   0  0  0  0  0  0  0  0  0  0  0  0
    0.9611   -6.9056    3.8159 C   0  0  1  0  0  0  0  0  0  0  0  0
    2.4988   -7.2850    3.7180 C   0  0  2  0  0  0  0  0  0  0  0  0
    3.4257   -6.1076    4.1955 C   0  0  0  0  0  0  0  0  0  0  0  0
    3.1384   -4.6510    3.7069 C   0  0  0  0  0  0  0  0  0  0  0  0
    4.0374   -4.0372    2.6026 C   0  0  2  0  0  0  0  0  0  0  0  0
    4.0266   -2.4825    2.6921 C   0  0  1  0  0  0  0  0  0  0  0  0
    5.2895   -1.8884    3.3340 C   0  0  0  0  0  0  0  0  0  0  0  0
    3.6804   -1.9367    1.2939 C   0  0  1  0  0  0  0  0  0  0  0  0
    4.8878   -1.5905    0.4164 C   0  0  0  0  0  0  0  0  0  0  0  0
    4.3856   -1.3216   -0.9923 C   0  0  0  0  0  0  0  0  0  0  0  0
    3.7235   -2.5917   -1.5608 C   0  0  1  0  0  0  0  0  0  0  0  0
    3.1379   -2.3815   -2.9667 C   0  0  0  0  0  0  0  0  0  0  0  0
    4.2185   -2.9141   -3.8879 C   0  0  0  0  0  0  0  0  0  0  0  0
    5.3188   -3.3968   -2.9500 C   0  0  0  0  0  0  0  0  0  0  0  0
    4.6722   -3.5890   -1.7087 O   0  0  0  0  0  0  0  0  0  0  0  0
    2.6790   -3.0007   -0.7302 O   0  0  0  0  0  0  0  0  0  0  0  0
    2.8757   -3.0826    0.6833 C   0  0  1  0  0  0  0  0  0  0  0  0
    3.5990   -4.3432    1.1495 C   0  0  2  0  0  0  0  0  0  0  0  0
    2.8111   -5.6402    0.9089 C   0  0  0  0  0  0  0  0  0  0  0  0
    3.6384   -6.8674    1.3057 C   0  0  0  0  0  0  0  0  0  0  0  0
    3.0590   -7.8477    2.3570 C   0  0  1  0  0  0  0  0  0  0  0  0
    4.0899   -8.9911    2.7172 C   0  0  1  0  0  0  0  0  0  0  0  0
    5.5378   -8.8873    2.1769 C   0  0  0  0  0  0  0  0  0  0  0  0
    4.0232   -9.2018    4.2452 C   0  0  1  0  0  0  0  0  0  0  0  0
    5.0658   -8.5350    4.9280 O   0  0  0  0  0  0  0  0  0  0  0  0
    2.6713   -8.5908    4.5486 C   0  0  1  0  0  0  0  0  0  0  0  0
    2.2413   -8.6106    5.8987 O   0  0  0  0  0  0  0  0  0  0  0  0
   -1.5522   -7.2021    2.5749 H   0  0  0  0  0  0  0  0  0  0  0  0
   -1.9501   -7.2277    4.2937 H   0  0  0  0  0  0  0  0  0  0  0  0
   -2.0459   -8.6962    3.3541 H   0  0  0  0  0  0  0  0  0  0  0  0
    0.2981   -8.8240    3.0443 H   0  0  0  0  0  0  0  0  0  0  0  0
    0.6679  -10.2446    7.1654 H   0  0  0  0  0  0  0  0  0  0  0  0
   -0.5536   -9.0506    7.6049 H   0  0  0  0  0  0  0  0  0  0  0  0
    1.1122   -8.8840    8.2052 H   0  0  0  0  0  0  0  0  0  0  0  0
   -0.2392   -6.7235    6.9626 H   0  0  0  0  0  0  0  0  0  0  0  0
    1.4965   -6.5216    7.0026 H   0  0  0  0  0  0  0  0  0  0  0  0
   -0.4466   -5.7337    4.9641 H   0  0  0  0  0  0  0  0  0  0  0  0
    1.1362   -5.1595    5.2036 H   0  0  0  0  0  0  0  0  0  0  0  0
    0.7065   -6.3006    2.9547 H   0  0  0  0  0  0  0  0  0  0  0  0
    3.3821   -6.0967    5.2876 H   0  0  0  0  0  0  0  0  0  0  0  0
    4.4716   -6.3247    3.9783 H   0  0  0  0  0  0  0  0  0  0  0  0
    2.0978   -4.4931    3.4268 H   0  0  0  0  0  0  0  0  0  0  0  0
    3.2838   -4.0375    4.5973 H   0  0  0  0  0  0  0  0  0  0  0  0
    5.0568   -4.4002    2.7433 H   0  0  0  0  0  0  0  0  0  0  0  0
    3.1932   -2.1871    3.3308 H   0  0  0  0  0  0  0  0  0  0  0  0
    6.1901   -2.1562    2.7778 H   0  0  0  0  0  0  0  0  0  0  0  0
    5.4078   -2.2641    4.3515 H   0  0  0  0  0  0  0  0  0  0  0  0
    5.2386   -0.7996    3.3852 H   0  0  0  0  0  0  0  0  0  0  0  0
    3.0634   -1.0405    1.3848 H   0  0  0  0  0  0  0  0  0  0  0  0
    5.3799   -0.6954    0.7806 H   0  0  0  0  0  0  0  0  0  0  0  0
    5.6275   -2.3906    0.4202 H   0  0  0  0  0  0  0  0  0  0  0  0
    3.6431   -0.5314   -0.9665 H   0  0  0  0  0  0  0  0  0  0  0  0
    5.1939   -0.9722   -1.6317 H   0  0  0  0  0  0  0  0  0  0  0  0
    2.2213   -2.9566   -3.0888 H   0  0  0  0  0  0  0  0  0  0  0  0
    2.8976   -1.3284   -3.1312 H   0  0  0  0  0  0  0  0  0  0  0  0
    3.8252   -3.7407   -4.4785 H   0  0  0  0  0  0  0  0  0  0  0  0
    4.5853   -2.1411   -4.5615 H   0  0  0  0  0  0  0  0  0  0  0  0
    5.7798   -4.3067   -3.3052 H   0  0  0  0  0  0  0  0  0  0  0  0
    6.1199   -2.6653   -2.8530 H   0  0  0  0  0  0  0  0  0  0  0  0
    1.8871   -3.0697    1.1531 H   0  0  0  0  0  0  0  0  0  0  0  0
    4.5180   -4.4229    0.5715 H   0  0  0  0  0  0  0  0  0  0  0  0
    1.8407   -5.6091    1.3858 H   0  0  0  0  0  0  0  0  0  0  0  0
    2.5924   -5.7014   -0.1579 H   0  0  0  0  0  0  0  0  0  0  0  0
    3.8214   -7.4377    0.3965 H   0  0  0  0  0  0  0  0  0  0  0  0
    4.6254   -6.5300    1.6166 H   0  0  0  0  0  0  0  0  0  0  0  0
    2.2204   -8.3426    1.8668 H   0  0  0  0  0  0  0  0  0  0  0  0
    3.6817   -9.8953    2.2626 H   0  0  0  0  0  0  0  0  0  0  0  0
    6.0592   -8.0020    2.5435 H   0  0  0  0  0  0  0  0  0  0  0  0
    5.5569   -8.8627    1.0875 H   0  0  0  0  0  0  0  0  0  0  0  0
    6.1219   -9.7552    2.4829 H   0  0  0  0  0  0  0  0  0  0  0  0
    4.0675  -10.2608    4.5100 H   0  0  0  0  0  0  0  0  0  0  0  0
    5.8751   -8.9849    4.7505 H   0  0  0  0  0  0  0  0  0  0  0  0
    2.0711   -9.3826    4.1016 H   0  0  0  0  0  0  0  0  0  0  0  0
  1  2  1  0
  1 35  1  0
  1 36  1  0
  1 37  1  0
  2  8  1  0
  2  3  1  0
  2 38  1  6
  3  4  1  0
  4 34  1  0
  4  5  1  1
  4  6  1  0
  5 39  1  0
  5 40  1  0
  5 41  1  0
  6  7  1  0
  6 42  1  0
  6 43  1  0
  7  8  1  0
  7 44  1  0
  7 45  1  0
  8  9  1  0
  8 46  1  6
  9 28  1  0
  9 33  1  0
  9 10  1  1
 10 11  1  0
 10 47  1  0
 10 48  1  0
 11 12  1  0
 11 49  1  0
 11 50  1  0
 12 25  1  0
 12 13  1  0
 12 51  1  1
 13 14  1  0
 13 15  1  0
 13 52  1  1
 14 53  1  0
 14 54  1  0
 14 55  1  0
 15 24  1  0
 15 16  1  0
 15 56  1  1
 16 17  1  0
 16 57  1  0
 16 58  1  0
 17 18  1  0
 17 59  1  0
 17 60  1  0
 18 22  1  6
 18 19  1  0
 18 23  1  0
 19 20  1  0
 19 61  1  0
 19 62  1  0
 20 21  1  0
 20 63  1  0
 20 64  1  0
 21 22  1  0
 21 65  1  0
 21 66  1  0
 23 24  1  0
 24 25  1  0
 24 67  1  1
 25 26  1  0
 25 68  1  6
 26 27  1  0
 26 69  1  0
 26 70  1  0
 27 28  1  0
 27 71  1  0
 27 72  1  0
 28 29  1  0
 28 73  1  6
 29 30  1  0
 29 31  1  0
 29 74  1  6
 30 75  1  0
 30 76  1  0
 30 77  1  0
 31 32  1  0
 31 33  1  0
 31 78  1  6
 32 79  1  0
 33 34  1  0
 33 80  1  6
M  END
>  <i_m_ct_stereo_status>  (323) 
1

>  <s_m_source_file>  (323) 
/var/tmp/pbs.5076255.sched01/tmph7d3_0rd/117btfl79hs.sdf

>  <i_m_source_file_index>  (323) 
27

>  <i_lp_mmshare_version>  (323) 
48012

>  <i_f3d_flags>  (323) 
0

>  <s_epik_input>  (323) 
W0NAQF0xMjNbQ0BIXTRbQ0BIXShbQ0gzXSlPW0NAXShbQ0gzXSkoW0NIMl1bQ0gyXTQpT1tDQEBIXTNbQ0BIXShbT0hdKVtDQEhdKFtDSDNdKVtDQEBIXTJbQ0gyXVtDSDJdW0NAQEhdNVtDQEhdKFtDSDJdW0NIMl0xKVtDQEBIXShbQ0gzXSlbQ0BASF02W0NASF01T1tDQF03KFtDSDJdW0NIMl02KVtDSDJdW0NIMl1bQ0gyXU83

>  <s_epik_cmdline>  (323) 
J2VwaWtfcHl0aG9uJywgJy1waHQnLCAnMi4wJywgJy1waCcsICc3LjAnLCAnLXRuJywgJzgnLCAnLW1hJywgJzIwMCcsICctaW1hZScsICc8aW5maWxlLm1hZT4nLCAnLW9tYWUnLCAnPG91dGZpbGUubWFlPic=

>  <r_lp_tautomer_probability>  (323) 
1

>  <r_epik_Ionization_Penalty>  (323) 
1.50449e-07

>  <r_epik_Ionization_Penalty_Charging>  (323) 
0

>  <r_epik_Ionization_Penalty_Neutral>  (323) 
1.50449e-07

>  <r_epik_State_Penalty>  (323) 
-0

>  <r_epik_Charging_Adjusted_Penalty>  (323) 
0

>  <i_epik_Tot_Q>  (323) 
0

>  <i_epik_Tot_abs_Q>  (323) 
0

>  <s_lp_Force_Field>  (323) 
OPLS3e

>  <r_lp_Energy>  (323) 
87.2531

>  <b_lp_Chiralities_Consistent>  (323) 
1

>  <s_lp_Variant>  (323) 
107:0-1

>  <s_i_glide_gridfile>  (323) 
pfpi4k_grid

>  <i_i_glide_lignum>  (323) 
27

>  <i_i_glide_rotatable_bonds>  (323) 
1

>  <r_i_docking_score>  (323) 
-2.13038

>  <r_i_glide_ligand_efficiency>  (323) 
-0.0626582

>  <r_i_glide_ligand_efficiency_sa>  (323) 
-0.202988

>  <r_i_glide_ligand_efficiency_ln>  (323) 
-0.47066

>  <r_i_glide_gscore>  (323) 
-2.13038

>  <r_i_glide_lipo>  (323) 
-0.467751

>  <r_i_glide_hbond>  (323) 
0

>  <r_i_glide_metal>  (323) 
-0

>  <r_i_glide_rewards>  (323) 
-0.172687

>  <r_i_glide_evdw>  (323) 
-36.3944

>  <r_i_glide_ecoul>  (323) 
2.58272

>  <r_i_glide_erotb>  (323) 
0

>  <r_i_glide_esite>  (323) 
-0.0576309

>  <r_i_glide_emodel>  (323) 
-37.8079

>  <r_i_glide_energy>  (323) 
-33.8116

>  <r_i_glide_einternal>  (323) 
0.311399

>  <r_i_glide_intrahb_reward>  (323) 
-0

>  <i_i_glide_confnum>  (323) 
2

>  <i_i_glide_posenum>  (323) 
3

>  <r_i_glide_eff_state_penalty>  (323) 
0

>  <ligand_id>  (323) 
107

>  <original_smiles>  (323) 
CC1OC2(C)CCC1C13CCC4C(C)C5CCC6(CCCO6)OC5C4CCC1C(C)C(O)C3O2

>  <smiles>  (323) 
[H]OC1([H])C2([H])OC3(C([H])([H])[H])OC([H])(C([H])([H])[H])C([H])(C([H])([H])C3([H])[H])C23C([H])([H])C([H])([H])C2([H])C([H])(C([H])([H])C([H])([H])C3([H])C1([H])C([H])([H])[H])C1([H])OC3(OC([H])([H])C([H])([H])C3([H])[H])C([H])([H])C([H])([H])C1([H])C2([H])C([H])([H])[H]

$$$$
108:0:0
     RDKit          3D

 91 95  0  0  1  0  0  0  0  0999 V2000
    0.6650   -5.6213    8.1569 C   0  0  0  0  0  0  0  0  0  0  0  0
    0.3183   -4.3545    7.2940 C   0  0  2  0  0  0  0  0  0  0  0  0
   -1.1087   -3.9064    7.5840 C   0  0  0  0  0  0  0  0  0  0  0  0
   -1.5050   -3.9583    8.7584 O   0  0  0  0  0  0  0  0  0  0  0  0
   -1.7735   -3.3905    6.6616 O   0  0  0  0  0  0  0  0  0  0  0  0
    0.6075   -4.5161    5.7503 C   0  0  2  0  0  0  0  0  0  0  0  0
    0.3855   -5.9441    5.1785 C   0  0  0  0  0  0  0  0  0  0  0  0
    1.3286   -6.0528    4.0004 C   0  0  0  0  0  0  0  0  0  0  0  0
    1.5135   -7.0446    3.1911 N   0  0  0  0  0  0  0  0  0  0  0  0
    0.6214   -8.0627    3.5056 N   0  0  0  0  0  0  0  0  0  0  0  0
    0.7656   -9.3247    2.9855 C   0  0  0  0  0  0  0  0  0  0  0  0
    1.8096   -9.6460    2.2214 N   0  0  0  0  0  0  0  0  0  0  0  0
   -0.1736  -10.2729    3.2602 N   0  0  0  0  0  0  0  0  0  0  0  0
    2.2109   -4.8103    3.9173 C   0  0  0  0  0  0  0  0  0  0  0  0
    2.0213   -4.0185    5.2518 C   0  0  1  0  0  0  0  0  0  0  0  0
    2.0078   -2.4795    4.9700 C   0  0  0  0  0  0  0  0  0  0  0  0
    3.1003   -4.4184    6.3578 C   0  0  2  0  0  0  0  0  0  0  0  0
    3.1243   -3.4312    7.5872 C   0  0  0  0  0  0  0  0  0  0  0  0
    4.5316   -3.0976    7.9304 C   0  0  0  0  0  0  0  0  0  0  0  0
    5.2709   -4.3556    7.4520 C   0  0  2  0  0  0  0  0  0  0  0  0
    5.0095   -5.3967    8.5955 C   0  0  0  0  0  0  0  0  0  0  0  0
    6.8005   -4.1854    7.3207 C   0  0  0  0  0  0  0  0  0  0  0  0
    7.4369   -5.2699    6.4080 C   0  0  0  0  0  0  0  0  0  0  0  0
    6.5393   -6.5032    6.1949 C   0  0  0  0  0  0  0  0  0  0  0  0
    6.9133   -7.7756    6.5291 C   0  0  0  0  0  0  0  0  0  0  0  0
    8.3038   -8.1483    7.0425 C   0  0  0  0  0  0  0  0  0  0  0  0
    8.2210   -8.9348    8.3479 C   0  0  0  0  0  0  0  0  0  0  0  0
    7.4038  -10.2138    8.1501 C   0  0  1  0  0  0  0  0  0  0  0  0
    7.4002  -10.9193    9.3771 O   0  0  0  0  0  0  0  0  0  0  0  0
    5.9605   -9.9576    7.6176 C   0  0  0  0  0  0  0  0  0  0  0  0
    5.3779  -11.3393    7.2262 C   0  0  0  0  0  0  0  0  0  0  0  0
    5.0789   -9.3306    8.7291 C   0  0  0  0  0  0  0  0  0  0  0  0
    6.0241   -9.0284    6.3460 C   0  0  1  0  0  0  0  0  0  0  0  0
    4.6477   -8.7087    5.7140 C   0  0  0  0  0  0  0  0  0  0  0  0
    4.1622   -7.2843    6.0025 C   0  0  0  0  0  0  0  0  0  0  0  0
    5.1555   -6.1607    5.5737 C   0  0  2  0  0  0  0  0  0  0  0  0
    5.3893   -6.3469    4.0325 C   0  0  0  0  0  0  0  0  0  0  0  0
    4.6421   -4.6676    6.0303 C   0  0  1  0  0  0  0  0  0  0  0  0
    5.1116   -3.5839    4.9873 C   0  0  0  0  0  0  0  0  0  0  0  0
    0.6517   -5.3571    9.2074 H   0  0  0  0  0  0  0  0  0  0  0  0
    1.6393   -6.0266    7.9709 H   0  0  0  0  0  0  0  0  0  0  0  0
   -0.0375   -6.4437    8.0447 H   0  0  0  0  0  0  0  0  0  0  0  0
    0.8863   -3.5186    7.6203 H   0  0  0  0  0  0  0  0  0  0  0  0
   -0.0950   -3.8948    5.1886 H   0  0  0  0  0  0  0  0  0  0  0  0
    0.7097   -6.7143    5.8841 H   0  0  0  0  0  0  0  0  0  0  0  0
   -0.6629   -6.1229    4.9041 H   0  0  0  0  0  0  0  0  0  0  0  0
    1.9134  -10.5980    1.8874 H   0  0  0  0  0  0  0  0  0  0  0  0
    2.5342   -8.9799    2.0541 H   0  0  0  0  0  0  0  0  0  0  0  0
   -0.8650  -10.1808    3.9846 H   0  0  0  0  0  0  0  0  0  0  0  0
   -0.1970  -11.0806    2.6591 H   0  0  0  0  0  0  0  0  0  0  0  0
    3.2431   -5.0938    3.7817 H   0  0  0  0  0  0  0  0  0  0  0  0
    1.8912   -4.2064    3.0491 H   0  0  0  0  0  0  0  0  0  0  0  0
    2.9243   -2.1260    4.5052 H   0  0  0  0  0  0  0  0  0  0  0  0
    1.8560   -1.8857    5.8591 H   0  0  0  0  0  0  0  0  0  0  0  0
    1.2351   -2.2190    4.2448 H   0  0  0  0  0  0  0  0  0  0  0  0
    2.8115   -5.3644    6.7164 H   0  0  0  0  0  0  0  0  0  0  0  0
    2.5419   -2.5100    7.4842 H   0  0  0  0  0  0  0  0  0  0  0  0
    2.6534   -3.9629    8.4472 H   0  0  0  0  0  0  0  0  0  0  0  0
    4.8836   -2.2017    7.4137 H   0  0  0  0  0  0  0  0  0  0  0  0
    4.6911   -2.8827    8.9931 H   0  0  0  0  0  0  0  0  0  0  0  0
    5.5999   -6.3093    8.5244 H   0  0  0  0  0  0  0  0  0  0  0  0
    3.9709   -5.7150    8.6723 H   0  0  0  0  0  0  0  0  0  0  0  0
    5.2479   -4.9829    9.5791 H   0  0  0  0  0  0  0  0  0  0  0  0
    7.0252   -3.1957    6.9168 H   0  0  0  0  0  0  0  0  0  0  0  0
    7.2598   -4.2094    8.3180 H   0  0  0  0  0  0  0  0  0  0  0  0
    7.6349   -4.8668    5.4161 H   0  0  0  0  0  0  0  0  0  0  0  0
    8.4327   -5.4671    6.7964 H   0  0  0  0  0  0  0  0  0  0  0  0
    8.7862   -8.7604    6.2768 H   0  0  0  0  0  0  0  0  0  0  0  0
    8.9753   -7.3124    7.1992 H   0  0  0  0  0  0  0  0  0  0  0  0
    9.2301   -9.1852    8.6773 H   0  0  0  0  0  0  0  0  0  0  0  0
    7.7920   -8.3084    9.1309 H   0  0  0  0  0  0  0  0  0  0  0  0
    7.9387  -10.8374    7.4303 H   0  0  0  0  0  0  0  0  0  0  0  0
    6.9335  -11.7269    9.2552 H   0  0  0  0  0  0  0  0  0  0  0  0
    4.3334  -11.2953    6.9214 H   0  0  0  0  0  0  0  0  0  0  0  0
    5.4177  -12.0449    8.0547 H   0  0  0  0  0  0  0  0  0  0  0  0
    5.9404  -11.7818    6.4012 H   0  0  0  0  0  0  0  0  0  0  0  0
    4.0641   -9.1358    8.3859 H   0  0  0  0  0  0  0  0  0  0  0  0
    5.4941   -8.3931    9.0897 H   0  0  0  0  0  0  0  0  0  0  0  0
    4.9906   -9.9897    9.5924 H   0  0  0  0  0  0  0  0  0  0  0  0
    6.5544   -9.6114    5.5870 H   0  0  0  0  0  0  0  0  0  0  0  0
    4.6997   -8.8643    4.6371 H   0  0  0  0  0  0  0  0  0  0  0  0
    3.8777   -9.4110    6.0380 H   0  0  0  0  0  0  0  0  0  0  0  0
    3.2080   -7.1737    5.5056 H   0  0  0  0  0  0  0  0  0  0  0  0
    3.9373   -7.2355    7.0626 H   0  0  0  0  0  0  0  0  0  0  0  0
    4.4794   -6.5232    3.4598 H   0  0  0  0  0  0  0  0  0  0  0  0
    6.0067   -7.2294    3.8373 H   0  0  0  0  0  0  0  0  0  0  0  0
    5.9424   -5.5257    3.5741 H   0  0  0  0  0  0  0  0  0  0  0  0
    6.1762   -3.5935    4.7514 H   0  0  0  0  0  0  0  0  0  0  0  0
    4.9317   -2.5686    5.3473 H   0  0  0  0  0  0  0  0  0  0  0  0
    4.5845   -3.6851    4.0383 H   0  0  0  0  0  0  0  0  0  0  0  0
   -0.1326   -7.8223    4.1097 H   0  0  0  0  0  0  0  0  0  0  0  0
  1  2  1  0
  1 40  1  0
  1 41  1  0
  1 42  1  0
  2  3  1  0
  2  6  1  0
  2 43  1  1
  3  4  2  0
  3  5  1  0
  6 15  1  0
  6  7  1  0
  6 44  1  6
  7  8  1  0
  7 45  1  0
  7 46  1  0
  8  9  2  3
  8 14  1  0
  9 10  1  0
 10 11  1  0
 10 91  1  0
 11 12  1  0
 11 13  2  0
 12 47  1  0
 12 48  1  0
 13 49  1  0
 13 50  1  0
 14 15  1  0
 14 51  1  0
 14 52  1  0
 15 16  1  6
 15 17  1  0
 16 53  1  0
 16 54  1  0
 16 55  1  0
 17 38  1  0
 17 18  1  0
 17 56  1  1
 18 19  1  0
 18 57  1  0
 18 58  1  0
 19 20  1  0
 19 59  1  0
 19 60  1  0
 20 38  1  0
 20 21  1  1
 20 22  1  0
 21 61  1  0
 21 62  1  0
 21 63  1  0
 22 23  1  0
 22 64  1  0
 22 65  1  0
 23 24  1  0
 23 66  1  0
 23 67  1  0
 24 36  1  0
 24 25  2  0
 25 33  1  0
 25 26  1  0
 26 27  1  0
 26 68  1  0
 26 69  1  0
 27 28  1  0
 27 70  1  0
 27 71  1  0
 28 29  1  0
 28 30  1  0
 28 72  1  6
 29 73  1  0
 30 31  1  0
 30 32  1  0
 30 33  1  0
 31 74  1  0
 31 75  1  0
 31 76  1  0
 32 77  1  0
 32 78  1  0
 32 79  1  0
 33 34  1  0
 33 80  1  6
 34 35  1  0
 34 81  1  0
 34 82  1  0
 35 36  1  0
 35 83  1  0
 35 84  1  0
 36 37  1  6
 36 38  1  0
 37 85  1  0
 37 86  1  0
 37 87  1  0
 38 39  1  6
 39 88  1  0
 39 89  1  0
 39 90  1  0
M  CHG  2   5  -1  13   1
M  END
>  <i_m_ct_stereo_status>  (324) 
1

>  <s_m_source_file>  (324) 
/var/tmp/pbs.5076255.sched01/tmph7d3_0rd/117btfl79hs.sdf

>  <i_m_source_file_index>  (324) 
28

>  <i_lp_mmshare_version>  (324) 
48012

>  <i_f3d_flags>  (324) 
0

>  <s_epik_input>  (324) 
W05IMl1DKFtOSDJdKT1OL049QyhbQ0gyXTEpXFtDSDJdW0NAQEhdKFtDQEhdKFtDSDNdKUMoPU8pW09IXSlbQ0BAXTEoW0NIM10pW0NASF0oW0NIMl1bQ0gyXTIpW0NAQF0oW0NIM10pKFtDQF0yM1tDSDNdKVtDQEBdNChbQ0gzXSlDKFtDSDJdW0NIMl0zKT1DNVtDQEhdKFtDSDJdW0NIMl00KUMoW0NIM10pKFtDSDNdKVtDQEhdKFtPSF0pW0NIMl1bQ0gyXTU=

>  <s_epik_cmdline>  (324) 
J2VwaWtfcHl0aG9uJywgJy1waHQnLCAnMi4wJywgJy1waCcsICc3LjAnLCAnLXRuJywgJzgnLCAnLW1hJywgJzIwMCcsICctaW1hZScsICc8aW5maWxlLm1hZT4nLCAnLW9tYWUnLCAnPG91dGZpbGUubWFlPic=

>  <r_epik_Ionization_Penalty>  (324) 
0.300877

>  <r_epik_Ionization_Penalty_Charging>  (324) 
0.300857

>  <r_epik_Ionization_Penalty_Neutral>  (324) 
2.01551e-05

>  <r_epik_State_Penalty>  (324) 
0.292542

>  <r_epik_Charging_Adjusted_Penalty>  (324) 
0.593399

>  <i_epik_Tot_Q>  (324) 
0

>  <i_epik_Tot_abs_Q>  (324) 
2

>  <s_epik_Chemistry_Notes>  (324) 
This compound has an imine and may undergo hydrolysis.

>  <s_lp_Force_Field>  (324) 
OPLS3e

>  <r_lp_Energy>  (324) 
100.02

>  <b_lp_Chiralities_Consistent>  (324) 
1

>  <s_lp_Variant>  (324) 
108:0-1

>  <s_i_glide_gridfile>  (324) 
pfpi4k_grid

>  <i_i_glide_lignum>  (324) 
28

>  <i_i_glide_rotatable_bonds>  (324) 
6

>  <r_i_docking_score>  (324) 
-1.46273

>  <r_i_glide_ligand_efficiency>  (324) 
-0.037506

>  <r_i_glide_ligand_efficiency_sa>  (324) 
-0.127191

>  <r_i_glide_ligand_efficiency_ln>  (324) 
-0.313651

>  <r_i_glide_gscore>  (324) 
-1.46273

>  <r_i_glide_lipo>  (324) 
-0.0418148

>  <r_i_glide_hbond>  (324) 
-0.259856

>  <r_i_glide_metal>  (324) 
-0

>  <r_i_glide_rewards>  (324) 
0

>  <r_i_glide_evdw>  (324) 
-15.4217

>  <r_i_glide_ecoul>  (324) 
-3.71477

>  <r_i_glide_erotb>  (324) 
0.282811

>  <r_i_glide_esite>  (324) 
-0.115574

>  <r_i_glide_emodel>  (324) 
-18.429

>  <r_i_glide_energy>  (324) 
-19.1364

>  <r_i_glide_einternal>  (324) 
3.48145

>  <r_i_glide_intrahb_reward>  (324) 
-0

>  <i_i_glide_confnum>  (324) 
2

>  <i_i_glide_posenum>  (324) 
2

>  <r_i_glide_eff_state_penalty>  (324) 
0

>  <ligand_id>  (324) 
108

>  <original_smiles>  (324) 
CC(C(=O)O)C1CC(=NN=C(N)N)CC1(C)C1CCC2(C)CCC3=C4CCC(O)C(C)(C)C4CCC3(C)C12C

>  <smiles>  (324) 
[H]OC1([H])C([H])([H])C([H])([H])C2=C3C([H])([H])C([H])([H])C4(C([H])([H])[H])C([H])([H])C([H])([H])C([H])(C5(C([H])([H])[H])C([H])([H])C(=NN([H])C(N([H])[H])=[N+]([H])[H])C([H])([H])C5([H])C([H])(C(=O)[O-])C([H])([H])[H])C4(C([H])([H])[H])C3(C([H])([H])[H])C([H])([H])C([H])([H])C2([H])C1(C([H])([H])[H])C([H])([H])[H]

$$$$
108:0:1
     RDKit          3D

 91 95  0  0  1  0  0  0  0  0999 V2000
    4.5709   -5.0797    2.9606 C   0  0  0  0  0  0  0  0  0  0  0  0
    5.6451   -6.0107    2.2452 C   0  0  2  0  0  0  0  0  0  0  0  0
    5.6546   -5.6547    0.7548 C   0  0  0  0  0  0  0  0  0  0  0  0
    4.7608   -6.0758   -0.0120 O   0  0  0  0  0  0  0  0  0  0  0  0
    6.6017   -4.9322    0.3823 O   0  0  0  0  0  0  0  0  0  0  0  0
    5.4755   -7.5604    2.4717 C   0  0  2  0  0  0  0  0  0  0  0  0
    4.0292   -8.1015    2.4680 C   0  0  0  0  0  0  0  0  0  0  0  0
    4.0675   -9.3468    3.3065 C   0  0  0  0  0  0  0  0  0  0  0  0
    3.1114  -10.0996    3.6840 N   0  0  0  0  0  0  0  0  0  0  0  0
    1.9263   -9.7431    3.0394 N   0  0  0  0  0  0  0  0  0  0  0  0
    0.7229  -10.1064    3.5237 C   0  0  0  0  0  0  0  0  0  0  0  0
   -0.3857   -9.7852    2.8828 N   0  0  0  0  0  0  0  0  0  0  0  0
    0.6159  -10.8247    4.6786 N   0  0  0  0  0  0  0  0  0  0  0  0
    5.4737   -9.5080    3.9233 C   0  0  0  0  0  0  0  0  0  0  0  0
    6.2627   -8.1792    3.6927 C   0  0  1  0  0  0  0  0  0  0  0  0
    7.7522   -8.5410    3.3314 C   0  0  0  0  0  0  0  0  0  0  0  0
    6.1367   -7.1637    4.9164 C   0  0  2  0  0  0  0  0  0  0  0  0
    7.1904   -5.9662    4.8307 C   0  0  0  0  0  0  0  0  0  0  0  0
    7.7998   -5.7386    6.1809 C   0  0  0  0  0  0  0  0  0  0  0  0
    6.6672   -6.2136    7.1092 C   0  0  2  0  0  0  0  0  0  0  0  0
    5.6636   -5.0009    7.0943 C   0  0  0  0  0  0  0  0  0  0  0  0
    7.1123   -6.4682    8.5549 C   0  0  0  0  0  0  0  0  0  0  0  0
    6.0999   -7.3574    9.3142 C   0  0  0  0  0  0  0  0  0  0  0  0
    4.7123   -7.4443    8.6598 C   0  0  0  0  0  0  0  0  0  0  0  0
    3.5523   -7.0746    9.2848 C   0  0  0  0  0  0  0  0  0  0  0  0
    3.4827   -6.6394   10.7467 C   0  0  0  0  0  0  0  0  0  0  0  0
    2.7793   -5.2937   10.8950 C   0  0  0  0  0  0  0  0  0  0  0  0
    1.3568   -5.3727   10.3208 C   0  0  1  0  0  0  0  0  0  0  0  0
    0.7257   -4.1164   10.5231 O   0  0  0  0  0  0  0  0  0  0  0  0
    1.3060   -5.8088    8.8238 C   0  0  0  0  0  0  0  0  0  0  0  0
   -0.1828   -6.0811    8.4851 C   0  0  0  0  0  0  0  0  0  0  0  0
    1.8269   -4.6729    7.9113 C   0  0  0  0  0  0  0  0  0  0  0  0
    2.1496   -7.1270    8.6365 C   0  0  1  0  0  0  0  0  0  0  0  0
    2.1651   -7.6778    7.1908 C   0  0  0  0  0  0  0  0  0  0  0  0
    3.4914   -7.4292    6.4676 C   0  0  0  0  0  0  0  0  0  0  0  0
    4.7517   -7.9912    7.2030 C   0  0  2  0  0  0  0  0  0  0  0  0
    4.5158   -9.5292    7.3701 C   0  0  0  0  0  0  0  0  0  0  0  0
    6.1689   -7.5841    6.4647 C   0  0  1  0  0  0  0  0  0  0  0  0
    7.2653   -8.7062    6.6572 C   0  0  0  0  0  0  0  0  0  0  0  0
    4.9063   -4.0312    2.8742 H   0  0  0  0  0  0  0  0  0  0  0  0
    4.4468   -5.2986    4.0101 H   0  0  0  0  0  0  0  0  0  0  0  0
    3.5743   -5.1402    2.4881 H   0  0  0  0  0  0  0  0  0  0  0  0
    6.6725   -5.7835    2.5526 H   0  0  0  0  0  0  0  0  0  0  0  0
    5.9292   -8.1005    1.6390 H   0  0  0  0  0  0  0  0  0  0  0  0
    3.3637   -7.4211    3.0098 H   0  0  0  0  0  0  0  0  0  0  0  0
    3.6259   -8.2824    1.4525 H   0  0  0  0  0  0  0  0  0  0  0  0
   -1.2509  -10.1467    3.2657 H   0  0  0  0  0  0  0  0  0  0  0  0
   -0.4014   -9.3937    1.9537 H   0  0  0  0  0  0  0  0  0  0  0  0
    1.4236  -11.2430    5.0915 H   0  0  0  0  0  0  0  0  0  0  0  0
   -0.2913  -10.9467    5.1038 H   0  0  0  0  0  0  0  0  0  0  0  0
    5.3405   -9.7122    4.9726 H   0  0  0  0  0  0  0  0  0  0  0  0
    5.9318  -10.3988    3.4601 H   0  0  0  0  0  0  0  0  0  0  0  0
    8.2729   -9.0683    4.1481 H   0  0  0  0  0  0  0  0  0  0  0  0
    8.3637   -7.6643    3.0980 H   0  0  0  0  0  0  0  0  0  0  0  0
    7.7663   -9.2343    2.4731 H   0  0  0  0  0  0  0  0  0  0  0  0
    5.1486   -6.7986    4.8701 H   0  0  0  0  0  0  0  0  0  0  0  0
    8.0202   -6.0365    4.1157 H   0  0  0  0  0  0  0  0  0  0  0  0
    6.6287   -5.0386    4.6099 H   0  0  0  0  0  0  0  0  0  0  0  0
    8.7141   -6.3408    6.2874 H   0  0  0  0  0  0  0  0  0  0  0  0
    8.0928   -4.6827    6.3292 H   0  0  0  0  0  0  0  0  0  0  0  0
    4.8762   -5.0721    7.8395 H   0  0  0  0  0  0  0  0  0  0  0  0
    5.1666   -4.8298    6.1391 H   0  0  0  0  0  0  0  0  0  0  0  0
    6.1796   -4.0628    7.3037 H   0  0  0  0  0  0  0  0  0  0  0  0
    8.1074   -6.9255    8.5374 H   0  0  0  0  0  0  0  0  0  0  0  0
    7.2178   -5.4982    9.0436 H   0  0  0  0  0  0  0  0  0  0  0  0
    6.4726   -8.3707    9.3656 H   0  0  0  0  0  0  0  0  0  0  0  0
    6.1123   -7.0260   10.3378 H   0  0  0  0  0  0  0  0  0  0  0  0
    2.9223   -7.4062   11.2803 H   0  0  0  0  0  0  0  0  0  0  0  0
    4.4377   -6.5798   11.2511 H   0  0  0  0  0  0  0  0  0  0  0  0
    2.7412   -5.0297   11.9545 H   0  0  0  0  0  0  0  0  0  0  0  0
    3.3684   -4.5178   10.4021 H   0  0  0  0  0  0  0  0  0  0  0  0
    0.8042   -6.0997   10.9196 H   0  0  0  0  0  0  0  0  0  0  0  0
    1.2721   -3.4457   10.1657 H   0  0  0  0  0  0  0  0  0  0  0  0
   -0.3428   -6.3143    7.4331 H   0  0  0  0  0  0  0  0  0  0  0  0
   -0.8102   -5.2226    8.7285 H   0  0  0  0  0  0  0  0  0  0  0  0
   -0.5381   -6.9310    9.0670 H   0  0  0  0  0  0  0  0  0  0  0  0
    1.8103   -4.9558    6.8608 H   0  0  0  0  0  0  0  0  0  0  0  0
    2.8458   -4.3920    8.1612 H   0  0  0  0  0  0  0  0  0  0  0  0
    1.2177   -3.7745    7.9996 H   0  0  0  0  0  0  0  0  0  0  0  0
    1.6339   -7.8920    9.2206 H   0  0  0  0  0  0  0  0  0  0  0  0
    1.9601   -8.7473    7.2080 H   0  0  0  0  0  0  0  0  0  0  0  0
    1.3541   -7.2665    6.5890 H   0  0  0  0  0  0  0  0  0  0  0  0
    3.3879   -7.8659    5.4792 H   0  0  0  0  0  0  0  0  0  0  0  0
    3.5646   -6.3559    6.2945 H   0  0  0  0  0  0  0  0  0  0  0  0
    4.1124  -10.0277    6.4896 H   0  0  0  0  0  0  0  0  0  0  0  0
    3.7528   -9.7142    8.1266 H   0  0  0  0  0  0  0  0  0  0  0  0
    5.3982  -10.0594    7.7235 H   0  0  0  0  0  0  0  0  0  0  0  0
    7.4339   -9.0164    7.7017 H   0  0  0  0  0  0  0  0  0  0  0  0
    8.2437   -8.3553    6.2944 H   0  0  0  0  0  0  0  0  0  0  0  0
    7.0242   -9.6165    6.0905 H   0  0  0  0  0  0  0  0  0  0  0  0
    2.0640   -9.1748    2.2447 H   0  0  0  0  0  0  0  0  0  0  0  0
  1  2  1  0
  1 40  1  0
  1 41  1  0
  1 42  1  0
  2  3  1  0
  2  6  1  0
  2 43  1  1
  3  4  2  0
  3  5  1  0
  6 15  1  0
  6  7  1  0
  6 44  1  6
  7  8  1  0
  7 45  1  0
  7 46  1  0
  8  9  2  3
  8 14  1  0
  9 10  1  0
 10 11  1  0
 10 91  1  0
 11 12  1  0
 11 13  2  0
 12 47  1  0
 12 48  1  0
 13 49  1  0
 13 50  1  0
 14 15  1  0
 14 51  1  0
 14 52  1  0
 15 16  1  6
 15 17  1  0
 16 53  1  0
 16 54  1  0
 16 55  1  0
 17 38  1  0
 17 18  1  0
 17 56  1  6
 18 19  1  0
 18 57  1  0
 18 58  1  0
 19 20  1  0
 19 59  1  0
 19 60  1  0
 20 38  1  0
 20 21  1  1
 20 22  1  0
 21 61  1  0
 21 62  1  0
 21 63  1  0
 22 23  1  0
 22 64  1  0
 22 65  1  0
 23 24  1  0
 23 66  1  0
 23 67  1  0
 24 36  1  0
 24 25  2  0
 25 33  1  0
 25 26  1  0
 26 27  1  0
 26 68  1  0
 26 69  1  0
 27 28  1  0
 27 70  1  0
 27 71  1  0
 28 29  1  0
 28 30  1  0
 28 72  1  1
 29 73  1  0
 30 31  1  0
 30 32  1  0
 30 33  1  0
 31 74  1  0
 31 75  1  0
 31 76  1  0
 32 77  1  0
 32 78  1  0
 32 79  1  0
 33 34  1  0
 33 80  1  1
 34 35  1  0
 34 81  1  0
 34 82  1  0
 35 36  1  0
 35 83  1  0
 35 84  1  0
 36 37  1  1
 36 38  1  0
 37 85  1  0
 37 86  1  0
 37 87  1  0
 38 39  1  6
 39 88  1  0
 39 89  1  0
 39 90  1  0
M  CHG  2   5  -1  13   1
M  END
>  <i_m_ct_stereo_status>  (325) 
1

>  <s_m_source_file>  (325) 
/var/tmp/pbs.5076255.sched01/tmph7d3_0rd/117btfl79hs.sdf

>  <i_m_source_file_index>  (325) 
28

>  <i_lp_mmshare_version>  (325) 
48012

>  <i_f3d_flags>  (325) 
0

>  <s_epik_input>  (325) 
W05IMl1DKFtOSDJdKT1OL049QyhbQ0gyXTEpXFtDSDJdW0NAQEhdKFtDQEhdKFtDSDNdKUMoPU8pW09IXSlbQ0BAXTEoW0NIM10pW0NASF0oW0NIMl1bQ0gyXTIpW0NAQF0oW0NIM10pKFtDQF0yM1tDSDNdKVtDQEBdNChbQ0gzXSlDKFtDSDJdW0NIMl0zKT1DNVtDQEhdKFtDSDJdW0NIMl00KUMoW0NIM10pKFtDSDNdKVtDQEhdKFtPSF0pW0NIMl1bQ0gyXTU=

>  <s_epik_cmdline>  (325) 
J2VwaWtfcHl0aG9uJywgJy1waHQnLCAnMi4wJywgJy1waCcsICc3LjAnLCAnLXRuJywgJzgnLCAnLW1hJywgJzIwMCcsICctaW1hZScsICc8aW5maWxlLm1hZT4nLCAnLW9tYWUnLCAnPG91dGZpbGUubWFlPic=

>  <r_epik_Ionization_Penalty>  (325) 
0.300877

>  <r_epik_Ionization_Penalty_Charging>  (325) 
0.300857

>  <r_epik_Ionization_Penalty_Neutral>  (325) 
2.01551e-05

>  <r_epik_State_Penalty>  (325) 
0.292542

>  <r_epik_Charging_Adjusted_Penalty>  (325) 
0.593399

>  <i_epik_Tot_Q>  (325) 
0

>  <i_epik_Tot_abs_Q>  (325) 
2

>  <s_epik_Chemistry_Notes>  (325) 
This compound has an imine and may undergo hydrolysis.

>  <s_lp_Force_Field>  (325) 
OPLS3e

>  <r_lp_Energy>  (325) 
100.02

>  <b_lp_Chiralities_Consistent>  (325) 
1

>  <s_lp_Variant>  (325) 
108:0-1

>  <s_i_glide_gridfile>  (325) 
pfpi4k_grid

>  <i_i_glide_lignum>  (325) 
28

>  <i_i_glide_rotatable_bonds>  (325) 
6

>  <r_i_docking_score>  (325) 
-1.40357

>  <r_i_glide_ligand_efficiency>  (325) 
-0.0359889

>  <r_i_glide_ligand_efficiency_sa>  (325) 
-0.122046

>  <r_i_glide_ligand_efficiency_ln>  (325) 
-0.300964

>  <r_i_glide_gscore>  (325) 
-1.40357

>  <r_i_glide_lipo>  (325) 
-0.0612372

>  <r_i_glide_hbond>  (325) 
-0.278032

>  <r_i_glide_metal>  (325) 
-0

>  <r_i_glide_rewards>  (325) 
-0.1294

>  <r_i_glide_evdw>  (325) 
-17.6435

>  <r_i_glide_ecoul>  (325) 
-1.66728

>  <r_i_glide_erotb>  (325) 
0.282811

>  <r_i_glide_esite>  (325) 
-0.0854395

>  <r_i_glide_emodel>  (325) 
-17.1572

>  <r_i_glide_energy>  (325) 
-19.3108

>  <r_i_glide_einternal>  (325) 
5.10323

>  <r_i_glide_intrahb_reward>  (325) 
-0

>  <i_i_glide_confnum>  (325) 
1

>  <i_i_glide_posenum>  (325) 
19

>  <r_i_glide_eff_state_penalty>  (325) 
0

>  <ligand_id>  (325) 
108

>  <original_smiles>  (325) 
CC(C(=O)O)C1CC(=NN=C(N)N)CC1(C)C1CCC2(C)CCC3=C4CCC(O)C(C)(C)C4CCC3(C)C12C

>  <smiles>  (325) 
[H]OC1([H])C([H])([H])C([H])([H])C2=C3C([H])([H])C([H])([H])C4(C([H])([H])[H])C([H])([H])C([H])([H])C([H])(C5(C([H])([H])[H])C([H])([H])C(=NN([H])C(N([H])[H])=[N+]([H])[H])C([H])([H])C5([H])C([H])(C(=O)[O-])C([H])([H])[H])C4(C([H])([H])[H])C3(C([H])([H])[H])C([H])([H])C([H])([H])C2([H])C1(C([H])([H])[H])C([H])([H])[H]

$$$$
108:0:2
     RDKit          3D

 91 95  0  0  1  0  0  0  0  0999 V2000
    4.1006   -5.1033    3.0079 C   0  0  0  0  0  0  0  0  0  0  0  0
    5.1199   -5.8339    2.0262 C   0  0  2  0  0  0  0  0  0  0  0  0
    4.8891   -5.3001    0.6071 C   0  0  0  0  0  0  0  0  0  0  0  0
    5.9277   -4.8888    0.0239 O   0  0  0  0  0  0  0  0  0  0  0  0
    3.7537   -5.2093    0.1227 O   0  0  0  0  0  0  0  0  0  0  0  0
    5.0764   -7.4112    2.0438 C   0  0  2  0  0  0  0  0  0  0  0  0
    3.6796   -8.0605    2.1300 C   0  0  0  0  0  0  0  0  0  0  0  0
    3.8798   -9.4104    2.7876 C   0  0  0  0  0  0  0  0  0  0  0  0
    3.0185  -10.2139    3.2228 N   0  0  0  0  0  0  0  0  0  0  0  0
    1.7499   -9.8578    2.7541 N   0  0  0  0  0  0  0  0  0  0  0  0
    0.6232  -10.2022    3.3898 C   0  0  0  0  0  0  0  0  0  0  0  0
    0.5967  -10.9107    4.5332 N   0  0  0  0  0  0  0  0  0  0  0  0
   -0.5551   -9.8410    2.8863 N   0  0  0  0  0  0  0  0  0  0  0  0
    5.3667   -9.5324    3.1966 C   0  0  0  0  0  0  0  0  0  0  0  0
    6.0401   -8.1283    3.0698 C   0  0  1  0  0  0  0  0  0  0  0  0
    7.4901   -8.3154    2.4952 C   0  0  0  0  0  0  0  0  0  0  0  0
    5.9989   -7.2972    4.4302 C   0  0  2  0  0  0  0  0  0  0  0  0
    6.9662   -6.0209    4.3897 C   0  0  0  0  0  0  0  0  0  0  0  0
    7.7172   -5.9340    5.6905 C   0  0  0  0  0  0  0  0  0  0  0  0
    6.7358   -6.6107    6.6622 C   0  0  2  0  0  0  0  0  0  0  0  0
    5.6680   -5.4830    6.9336 C   0  0  0  0  0  0  0  0  0  0  0  0
    7.3625   -7.0230    8.0008 C   0  0  0  0  0  0  0  0  0  0  0  0
    6.5009   -8.0794    8.7351 C   0  0  0  0  0  0  0  0  0  0  0  0
    5.0554   -8.1794    8.2318 C   0  0  0  0  0  0  0  0  0  0  0  0
    3.9583   -7.9845    9.0299 C   0  0  0  0  0  0  0  0  0  0  0  0
    4.0384   -7.7539   10.5357 C   0  0  0  0  0  0  0  0  0  0  0  0
    3.2838   -6.4952   10.9518 C   0  0  0  0  0  0  0  0  0  0  0  0
    1.8119   -6.6002   10.5351 C   0  0  1  0  0  0  0  0  0  0  0  0
    1.1357   -5.4354   10.9857 O   0  0  0  0  0  0  0  0  0  0  0  0
    1.6171   -6.8347    9.0052 C   0  0  0  0  0  0  0  0  0  0  0  0
    0.1287   -7.1763    8.7992 C   0  0  0  0  0  0  0  0  0  0  0  0
    1.9468   -5.5513    8.2092 C   0  0  0  0  0  0  0  0  0  0  0  0
    2.4980   -8.0531    8.5392 C   0  0  1  0  0  0  0  0  0  0  0  0
    2.3669   -8.3994    7.0365 C   0  0  0  0  0  0  0  0  0  0  0  0
    3.5797   -7.9594    6.2137 C   0  0  0  0  0  0  0  0  0  0  0  0
    4.9472   -8.5196    6.7167 C   0  0  2  0  0  0  0  0  0  0  0  0
    4.8237  -10.0795    6.6900 C   0  0  0  0  0  0  0  0  0  0  0  0
    6.2418   -7.9162    5.8929 C   0  0  1  0  0  0  0  0  0  0  0  0
    7.4125   -8.9687    5.7982 C   0  0  0  0  0  0  0  0  0  0  0  0
    4.3544   -4.0289    3.0284 H   0  0  0  0  0  0  0  0  0  0  0  0
    4.1279   -5.4683    4.0212 H   0  0  0  0  0  0  0  0  0  0  0  0
    3.0539   -5.1813    2.6599 H   0  0  0  0  0  0  0  0  0  0  0  0
    6.1631   -5.5532    2.2447 H   0  0  0  0  0  0  0  0  0  0  0  0
    5.4544   -7.7892    1.0885 H   0  0  0  0  0  0  0  0  0  0  0  0
    3.0487   -7.5056    2.8314 H   0  0  0  0  0  0  0  0  0  0  0  0
    3.1581   -8.1284    1.1572 H   0  0  0  0  0  0  0  0  0  0  0  0
   -0.2624  -11.0484    5.0048 H   0  0  0  0  0  0  0  0  0  0  0  0
    1.4806  -11.2103    4.9662 H   0  0  0  0  0  0  0  0  0  0  0  0
   -0.6323   -9.1467    2.1417 H   0  0  0  0  0  0  0  0  0  0  0  0
   -1.3822  -10.2073    3.2961 H   0  0  0  0  0  0  0  0  0  0  0  0
    5.3838   -9.8772    4.2189 H   0  0  0  0  0  0  0  0  0  0  0  0
    5.8202  -10.3191    2.5702 H   0  0  0  0  0  0  0  0  0  0  0  0
    8.1303   -8.9025    3.1725 H   0  0  0  0  0  0  0  0  0  0  0  0
    8.0089   -7.3623    2.3375 H   0  0  0  0  0  0  0  0  0  0  0  0
    7.4612   -8.8760    1.5423 H   0  0  0  0  0  0  0  0  0  0  0  0
    4.9911   -7.0096    4.5419 H   0  0  0  0  0  0  0  0  0  0  0  0
    7.7028   -5.9433    3.5851 H   0  0  0  0  0  0  0  0  0  0  0  0
    6.3348   -5.1145    4.3675 H   0  0  0  0  0  0  0  0  0  0  0  0
    8.6700   -6.4773    5.6076 H   0  0  0  0  0  0  0  0  0  0  0  0
    7.9663   -4.8889    5.9503 H   0  0  0  0  0  0  0  0  0  0  0  0
    4.9834   -5.7123    7.7430 H   0  0  0  0  0  0  0  0  0  0  0  0
    5.0525   -5.2216    6.0735 H   0  0  0  0  0  0  0  0  0  0  0  0
    6.1526   -4.5477    7.2157 H   0  0  0  0  0  0  0  0  0  0  0  0
    8.3729   -7.4022    7.8095 H   0  0  0  0  0  0  0  0  0  0  0  0
    7.4718   -6.1239    8.6074 H   0  0  0  0  0  0  0  0  0  0  0  0
    6.9353   -9.0587    8.6003 H   0  0  0  0  0  0  0  0  0  0  0  0
    6.6179   -7.8898    9.7861 H   0  0  0  0  0  0  0  0  0  0  0  0
    3.5909   -8.6240   11.0152 H   0  0  0  0  0  0  0  0  0  0  0  0
    5.0419   -7.6921   10.9356 H   0  0  0  0  0  0  0  0  0  0  0  0
    3.3553   -6.3789   12.0349 H   0  0  0  0  0  0  0  0  0  0  0  0
    3.7625   -5.6196   10.5109 H   0  0  0  0  0  0  0  0  0  0  0  0
    1.3728   -7.4392   11.0794 H   0  0  0  0  0  0  0  0  0  0  0  0
    1.5955   -4.6778   10.6746 H   0  0  0  0  0  0  0  0  0  0  0  0
   -0.1587   -7.2796    7.7561 H   0  0  0  0  0  0  0  0  0  0  0  0
   -0.5074   -6.3946    9.2110 H   0  0  0  0  0  0  0  0  0  0  0  0
   -0.1360   -8.1059    9.3031 H   0  0  0  0  0  0  0  0  0  0  0  0
    1.8196   -5.6905    7.1376 H   0  0  0  0  0  0  0  0  0  0  0  0
    2.9691   -5.2314    8.3817 H   0  0  0  0  0  0  0  0  0  0  0  0
    1.3009   -4.7200    8.4920 H   0  0  0  0  0  0  0  0  0  0  0  0
    2.0945   -8.9221    9.0609 H   0  0  0  0  0  0  0  0  0  0  0  0
    2.2250   -9.4740    6.9271 H   0  0  0  0  0  0  0  0  0  0  0  0
    1.4666   -7.9722    6.5928 H   0  0  0  0  0  0  0  0  0  0  0  0
    3.3828   -8.2642    5.1900 H   0  0  0  0  0  0  0  0  0  0  0  0
    3.5707   -6.8695    6.1870 H   0  0  0  0  0  0  0  0  0  0  0  0
    4.3495  -10.4849    5.7970 H   0  0  0  0  0  0  0  0  0  0  0  0
    4.1649  -10.4219    7.4885 H   0  0  0  0  0  0  0  0  0  0  0  0
    5.7694  -10.5874    6.8671 H   0  0  0  0  0  0  0  0  0  0  0  0
    7.7214   -9.4047    6.7644 H   0  0  0  0  0  0  0  0  0  0  0  0
    8.3212   -8.5053    5.3830 H   0  0  0  0  0  0  0  0  0  0  0  0
    7.1535   -9.8114    5.1382 H   0  0  0  0  0  0  0  0  0  0  0  0
    1.7822   -9.4015    1.8797 H   0  0  0  0  0  0  0  0  0  0  0  0
  1  2  1  0
  1 40  1  0
  1 41  1  0
  1 42  1  0
  2  3  1  0
  2  6  1  0
  2 43  1  1
  3  4  2  0
  3  5  1  0
  6 15  1  0
  6  7  1  0
  6 44  1  6
  7  8  1  0
  7 45  1  0
  7 46  1  0
  8  9  2  3
  8 14  1  0
  9 10  1  0
 10 11  1  0
 10 91  1  0
 11 12  1  0
 11 13  2  0
 12 47  1  0
 12 48  1  0
 13 49  1  0
 13 50  1  0
 14 15  1  0
 14 51  1  0
 14 52  1  0
 15 16  1  6
 15 17  1  0
 16 53  1  0
 16 54  1  0
 16 55  1  0
 17 38  1  0
 17 18  1  0
 17 56  1  1
 18 19  1  0
 18 57  1  0
 18 58  1  0
 19 20  1  0
 19 59  1  0
 19 60  1  0
 20 38  1  0
 20 21  1  1
 20 22  1  0
 21 61  1  0
 21 62  1  0
 21 63  1  0
 22 23  1  0
 22 64  1  0
 22 65  1  0
 23 24  1  0
 23 66  1  0
 23 67  1  0
 24 36  1  0
 24 25  2  0
 25 33  1  0
 25 26  1  0
 26 27  1  0
 26 68  1  0
 26 69  1  0
 27 28  1  0
 27 70  1  0
 27 71  1  0
 28 29  1  0
 28 30  1  0
 28 72  1  1
 29 73  1  0
 30 31  1  0
 30 32  1  0
 30 33  1  0
 31 74  1  0
 31 75  1  0
 31 76  1  0
 32 77  1  0
 32 78  1  0
 32 79  1  0
 33 34  1  0
 33 80  1  1
 34 35  1  0
 34 81  1  0
 34 82  1  0
 35 36  1  0
 35 83  1  0
 35 84  1  0
 36 37  1  1
 36 38  1  0
 37 85  1  0
 37 86  1  0
 37 87  1  0
 38 39  1  6
 39 88  1  0
 39 89  1  0
 39 90  1  0
M  CHG  2   5  -1  13   1
M  END
>  <i_m_ct_stereo_status>  (326) 
1

>  <s_m_source_file>  (326) 
/var/tmp/pbs.5076255.sched01/tmph7d3_0rd/117btfl79hs.sdf

>  <i_m_source_file_index>  (326) 
28

>  <i_lp_mmshare_version>  (326) 
48012

>  <i_f3d_flags>  (326) 
0

>  <s_epik_input>  (326) 
W05IMl1DKFtOSDJdKT1OL049QyhbQ0gyXTEpXFtDSDJdW0NAQEhdKFtDQEhdKFtDSDNdKUMoPU8pW09IXSlbQ0BAXTEoW0NIM10pW0NASF0oW0NIMl1bQ0gyXTIpW0NAQF0oW0NIM10pKFtDQF0yM1tDSDNdKVtDQEBdNChbQ0gzXSlDKFtDSDJdW0NIMl0zKT1DNVtDQEhdKFtDSDJdW0NIMl00KUMoW0NIM10pKFtDSDNdKVtDQEhdKFtPSF0pW0NIMl1bQ0gyXTU=

>  <s_epik_cmdline>  (326) 
J2VwaWtfcHl0aG9uJywgJy1waHQnLCAnMi4wJywgJy1waCcsICc3LjAnLCAnLXRuJywgJzgnLCAnLW1hJywgJzIwMCcsICctaW1hZScsICc8aW5maWxlLm1hZT4nLCAnLW9tYWUnLCAnPG91dGZpbGUubWFlPic=

>  <r_epik_Ionization_Penalty>  (326) 
0.300877

>  <r_epik_Ionization_Penalty_Charging>  (326) 
0.300857

>  <r_epik_Ionization_Penalty_Neutral>  (326) 
2.01551e-05

>  <r_epik_State_Penalty>  (326) 
0.292542

>  <r_epik_Charging_Adjusted_Penalty>  (326) 
0.593399

>  <i_epik_Tot_Q>  (326) 
0

>  <i_epik_Tot_abs_Q>  (326) 
2

>  <s_epik_Chemistry_Notes>  (326) 
This compound has an imine and may undergo hydrolysis.

>  <s_lp_Force_Field>  (326) 
OPLS3e

>  <r_lp_Energy>  (326) 
100.02

>  <b_lp_Chiralities_Consistent>  (326) 
1

>  <s_lp_Variant>  (326) 
108:0-1

>  <s_i_glide_gridfile>  (326) 
pfpi4k_grid

>  <i_i_glide_lignum>  (326) 
28

>  <i_i_glide_rotatable_bonds>  (326) 
6

>  <r_i_docking_score>  (326) 
-1.14222

>  <r_i_glide_ligand_efficiency>  (326) 
-0.0292878

>  <r_i_glide_ligand_efficiency_sa>  (326) 
-0.0993211

>  <r_i_glide_ligand_efficiency_ln>  (326) 
-0.244925

>  <r_i_glide_gscore>  (326) 
-1.14222

>  <r_i_glide_lipo>  (326) 
-0.077391

>  <r_i_glide_hbond>  (326) 
-0.323131

>  <r_i_glide_metal>  (326) 
-0

>  <r_i_glide_rewards>  (326) 
-0.102072

>  <r_i_glide_evdw>  (326) 
-19.4074

>  <r_i_glide_ecoul>  (326) 
-0.611404

>  <r_i_glide_erotb>  (326) 
0.282811

>  <r_i_glide_esite>  (326) 
-0.0933982

>  <r_i_glide_emodel>  (326) 
-16.1171

>  <r_i_glide_energy>  (326) 
-20.0188

>  <r_i_glide_einternal>  (326) 
5.89462

>  <r_i_glide_intrahb_reward>  (326) 
-0

>  <i_i_glide_confnum>  (326) 
2

>  <i_i_glide_posenum>  (326) 
25

>  <r_i_glide_eff_state_penalty>  (326) 
0

>  <ligand_id>  (326) 
108

>  <original_smiles>  (326) 
CC(C(=O)O)C1CC(=NN=C(N)N)CC1(C)C1CCC2(C)CCC3=C4CCC(O)C(C)(C)C4CCC3(C)C12C

>  <smiles>  (326) 
[H]OC1([H])C([H])([H])C([H])([H])C2=C3C([H])([H])C([H])([H])C4(C([H])([H])[H])C([H])([H])C([H])([H])C([H])(C5(C([H])([H])[H])C([H])([H])C(=NN([H])C(N([H])[H])=[N+]([H])[H])C([H])([H])C5([H])C([H])(C(=O)[O-])C([H])([H])[H])C4(C([H])([H])[H])C3(C([H])([H])[H])C([H])([H])C([H])([H])C2([H])C1(C([H])([H])[H])C([H])([H])[H]

$$$$
108:1:0
     RDKit          3D

 91 95  0  0  1  0  0  0  0  0999 V2000
    0.5867   -4.2914    8.3967 C   0  0  0  0  0  0  0  0  0  0  0  0
    1.4262   -3.0558    8.9034 C   0  0  2  0  0  0  0  0  0  0  0  0
    0.6092   -2.2674    9.8882 C   0  0  0  0  0  0  0  0  0  0  0  0
   -0.6362   -2.2413    9.6778 O   0  0  0  0  0  0  0  0  0  0  0  0
    1.1861   -1.7227   10.8377 O   0  0  0  0  0  0  0  0  0  0  0  0
    2.0959   -2.1388    7.8310 C   0  0  2  0  0  0  0  0  0  0  0  0
    1.2104   -1.8702    6.5821 C   0  0  0  0  0  0  0  0  0  0  0  0
    2.1642   -1.6336    5.4478 C   0  0  0  0  0  0  0  0  0  0  0  0
    1.7126   -1.3238    4.2667 N   0  0  0  0  0  0  0  0  0  0  0  0
    2.7594   -1.2290    3.3330 N   0  0  0  0  0  0  0  0  0  0  0  0
    2.5280   -0.8872    2.0813 C   0  0  0  0  0  0  0  0  0  0  0  0
    3.4722   -0.8939    1.1043 N   0  0  0  0  0  0  0  0  0  0  0  0
    1.2776   -0.5331    1.6942 N   0  0  0  0  0  0  0  0  0  0  0  0
    3.5552   -1.8957    5.8918 C   0  0  0  0  0  0  0  0  0  0  0  0
    3.5009   -2.5892    7.2966 C   0  0  1  0  0  0  0  0  0  0  0  0
    4.6507   -2.0583    8.2085 C   0  0  0  0  0  0  0  0  0  0  0  0
    3.5563   -4.1613    7.1796 C   0  0  2  0  0  0  0  0  0  0  0  0
    3.7164   -4.9119    8.5624 C   0  0  0  0  0  0  0  0  0  0  0  0
    4.7007   -6.0065    8.4001 C   0  0  0  0  0  0  0  0  0  0  0  0
    4.4686   -6.3829    6.9283 C   0  0  2  0  0  0  0  0  0  0  0  0
    3.1648   -7.2552    6.9630 C   0  0  0  0  0  0  0  0  0  0  0  0
    5.6040   -7.2384    6.3245 C   0  0  0  0  0  0  0  0  0  0  0  0
    5.6033   -7.1957    4.7822 C   0  0  0  0  0  0  0  0  0  0  0  0
    4.2823   -6.7146    4.1602 C   0  0  0  0  0  0  0  0  0  0  0  0
    3.5320   -7.4584    3.2944 C   0  0  0  0  0  0  0  0  0  0  0  0
    3.9581   -8.8198    2.7506 C   0  0  0  0  0  0  0  0  0  0  0  0
    2.8806   -9.8772    2.9841 C   0  0  0  0  0  0  0  0  0  0  0  0
    1.5735   -9.4557    2.3150 C   0  0  1  0  0  0  0  0  0  0  0  0
    0.6060  -10.4995    2.4901 O   0  0  0  0  0  0  0  0  0  0  0  0
    1.0355   -8.0699    2.7874 C   0  0  0  0  0  0  0  0  0  0  0  0
   -0.1222   -7.6820    1.8288 C   0  0  0  0  0  0  0  0  0  0  0  0
    0.4875   -8.1781    4.2345 C   0  0  0  0  0  0  0  0  0  0  0  0
    2.1868   -6.9985    2.6884 C   0  0  1  0  0  0  0  0  0  0  0  0
    1.7736   -5.5726    3.1240 C   0  0  0  0  0  0  0  0  0  0  0  0
    2.3237   -5.1836    4.4965 C   0  0  0  0  0  0  0  0  0  0  0  0
    3.8746   -5.2915    4.6302 C   0  0  2  0  0  0  0  0  0  0  0  0
    4.4899   -4.3576    3.5263 C   0  0  0  0  0  0  0  0  0  0  0  0
    4.3938   -4.9925    6.1577 C   0  0  1  0  0  0  0  0  0  0  0  0
    5.8184   -4.3123    6.1415 C   0  0  0  0  0  0  0  0  0  0  0  0
    0.3975   -4.9750    9.2071 H   0  0  0  0  0  0  0  0  0  0  0  0
    1.0733   -4.9711    7.6668 H   0  0  0  0  0  0  0  0  0  0  0  0
   -0.3113   -4.0348    7.8857 H   0  0  0  0  0  0  0  0  0  0  0  0
    2.1947   -3.3518    9.5777 H   0  0  0  0  0  0  0  0  0  0  0  0
    2.2520   -1.1517    8.2763 H   0  0  0  0  0  0  0  0  0  0  0  0
    0.6120   -2.7565    6.3424 H   0  0  0  0  0  0  0  0  0  0  0  0
    0.5122   -1.0355    6.7277 H   0  0  0  0  0  0  0  0  0  0  0  0
    3.2294   -0.6127    0.1827 H   0  0  0  0  0  0  0  0  0  0  0  0
    4.4248   -1.1463    1.3106 H   0  0  0  0  0  0  0  0  0  0  0  0
    0.6012   -0.2714    2.4154 H   0  0  0  0  0  0  0  0  0  0  0  0
    1.0244   -0.5778    0.7341 H   0  0  0  0  0  0  0  0  0  0  0  0
    4.0371   -2.5461    5.2140 H   0  0  0  0  0  0  0  0  0  0  0  0
    4.1324   -0.9684    5.9220 H   0  0  0  0  0  0  0  0  0  0  0  0
    5.6282   -2.2824    7.7831 H   0  0  0  0  0  0  0  0  0  0  0  0
    4.6437   -2.4736    9.1992 H   0  0  0  0  0  0  0  0  0  0  0  0
    4.6106   -0.9860    8.3543 H   0  0  0  0  0  0  0  0  0  0  0  0
    2.5871   -4.3239    6.7476 H   0  0  0  0  0  0  0  0  0  0  0  0
    4.0207   -4.3421    9.4415 H   0  0  0  0  0  0  0  0  0  0  0  0
    2.7924   -5.3818    8.8985 H   0  0  0  0  0  0  0  0  0  0  0  0
    5.7007   -5.6321    8.6008 H   0  0  0  0  0  0  0  0  0  0  0  0
    4.5049   -6.8060    9.1144 H   0  0  0  0  0  0  0  0  0  0  0  0
    2.9631   -7.7724    6.0298 H   0  0  0  0  0  0  0  0  0  0  0  0
    2.2586   -6.7056    7.2128 H   0  0  0  0  0  0  0  0  0  0  0  0
    3.2348   -8.0417    7.7132 H   0  0  0  0  0  0  0  0  0  0  0  0
    6.5542   -6.8796    6.7040 H   0  0  0  0  0  0  0  0  0  0  0  0
    5.5001   -8.2609    6.6965 H   0  0  0  0  0  0  0  0  0  0  0  0
    6.3764   -6.5139    4.4311 H   0  0  0  0  0  0  0  0  0  0  0  0
    5.9669   -8.1532    4.4358 H   0  0  0  0  0  0  0  0  0  0  0  0
    4.1398   -8.7116    1.6771 H   0  0  0  0  0  0  0  0  0  0  0  0
    4.8869   -9.2020    3.1519 H   0  0  0  0  0  0  0  0  0  0  0  0
    3.2199  -10.8279    2.5659 H   0  0  0  0  0  0  0  0  0  0  0  0
    2.7479  -10.0408    4.0521 H   0  0  0  0  0  0  0  0  0  0  0  0
    1.7672   -9.4168    1.2420 H   0  0  0  0  0  0  0  0  0  0  0  0
    0.1332  -10.5905    1.6686 H   0  0  0  0  0  0  0  0  0  0  0  0
   -0.6370   -6.7729    2.1219 H   0  0  0  0  0  0  0  0  0  0  0  0
   -0.8827   -8.4606    1.7786 H   0  0  0  0  0  0  0  0  0  0  0  0
    0.2430   -7.5403    0.8115 H   0  0  0  0  0  0  0  0  0  0  0  0
    0.1141   -7.2261    4.6076 H   0  0  0  0  0  0  0  0  0  0  0  0
    1.2510   -8.5240    4.9272 H   0  0  0  0  0  0  0  0  0  0  0  0
   -0.3358   -8.8869    4.3054 H   0  0  0  0  0  0  0  0  0  0  0  0
    2.4085   -6.9121    1.6161 H   0  0  0  0  0  0  0  0  0  0  0  0
    2.1111   -4.8472    2.3805 H   0  0  0  0  0  0  0  0  0  0  0  0
    0.6930   -5.4433    3.1381 H   0  0  0  0  0  0  0  0  0  0  0  0
    1.9701   -4.1718    4.6917 H   0  0  0  0  0  0  0  0  0  0  0  0
    1.8185   -5.7970    5.2409 H   0  0  0  0  0  0  0  0  0  0  0  0
    4.0240   -3.3908    3.4467 H   0  0  0  0  0  0  0  0  0  0  0  0
    4.3292   -4.7699    2.5299 H   0  0  0  0  0  0  0  0  0  0  0  0
    5.5642   -4.2241    3.6110 H   0  0  0  0  0  0  0  0  0  0  0  0
    6.5677   -4.8192    5.5332 H   0  0  0  0  0  0  0  0  0  0  0  0
    6.2545   -4.2378    7.1396 H   0  0  0  0  0  0  0  0  0  0  0  0
    5.8207   -3.2976    5.7592 H   0  0  0  0  0  0  0  0  0  0  0  0
    3.6882   -1.4904    3.6479 H   0  0  0  0  0  0  0  0  0  0  0  0
  1  2  1  0
  1 40  1  0
  1 41  1  0
  1 42  1  0
  2  3  1  0
  2  6  1  0
  2 43  1  1
  3  4  2  0
  3  5  1  0
  6 15  1  0
  6  7  1  0
  6 44  1  1
  7  8  1  0
  7 45  1  0
  7 46  1  0
  8  9  2  3
  8 14  1  0
  9 10  1  0
 10 11  1  0
 10 91  1  0
 11 12  1  0
 11 13  2  0
 12 47  1  0
 12 48  1  0
 13 49  1  0
 13 50  1  0
 14 15  1  0
 14 51  1  0
 14 52  1  0
 15 16  1  1
 15 17  1  0
 16 53  1  0
 16 54  1  0
 16 55  1  0
 17 38  1  0
 17 18  1  0
 17 56  1  6
 18 19  1  0
 18 57  1  0
 18 58  1  0
 19 20  1  0
 19 59  1  0
 19 60  1  0
 20 38  1  0
 20 21  1  1
 20 22  1  0
 21 61  1  0
 21 62  1  0
 21 63  1  0
 22 23  1  0
 22 64  1  0
 22 65  1  0
 23 24  1  0
 23 66  1  0
 23 67  1  0
 24 36  1  0
 24 25  2  0
 25 33  1  0
 25 26  1  0
 26 27  1  0
 26 68  1  0
 26 69  1  0
 27 28  1  0
 27 70  1  0
 27 71  1  0
 28 29  1  0
 28 30  1  0
 28 72  1  6
 29 73  1  0
 30 31  1  0
 30 32  1  0
 30 33  1  0
 31 74  1  0
 31 75  1  0
 31 76  1  0
 32 77  1  0
 32 78  1  0
 32 79  1  0
 33 34  1  0
 33 80  1  6
 34 35  1  0
 34 81  1  0
 34 82  1  0
 35 36  1  0
 35 83  1  0
 35 84  1  0
 36 37  1  6
 36 38  1  0
 37 85  1  0
 37 86  1  0
 37 87  1  0
 38 39  1  6
 39 88  1  0
 39 89  1  0
 39 90  1  0
M  CHG  2   5  -1  13   1
M  END
>  <i_m_ct_stereo_status>  (327) 
1

>  <s_m_source_file>  (327) 
/var/tmp/pbs.5076255.sched01/tmph7d3_0rd/117btfl79hs.sdf

>  <i_m_source_file_index>  (327) 
29

>  <i_lp_mmshare_version>  (327) 
48012

>  <i_f3d_flags>  (327) 
0

>  <s_epik_input>  (327) 
W05IMl1DKFtOSDJdKT1OL049QyhbQ0gyXTEpXFtDSDJdW0NAQEhdKFtDQEhdKFtDSDNdKUMoPU8pW09IXSlbQ0BAXTEoW0NIM10pW0NASF0oW0NIMl1bQ0gyXTIpW0NAQF0oW0NIM10pKFtDQF0yM1tDSDNdKVtDQEBdNChbQ0gzXSlDKFtDSDJdW0NIMl0zKT1DNVtDQEhdKFtDSDJdW0NIMl00KUMoW0NIM10pKFtDSDNdKVtDQEhdKFtPSF0pW0NIMl1bQ0gyXTU=

>  <s_epik_cmdline>  (327) 
J2VwaWtfcHl0aG9uJywgJy1waHQnLCAnMi4wJywgJy1waCcsICc3LjAnLCAnLXRuJywgJzgnLCAnLW1hJywgJzIwMCcsICctaW1hZScsICc8aW5maWxlLm1hZT4nLCAnLW9tYWUnLCAnPG91dGZpbGUubWFlPic=

>  <r_epik_Ionization_Penalty>  (327) 
0.300877

>  <r_epik_Ionization_Penalty_Charging>  (327) 
0.300857

>  <r_epik_Ionization_Penalty_Neutral>  (327) 
2.01551e-05

>  <r_epik_State_Penalty>  (327) 
0.292542

>  <r_epik_Charging_Adjusted_Penalty>  (327) 
0.593399

>  <i_epik_Tot_Q>  (327) 
0

>  <i_epik_Tot_abs_Q>  (327) 
2

>  <s_epik_Chemistry_Notes>  (327) 
This compound has an imine and may undergo hydrolysis.

>  <s_lp_Force_Field>  (327) 
OPLS3e

>  <r_lp_Energy>  (327) 
100.208

>  <b_lp_Chiralities_Consistent>  (327) 
1

>  <s_lp_Variant>  (327) 
108:0-2

>  <s_i_glide_gridfile>  (327) 
pfpi4k_grid

>  <i_i_glide_lignum>  (327) 
29

>  <i_i_glide_rotatable_bonds>  (327) 
6

>  <r_i_docking_score>  (327) 
-2.25955

>  <r_i_glide_ligand_efficiency>  (327) 
-0.0579373

>  <r_i_glide_ligand_efficiency_sa>  (327) 
-0.196478

>  <r_i_glide_ligand_efficiency_ln>  (327) 
-0.484513

>  <r_i_glide_gscore>  (327) 
-2.25955

>  <r_i_glide_lipo>  (327) 
-0.0907912

>  <r_i_glide_hbond>  (327) 
-0.627493

>  <r_i_glide_metal>  (327) 
-0

>  <r_i_glide_rewards>  (327) 
0

>  <r_i_glide_evdw>  (327) 
-19.7735

>  <r_i_glide_ecoul>  (327) 
-9.02632

>  <r_i_glide_erotb>  (327) 
0.282811

>  <r_i_glide_esite>  (327) 
-0.158189

>  <r_i_glide_emodel>  (327) 
-28.7139

>  <r_i_glide_energy>  (327) 
-28.7998

>  <r_i_glide_einternal>  (327) 
3.45007

>  <r_i_glide_intrahb_reward>  (327) 
-0

>  <i_i_glide_confnum>  (327) 
2

>  <i_i_glide_posenum>  (327) 
22

>  <r_i_glide_eff_state_penalty>  (327) 
0

>  <ligand_id>  (327) 
108

>  <original_smiles>  (327) 
CC(C(=O)O)C1CC(=NN=C(N)N)CC1(C)C1CCC2(C)CCC3=C4CCC(O)C(C)(C)C4CCC3(C)C12C

>  <smiles>  (327) 
[H]OC1([H])C([H])([H])C([H])([H])C2=C3C([H])([H])C([H])([H])C4(C([H])([H])[H])C([H])([H])C([H])([H])C([H])(C5(C([H])([H])[H])C([H])([H])C(=NN([H])C(N([H])[H])=[N+]([H])[H])C([H])([H])C5([H])C([H])(C(=O)[O-])C([H])([H])[H])C4(C([H])([H])[H])C3(C([H])([H])[H])C([H])([H])C([H])([H])C2([H])C1(C([H])([H])[H])C([H])([H])[H]

$$$$
108:1:1
     RDKit          3D

 91 95  0  0  1  0  0  0  0  0999 V2000
    7.4181   -6.6085    4.9423 C   0  0  0  0  0  0  0  0  0  0  0  0
    7.9585   -7.0662    3.5275 C   0  0  2  0  0  0  0  0  0  0  0  0
    9.3051   -6.4052    3.3270 C   0  0  0  0  0  0  0  0  0  0  0  0
    9.4694   -5.6524    2.3276 O   0  0  0  0  0  0  0  0  0  0  0  0
   10.1767   -6.6946    4.1539 O   0  0  0  0  0  0  0  0  0  0  0  0
    6.9833   -6.9925    2.2946 C   0  0  2  0  0  0  0  0  0  0  0  0
    6.1641   -5.6783    2.2322 C   0  0  0  0  0  0  0  0  0  0  0  0
    4.9197   -5.9865    1.4762 C   0  0  0  0  0  0  0  0  0  0  0  0
    4.0644   -5.0567    1.2131 N   0  0  0  0  0  0  0  0  0  0  0  0
    2.9557   -5.6246    0.6283 N   0  0  0  0  0  0  0  0  0  0  0  0
    2.1576   -4.9169   -0.2115 C   0  0  0  0  0  0  0  0  0  0  0  0
    2.4344   -3.6476   -0.5406 N   0  0  0  0  0  0  0  0  0  0  0  0
    1.0627   -5.4888   -0.6863 N   0  0  0  0  0  0  0  0  0  0  0  0
    4.8706   -7.4631    1.2045 C   0  0  0  0  0  0  0  0  0  0  0  0
    5.9799   -8.1858    2.0505 C   0  0  1  0  0  0  0  0  0  0  0  0
    6.5870   -9.3316    1.1961 C   0  0  0  0  0  0  0  0  0  0  0  0
    5.4484   -8.7172    3.4473 C   0  0  2  0  0  0  0  0  0  0  0  0
    6.4990   -9.6273    4.2379 C   0  0  0  0  0  0  0  0  0  0  0  0
    5.7801  -10.7943    4.8082 C   0  0  0  0  0  0  0  0  0  0  0  0
    4.3932  -10.1869    5.0402 C   0  0  2  0  0  0  0  0  0  0  0  0
    4.5610   -9.3522    6.3628 C   0  0  0  0  0  0  0  0  0  0  0  0
    3.3095  -11.2481    5.2639 C   0  0  0  0  0  0  0  0  0  0  0  0
    1.8952  -10.6800    5.0157 C   0  0  0  0  0  0  0  0  0  0  0  0
    1.8077   -9.1490    5.0402 C   0  0  0  0  0  0  0  0  0  0  0  0
    1.0241   -8.4440    5.9066 C   0  0  0  0  0  0  0  0  0  0  0  0
    0.0644   -9.0994    6.8876 C   0  0  0  0  0  0  0  0  0  0  0  0
    0.2848   -8.5869    8.3102 C   0  0  0  0  0  0  0  0  0  0  0  0
    0.1419   -7.0637    8.3783 C   0  0  1  0  0  0  0  0  0  0  0  0
    0.2708   -6.6611    9.7273 O   0  0  0  0  0  0  0  0  0  0  0  0
    1.0804   -6.2962    7.4055 C   0  0  0  0  0  0  0  0  0  0  0  0
    0.6037   -4.8190    7.3991 C   0  0  0  0  0  0  0  0  0  0  0  0
    2.5365   -6.3623    7.9172 C   0  0  0  0  0  0  0  0  0  0  0  0
    0.9457   -6.9017    5.9555 C   0  0  1  0  0  0  0  0  0  0  0  0
    1.8308   -6.2078    4.8941 C   0  0  0  0  0  0  0  0  0  0  0  0
    3.0497   -7.0390    4.5020 C   0  0  0  0  0  0  0  0  0  0  0  0
    2.7172   -8.4734    3.9874 C   0  0  2  0  0  0  0  0  0  0  0  0
    1.7697   -8.3119    2.7491 C   0  0  0  0  0  0  0  0  0  0  0  0
    4.0517   -9.3779    3.7161 C   0  0  1  0  0  0  0  0  0  0  0  0
    3.8338  -10.3712    2.5261 C   0  0  0  0  0  0  0  0  0  0  0  0
    8.0666   -6.9721    5.7351 H   0  0  0  0  0  0  0  0  0  0  0  0
    6.4384   -6.9957    5.2590 H   0  0  0  0  0  0  0  0  0  0  0  0
    7.2742   -5.5373    5.0189 H   0  0  0  0  0  0  0  0  0  0  0  0
    8.3466   -8.0746    3.5201 H   0  0  0  0  0  0  0  0  0  0  0  0
    7.5644   -6.9869    1.3664 H   0  0  0  0  0  0  0  0  0  0  0  0
    5.8664   -5.3609    3.2345 H   0  0  0  0  0  0  0  0  0  0  0  0
    6.7225   -4.8470    1.7833 H   0  0  0  0  0  0  0  0  0  0  0  0
    1.8333   -3.1084   -1.1452 H   0  0  0  0  0  0  0  0  0  0  0  0
    3.2291   -3.2047   -0.1404 H   0  0  0  0  0  0  0  0  0  0  0  0
    0.6506   -6.3084   -0.3161 H   0  0  0  0  0  0  0  0  0  0  0  0
    0.6573   -5.0555   -1.5360 H   0  0  0  0  0  0  0  0  0  0  0  0
    3.9350   -7.8576    1.5004 H   0  0  0  0  0  0  0  0  0  0  0  0
    4.9771   -7.6626    0.1384 H   0  0  0  0  0  0  0  0  0  0  0  0
    5.9014  -10.1091    0.9329 H   0  0  0  0  0  0  0  0  0  0  0  0
    7.3305   -9.8463    1.7416 H   0  0  0  0  0  0  0  0  0  0  0  0
    7.1033   -9.0456    0.2902 H   0  0  0  0  0  0  0  0  0  0  0  0
    5.2603   -7.7706    3.9310 H   0  0  0  0  0  0  0  0  0  0  0  0
    7.3696  -10.0320    3.7308 H   0  0  0  0  0  0  0  0  0  0  0  0
    6.9363   -9.1356    5.0999 H   0  0  0  0  0  0  0  0  0  0  0  0
    5.8006  -11.6035    4.0782 H   0  0  0  0  0  0  0  0  0  0  0  0
    6.3016  -11.1319    5.7080 H   0  0  0  0  0  0  0  0  0  0  0  0
    3.6197   -9.0227    6.7846 H   0  0  0  0  0  0  0  0  0  0  0  0
    5.1875   -8.4669    6.2670 H   0  0  0  0  0  0  0  0  0  0  0  0
    5.0368   -9.9472    7.1418 H   0  0  0  0  0  0  0  0  0  0  0  0
    3.4995  -12.0975    4.6057 H   0  0  0  0  0  0  0  0  0  0  0  0
    3.4067  -11.6257    6.2833 H   0  0  0  0  0  0  0  0  0  0  0  0
    1.5351  -11.0017    4.0471 H   0  0  0  0  0  0  0  0  0  0  0  0
    1.2318  -11.1923    5.6811 H   0  0  0  0  0  0  0  0  0  0  0  0
   -0.9414   -8.8891    6.5337 H   0  0  0  0  0  0  0  0  0  0  0  0
    0.0832  -10.1809    6.9128 H   0  0  0  0  0  0  0  0  0  0  0  0
   -0.4464   -9.0449    8.9761 H   0  0  0  0  0  0  0  0  0  0  0  0
    1.2659   -8.9079    8.6567 H   0  0  0  0  0  0  0  0  0  0  0  0
   -0.8839   -6.8044    8.1139 H   0  0  0  0  0  0  0  0  0  0  0  0
    1.1551   -6.8411   10.0129 H   0  0  0  0  0  0  0  0  0  0  0  0
    1.2514   -4.1623    6.8219 H   0  0  0  0  0  0  0  0  0  0  0  0
    0.5657   -4.4044    8.4056 H   0  0  0  0  0  0  0  0  0  0  0  0
   -0.3997   -4.7292    6.9863 H   0  0  0  0  0  0  0  0  0  0  0  0
    3.2292   -5.8442    7.2560 H   0  0  0  0  0  0  0  0  0  0  0  0
    2.8790   -7.3895    8.0094 H   0  0  0  0  0  0  0  0  0  0  0  0
    2.6443   -5.9048    8.8996 H   0  0  0  0  0  0  0  0  0  0  0  0
   -0.0812   -6.6882    5.6452 H   0  0  0  0  0  0  0  0  0  0  0  0
    1.2395   -5.9955    4.0030 H   0  0  0  0  0  0  0  0  0  0  0  0
    2.1736   -5.2267    5.2194 H   0  0  0  0  0  0  0  0  0  0  0  0
    3.5892   -6.4605    3.7549 H   0  0  0  0  0  0  0  0  0  0  0  0
    3.7198   -7.0716    5.3599 H   0  0  0  0  0  0  0  0  0  0  0  0
    2.0575   -7.5387    2.0552 H   0  0  0  0  0  0  0  0  0  0  0  0
    0.7847   -7.9656    3.0580 H   0  0  0  0  0  0  0  0  0  0  0  0
    1.5946   -9.2335    2.1976 H   0  0  0  0  0  0  0  0  0  0  0  0
    2.9388  -10.9906    2.5888 H   0  0  0  0  0  0  0  0  0  0  0  0
    4.6622  -11.0749    2.4234 H   0  0  0  0  0  0  0  0  0  0  0  0
    3.7476   -9.9099    1.5444 H   0  0  0  0  0  0  0  0  0  0  0  0
    2.7468   -6.5946    0.8447 H   0  0  0  0  0  0  0  0  0  0  0  0
  1  2  1  0
  1 40  1  0
  1 41  1  0
  1 42  1  0
  2  3  1  0
  2  6  1  0
  2 43  1  1
  3  4  2  0
  3  5  1  0
  6 15  1  0
  6  7  1  0
  6 44  1  6
  7  8  1  0
  7 45  1  0
  7 46  1  0
  8  9  2  3
  8 14  1  0
  9 10  1  0
 10 11  1  0
 10 91  1  0
 11 12  1  0
 11 13  2  0
 12 47  1  0
 12 48  1  0
 13 49  1  0
 13 50  1  0
 14 15  1  0
 14 51  1  0
 14 52  1  0
 15 16  1  6
 15 17  1  0
 16 53  1  0
 16 54  1  0
 16 55  1  0
 17 38  1  0
 17 18  1  0
 17 56  1  1
 18 19  1  0
 18 57  1  0
 18 58  1  0
 19 20  1  0
 19 59  1  0
 19 60  1  0
 20 38  1  0
 20 21  1  1
 20 22  1  0
 21 61  1  0
 21 62  1  0
 21 63  1  0
 22 23  1  0
 22 64  1  0
 22 65  1  0
 23 24  1  0
 23 66  1  0
 23 67  1  0
 24 36  1  0
 24 25  2  0
 25 33  1  0
 25 26  1  0
 26 27  1  0
 26 68  1  0
 26 69  1  0
 27 28  1  0
 27 70  1  0
 27 71  1  0
 28 29  1  0
 28 30  1  0
 28 72  1  6
 29 73  1  0
 30 31  1  0
 30 32  1  0
 30 33  1  0
 31 74  1  0
 31 75  1  0
 31 76  1  0
 32 77  1  0
 32 78  1  0
 32 79  1  0
 33 34  1  0
 33 80  1  6
 34 35  1  0
 34 81  1  0
 34 82  1  0
 35 36  1  0
 35 83  1  0
 35 84  1  0
 36 37  1  6
 36 38  1  0
 37 85  1  0
 37 86  1  0
 37 87  1  0
 38 39  1  6
 39 88  1  0
 39 89  1  0
 39 90  1  0
M  CHG  2   5  -1  13   1
M  END
>  <i_m_ct_stereo_status>  (328) 
1

>  <s_m_source_file>  (328) 
/var/tmp/pbs.5076255.sched01/tmph7d3_0rd/117btfl79hs.sdf

>  <i_m_source_file_index>  (328) 
29

>  <i_lp_mmshare_version>  (328) 
48012

>  <i_f3d_flags>  (328) 
0

>  <s_epik_input>  (328) 
W05IMl1DKFtOSDJdKT1OL049QyhbQ0gyXTEpXFtDSDJdW0NAQEhdKFtDQEhdKFtDSDNdKUMoPU8pW09IXSlbQ0BAXTEoW0NIM10pW0NASF0oW0NIMl1bQ0gyXTIpW0NAQF0oW0NIM10pKFtDQF0yM1tDSDNdKVtDQEBdNChbQ0gzXSlDKFtDSDJdW0NIMl0zKT1DNVtDQEhdKFtDSDJdW0NIMl00KUMoW0NIM10pKFtDSDNdKVtDQEhdKFtPSF0pW0NIMl1bQ0gyXTU=

>  <s_epik_cmdline>  (328) 
J2VwaWtfcHl0aG9uJywgJy1waHQnLCAnMi4wJywgJy1waCcsICc3LjAnLCAnLXRuJywgJzgnLCAnLW1hJywgJzIwMCcsICctaW1hZScsICc8aW5maWxlLm1hZT4nLCAnLW9tYWUnLCAnPG91dGZpbGUubWFlPic=

>  <r_epik_Ionization_Penalty>  (328) 
0.300877

>  <r_epik_Ionization_Penalty_Charging>  (328) 
0.300857

>  <r_epik_Ionization_Penalty_Neutral>  (328) 
2.01551e-05

>  <r_epik_State_Penalty>  (328) 
0.292542

>  <r_epik_Charging_Adjusted_Penalty>  (328) 
0.593399

>  <i_epik_Tot_Q>  (328) 
0

>  <i_epik_Tot_abs_Q>  (328) 
2

>  <s_epik_Chemistry_Notes>  (328) 
This compound has an imine and may undergo hydrolysis.

>  <s_lp_Force_Field>  (328) 
OPLS3e

>  <r_lp_Energy>  (328) 
100.208

>  <b_lp_Chiralities_Consistent>  (328) 
1

>  <s_lp_Variant>  (328) 
108:0-2

>  <s_i_glide_gridfile>  (328) 
pfpi4k_grid

>  <i_i_glide_lignum>  (328) 
29

>  <i_i_glide_rotatable_bonds>  (328) 
6

>  <r_i_docking_score>  (328) 
-1.58535

>  <r_i_glide_ligand_efficiency>  (328) 
-0.04065

>  <r_i_glide_ligand_efficiency_sa>  (328) 
-0.137853

>  <r_i_glide_ligand_efficiency_ln>  (328) 
-0.339944

>  <r_i_glide_gscore>  (328) 
-1.58535

>  <r_i_glide_lipo>  (328) 
-0.252048

>  <r_i_glide_hbond>  (328) 
-0.283835

>  <r_i_glide_metal>  (328) 
-0

>  <r_i_glide_rewards>  (328) 
-0.0805671

>  <r_i_glide_evdw>  (328) 
-22.969

>  <r_i_glide_ecoul>  (328) 
-3.02047

>  <r_i_glide_erotb>  (328) 
0.282811

>  <r_i_glide_esite>  (328) 
-0.202591

>  <r_i_glide_emodel>  (328) 
-24.4611

>  <r_i_glide_energy>  (328) 
-25.9895

>  <r_i_glide_einternal>  (328) 
2.79028

>  <r_i_glide_intrahb_reward>  (328) 
-0

>  <i_i_glide_confnum>  (328) 
2

>  <i_i_glide_posenum>  (328) 
4

>  <r_i_glide_eff_state_penalty>  (328) 
0

>  <ligand_id>  (328) 
108

>  <original_smiles>  (328) 
CC(C(=O)O)C1CC(=NN=C(N)N)CC1(C)C1CCC2(C)CCC3=C4CCC(O)C(C)(C)C4CCC3(C)C12C

>  <smiles>  (328) 
[H]OC1([H])C([H])([H])C([H])([H])C2=C3C([H])([H])C([H])([H])C4(C([H])([H])[H])C([H])([H])C([H])([H])C([H])(C5(C([H])([H])[H])C([H])([H])C(=NN([H])C(N([H])[H])=[N+]([H])[H])C([H])([H])C5([H])C([H])(C(=O)[O-])C([H])([H])[H])C4(C([H])([H])[H])C3(C([H])([H])[H])C([H])([H])C([H])([H])C2([H])C1(C([H])([H])[H])C([H])([H])[H]

$$$$
108:1:2
     RDKit          3D

 91 95  0  0  1  0  0  0  0  0999 V2000
    5.7444   -7.1254    7.7016 C   0  0  0  0  0  0  0  0  0  0  0  0
    5.1186   -8.2459    8.6613 C   0  0  2  0  0  0  0  0  0  0  0  0
    6.2513   -9.1271    9.2275 C   0  0  0  0  0  0  0  0  0  0  0  0
    5.9092  -10.1683    9.8601 O   0  0  0  0  0  0  0  0  0  0  0  0
    7.4177   -8.7146    9.2293 O   0  0  0  0  0  0  0  0  0  0  0  0
    3.9058   -9.0607    8.0223 C   0  0  2  0  0  0  0  0  0  0  0  0
    4.0820   -9.4432    6.5374 C   0  0  0  0  0  0  0  0  0  0  0  0
    2.6715   -9.5900    5.9753 C   0  0  0  0  0  0  0  0  0  0  0  0
    2.5059   -9.8236    4.7216 N   0  0  0  0  0  0  0  0  0  0  0  0
    1.1400   -9.8650    4.4222 N   0  0  0  0  0  0  0  0  0  0  0  0
    0.6881   -9.7918    3.1595 C   0  0  0  0  0  0  0  0  0  0  0  0
    1.5317   -9.6974    2.1059 N   0  0  0  0  0  0  0  0  0  0  0  0
   -0.6144   -9.8159    2.8949 N   0  0  0  0  0  0  0  0  0  0  0  0
    1.6756   -9.1772    7.0465 C   0  0  0  0  0  0  0  0  0  0  0  0
    2.4504   -8.4772    8.2093 C   0  0  1  0  0  0  0  0  0  0  0  0
    1.8403   -8.9076    9.5926 C   0  0  0  0  0  0  0  0  0  0  0  0
    2.5658   -6.8992    8.0208 C   0  0  2  0  0  0  0  0  0  0  0  0
    3.0857   -6.1543    9.3353 C   0  0  0  0  0  0  0  0  0  0  0  0
    2.2461   -4.9525    9.5962 C   0  0  0  0  0  0  0  0  0  0  0  0
    1.7714   -4.5812    8.1764 C   0  0  2  0  0  0  0  0  0  0  0  0
    3.0236   -3.8614    7.5532 C   0  0  0  0  0  0  0  0  0  0  0  0
    0.5781   -3.6191    8.1375 C   0  0  0  0  0  0  0  0  0  0  0  0
   -0.1503   -3.6548    6.7699 C   0  0  0  0  0  0  0  0  0  0  0  0
    0.6866   -4.2661    5.6356 C   0  0  0  0  0  0  0  0  0  0  0  0
    1.0186   -3.6027    4.4874 C   0  0  0  0  0  0  0  0  0  0  0  0
    0.5158   -2.2029    4.1486 C   0  0  0  0  0  0  0  0  0  0  0  0
    1.6622   -1.2687    3.7930 C   0  0  0  0  0  0  0  0  0  0  0  0
    2.4468   -1.8207    2.5997 C   0  0  1  0  0  0  0  0  0  0  0  0
    3.4718   -0.8927    2.2897 O   0  0  0  0  0  0  0  0  0  0  0  0
    3.0196   -3.2529    2.8390 C   0  0  0  0  0  0  0  0  0  0  0  0
    3.5502   -3.7539    1.4742 C   0  0  0  0  0  0  0  0  0  0  0  0
    4.1892   -3.2117    3.8534 C   0  0  0  0  0  0  0  0  0  0  0  0
    1.8652   -4.1997    3.3396 C   0  0  1  0  0  0  0  0  0  0  0  0
    2.2979   -5.6640    3.5961 C   0  0  0  0  0  0  0  0  0  0  0  0
    2.4174   -6.0008    5.0847 C   0  0  0  0  0  0  0  0  0  0  0  0
    1.1251   -5.7309    5.9164 C   0  0  2  0  0  0  0  0  0  0  0  0
   -0.0178   -6.5791    5.2656 C   0  0  0  0  0  0  0  0  0  0  0  0
    1.3407   -5.9671    7.5313 C   0  0  1  0  0  0  0  0  0  0  0  0
    0.0285   -6.4936    8.2128 C   0  0  0  0  0  0  0  0  0  0  0  0
    6.4065   -6.4886    8.3182 H   0  0  0  0  0  0  0  0  0  0  0  0
    5.0357   -6.4853    7.2325 H   0  0  0  0  0  0  0  0  0  0  0  0
    6.3810   -7.5635    6.9119 H   0  0  0  0  0  0  0  0  0  0  0  0
    4.7231   -7.8061    9.5715 H   0  0  0  0  0  0  0  0  0  0  0  0
    3.8048  -10.0411    8.4967 H   0  0  0  0  0  0  0  0  0  0  0  0
    4.5198   -8.6284    5.9609 H   0  0  0  0  0  0  0  0  0  0  0  0
    4.6627  -10.3602    6.3773 H   0  0  0  0  0  0  0  0  0  0  0  0
    1.1572   -9.6698    1.1744 H   0  0  0  0  0  0  0  0  0  0  0  0
    2.5229   -9.6793    2.2633 H   0  0  0  0  0  0  0  0  0  0  0  0
   -1.3102   -9.7879    3.6427 H   0  0  0  0  0  0  0  0  0  0  0  0
   -0.9229  -10.0552    1.9708 H   0  0  0  0  0  0  0  0  0  0  0  0
    0.9718   -8.4775    6.6138 H   0  0  0  0  0  0  0  0  0  0  0  0
    1.1102  -10.0623    7.3961 H   0  0  0  0  0  0  0  0  0  0  0  0
    0.7874   -8.6062    9.6879 H   0  0  0  0  0  0  0  0  0  0  0  0
    2.3739   -8.4745   10.4489 H   0  0  0  0  0  0  0  0  0  0  0  0
    1.8336  -10.0093    9.6988 H   0  0  0  0  0  0  0  0  0  0  0  0
    3.2321   -6.7521    7.2398 H   0  0  0  0  0  0  0  0  0  0  0  0
    3.1610   -6.7447   10.2651 H   0  0  0  0  0  0  0  0  0  0  0  0
    4.1141   -5.7750    9.1339 H   0  0  0  0  0  0  0  0  0  0  0  0
    1.4055   -5.2003   10.2649 H   0  0  0  0  0  0  0  0  0  0  0  0
    2.8089   -4.1446   10.0994 H   0  0  0  0  0  0  0  0  0  0  0  0
    2.8204   -3.3647    6.6092 H   0  0  0  0  0  0  0  0  0  0  0  0
    3.8820   -4.5095    7.3838 H   0  0  0  0  0  0  0  0  0  0  0  0
    3.3944   -3.0804    8.2177 H   0  0  0  0  0  0  0  0  0  0  0  0
   -0.1094   -3.8824    8.9496 H   0  0  0  0  0  0  0  0  0  0  0  0
    0.9512   -2.6178    8.3555 H   0  0  0  0  0  0  0  0  0  0  0  0
   -1.0468   -4.2548    6.8479 H   0  0  0  0  0  0  0  0  0  0  0  0
   -0.5182   -2.6609    6.5905 H   0  0  0  0  0  0  0  0  0  0  0  0
   -0.1470   -2.3030    3.2931 H   0  0  0  0  0  0  0  0  0  0  0  0
   -0.0819   -1.7326    4.9177 H   0  0  0  0  0  0  0  0  0  0  0  0
    1.2561   -0.2864    3.5454 H   0  0  0  0  0  0  0  0  0  0  0  0
    2.3051   -1.1263    4.6639 H   0  0  0  0  0  0  0  0  0  0  0  0
    1.7705   -1.8390    1.7390 H   0  0  0  0  0  0  0  0  0  0  0  0
    3.7368   -1.0296    1.3998 H   0  0  0  0  0  0  0  0  0  0  0  0
    4.0537   -4.7159    1.5347 H   0  0  0  0  0  0  0  0  0  0  0  0
    4.2716   -3.0598    1.0449 H   0  0  0  0  0  0  0  0  0  0  0  0
    2.7404   -3.8524    0.7504 H   0  0  0  0  0  0  0  0  0  0  0  0
    4.6032   -4.1994    4.0457 H   0  0  0  0  0  0  0  0  0  0  0  0
    3.8777   -2.7946    4.8057 H   0  0  0  0  0  0  0  0  0  0  0  0
    5.0126   -2.5935    3.4966 H   0  0  0  0  0  0  0  0  0  0  0  0
    1.1639   -4.2617    2.5098 H   0  0  0  0  0  0  0  0  0  0  0  0
    1.5862   -6.3430    3.1293 H   0  0  0  0  0  0  0  0  0  0  0  0
    3.2437   -5.9012    3.1066 H   0  0  0  0  0  0  0  0  0  0  0  0
    2.7170   -7.0413    5.1415 H   0  0  0  0  0  0  0  0  0  0  0  0
    3.2708   -5.4444    5.4704 H   0  0  0  0  0  0  0  0  0  0  0  0
    0.2754   -7.5951    5.0292 H   0  0  0  0  0  0  0  0  0  0  0  0
   -0.3066   -6.1634    4.2972 H   0  0  0  0  0  0  0  0  0  0  0  0
   -0.9331   -6.5977    5.8537 H   0  0  0  0  0  0  0  0  0  0  0  0
   -0.8758   -5.9038    8.0126 H   0  0  0  0  0  0  0  0  0  0  0  0
    0.1296   -6.5206    9.3042 H   0  0  0  0  0  0  0  0  0  0  0  0
   -0.2199   -7.5171    7.9152 H   0  0  0  0  0  0  0  0  0  0  0  0
    0.5434   -9.9052    5.2187 H   0  0  0  0  0  0  0  0  0  0  0  0
  1  2  1  0
  1 40  1  0
  1 41  1  0
  1 42  1  0
  2  3  1  0
  2  6  1  0
  2 43  1  1
  3  4  2  0
  3  5  1  0
  6 15  1  0
  6  7  1  0
  6 44  1  1
  7  8  1  0
  7 45  1  0
  7 46  1  0
  8  9  2  3
  8 14  1  0
  9 10  1  0
 10 11  1  0
 10 91  1  0
 11 12  1  0
 11 13  2  0
 12 47  1  0
 12 48  1  0
 13 49  1  0
 13 50  1  0
 14 15  1  0
 14 51  1  0
 14 52  1  0
 15 16  1  1
 15 17  1  0
 16 53  1  0
 16 54  1  0
 16 55  1  0
 17 38  1  0
 17 18  1  0
 17 56  1  6
 18 19  1  0
 18 57  1  0
 18 58  1  0
 19 20  1  0
 19 59  1  0
 19 60  1  0
 20 38  1  0
 20 21  1  6
 20 22  1  0
 21 61  1  0
 21 62  1  0
 21 63  1  0
 22 23  1  0
 22 64  1  0
 22 65  1  0
 23 24  1  0
 23 66  1  0
 23 67  1  0
 24 36  1  0
 24 25  2  0
 25 33  1  0
 25 26  1  0
 26 27  1  0
 26 68  1  0
 26 69  1  0
 27 28  1  0
 27 70  1  0
 27 71  1  0
 28 29  1  0
 28 30  1  0
 28 72  1  6
 29 73  1  0
 30 31  1  0
 30 32  1  0
 30 33  1  0
 31 74  1  0
 31 75  1  0
 31 76  1  0
 32 77  1  0
 32 78  1  0
 32 79  1  0
 33 34  1  0
 33 80  1  6
 34 35  1  0
 34 81  1  0
 34 82  1  0
 35 36  1  0
 35 83  1  0
 35 84  1  0
 36 37  1  6
 36 38  1  0
 37 85  1  0
 37 86  1  0
 37 87  1  0
 38 39  1  1
 39 88  1  0
 39 89  1  0
 39 90  1  0
M  CHG  2   5  -1  13   1
M  END
>  <i_m_ct_stereo_status>  (329) 
1

>  <s_m_source_file>  (329) 
/var/tmp/pbs.5076255.sched01/tmph7d3_0rd/117btfl79hs.sdf

>  <i_m_source_file_index>  (329) 
29

>  <i_lp_mmshare_version>  (329) 
48012

>  <i_f3d_flags>  (329) 
0

>  <s_epik_input>  (329) 
W05IMl1DKFtOSDJdKT1OL049QyhbQ0gyXTEpXFtDSDJdW0NAQEhdKFtDQEhdKFtDSDNdKUMoPU8pW09IXSlbQ0BAXTEoW0NIM10pW0NASF0oW0NIMl1bQ0gyXTIpW0NAQF0oW0NIM10pKFtDQF0yM1tDSDNdKVtDQEBdNChbQ0gzXSlDKFtDSDJdW0NIMl0zKT1DNVtDQEhdKFtDSDJdW0NIMl00KUMoW0NIM10pKFtDSDNdKVtDQEhdKFtPSF0pW0NIMl1bQ0gyXTU=

>  <s_epik_cmdline>  (329) 
J2VwaWtfcHl0aG9uJywgJy1waHQnLCAnMi4wJywgJy1waCcsICc3LjAnLCAnLXRuJywgJzgnLCAnLW1hJywgJzIwMCcsICctaW1hZScsICc8aW5maWxlLm1hZT4nLCAnLW9tYWUnLCAnPG91dGZpbGUubWFlPic=

>  <r_epik_Ionization_Penalty>  (329) 
0.300877

>  <r_epik_Ionization_Penalty_Charging>  (329) 
0.300857

>  <r_epik_Ionization_Penalty_Neutral>  (329) 
2.01551e-05

>  <r_epik_State_Penalty>  (329) 
0.292542

>  <r_epik_Charging_Adjusted_Penalty>  (329) 
0.593399

>  <i_epik_Tot_Q>  (329) 
0

>  <i_epik_Tot_abs_Q>  (329) 
2

>  <s_epik_Chemistry_Notes>  (329) 
This compound has an imine and may undergo hydrolysis.

>  <s_lp_Force_Field>  (329) 
OPLS3e

>  <r_lp_Energy>  (329) 
100.208

>  <b_lp_Chiralities_Consistent>  (329) 
1

>  <s_lp_Variant>  (329) 
108:0-2

>  <s_i_glide_gridfile>  (329) 
pfpi4k_grid

>  <i_i_glide_lignum>  (329) 
29

>  <i_i_glide_rotatable_bonds>  (329) 
6

>  <r_i_docking_score>  (329) 
-1.26431

>  <r_i_glide_ligand_efficiency>  (329) 
-0.0324181

>  <r_i_glide_ligand_efficiency_sa>  (329) 
-0.109937

>  <r_i_glide_ligand_efficiency_ln>  (329) 
-0.271103

>  <r_i_glide_gscore>  (329) 
-1.26431

>  <r_i_glide_lipo>  (329) 
-0.0635104

>  <r_i_glide_hbond>  (329) 
-0.121989

>  <r_i_glide_metal>  (329) 
-0

>  <r_i_glide_rewards>  (329) 
0

>  <r_i_glide_evdw>  (329) 
-20.5929

>  <r_i_glide_ecoul>  (329) 
-4.5571

>  <r_i_glide_erotb>  (329) 
0.282811

>  <r_i_glide_esite>  (329) 
-0.0923269

>  <r_i_glide_emodel>  (329) 
-23.279

>  <r_i_glide_energy>  (329) 
-25.15

>  <r_i_glide_einternal>  (329) 
1.90144

>  <r_i_glide_intrahb_reward>  (329) 
-0

>  <i_i_glide_confnum>  (329) 
2

>  <i_i_glide_posenum>  (329) 
2

>  <r_i_glide_eff_state_penalty>  (329) 
0

>  <ligand_id>  (329) 
108

>  <original_smiles>  (329) 
CC(C(=O)O)C1CC(=NN=C(N)N)CC1(C)C1CCC2(C)CCC3=C4CCC(O)C(C)(C)C4CCC3(C)C12C

>  <smiles>  (329) 
[H]OC1([H])C([H])([H])C([H])([H])C2=C3C([H])([H])C([H])([H])C4(C([H])([H])[H])C([H])([H])C([H])([H])C([H])(C5(C([H])([H])[H])C([H])([H])C(=NN([H])C(N([H])[H])=[N+]([H])[H])C([H])([H])C5([H])C([H])(C(=O)[O-])C([H])([H])[H])C4(C([H])([H])[H])C3(C([H])([H])[H])C([H])([H])C([H])([H])C2([H])C1(C([H])([H])[H])C([H])([H])[H]

$$$$
108:2:0
     RDKit          3D

 90 94  0  0  1  0  0  0  0  0999 V2000
   -0.9220   -1.7693    5.5521 C   0  0  0  0  0  0  0  0  0  0  0  0
   -0.1754   -0.7273    6.4681 C   0  0  2  0  0  0  0  0  0  0  0  0
   -0.8742    0.6206    6.4019 C   0  0  0  0  0  0  0  0  0  0  0  0
   -0.2732    1.6299    6.0135 O   0  0  0  0  0  0  0  0  0  0  0  0
   -2.0599    0.6149    6.8373 O   0  0  0  0  0  0  0  0  0  0  0  0
    1.3818   -0.6622    6.3239 C   0  0  2  0  0  0  0  0  0  0  0  0
    1.8806   -0.7583    4.8684 C   0  0  0  0  0  0  0  0  0  0  0  0
    3.2926   -1.3074    4.9355 C   0  0  0  0  0  0  0  0  0  0  0  0
    4.0889   -1.5337    3.9868 N   0  0  0  0  0  0  0  0  0  0  0  0
    3.5354   -1.2111    2.7014 N   0  0  0  0  0  0  0  0  0  0  0  0
    4.4767   -0.8144    1.8327 C   0  0  0  0  0  0  0  0  0  0  0  0
    5.8046   -0.8063    2.0289 N   0  0  0  0  0  0  0  0  0  0  0  0
    4.0522   -0.3096    0.6414 N   0  0  0  0  0  0  0  0  0  0  0  0
    3.5759   -1.6934    6.3642 C   0  0  0  0  0  0  0  0  0  0  0  0
    2.2585   -1.6494    7.1909 C   0  0  1  0  0  0  0  0  0  0  0  0
    2.5524   -1.0791    8.6088 C   0  0  0  0  0  0  0  0  0  0  0  0
    1.5417   -3.0528    7.2591 C   0  0  2  0  0  0  0  0  0  0  0  0
    0.3343   -3.1217    8.2818 C   0  0  0  0  0  0  0  0  0  0  0  0
    0.4248   -4.4052    9.0378 C   0  0  0  0  0  0  0  0  0  0  0  0
    1.0705   -5.3117    7.9888 C   0  0  2  0  0  0  0  0  0  0  0  0
   -0.1261   -5.6813    7.0327 C   0  0  0  0  0  0  0  0  0  0  0  0
    1.6371   -6.6241    8.5643 C   0  0  0  0  0  0  0  0  0  0  0  0
    2.6699   -7.2889    7.6182 C   0  0  0  0  0  0  0  0  0  0  0  0
    2.5953   -6.7835    6.1654 C   0  0  0  0  0  0  0  0  0  0  0  0
    2.3639   -7.5965    5.0947 C   0  0  0  0  0  0  0  0  0  0  0  0
    2.2508   -9.1199    5.1808 C   0  0  0  0  0  0  0  0  0  0  0  0
    0.9648   -9.6255    4.5310 C   0  0  0  0  0  0  0  0  0  0  0  0
    0.9128   -9.2072    3.0628 C   0  0  1  0  0  0  0  0  0  0  0  0
   -0.2855   -9.7152    2.4829 O   0  0  0  0  0  0  0  0  0  0  0  0
    1.0179   -7.6671    2.8476 C   0  0  0  0  0  0  0  0  0  0  0  0
    1.2178   -7.4245    1.3303 C   0  0  0  0  0  0  0  0  0  0  0  0
   -0.2840   -6.9706    3.3063 C   0  0  0  0  0  0  0  0  0  0  0  0
    2.2681   -7.1098    3.6272 C   0  0  1  0  0  0  0  0  0  0  0  0
    2.4876   -5.5836    3.4788 C   0  0  0  0  0  0  0  0  0  0  0  0
    2.0947   -4.7909    4.7266 C   0  0  0  0  0  0  0  0  0  0  0  0
    2.8083   -5.2433    6.0364 C   0  0  2  0  0  0  0  0  0  0  0  0
    4.3495   -5.1111    5.7723 C   0  0  0  0  0  0  0  0  0  0  0  0
    2.2624   -4.4557    7.3723 C   0  0  1  0  0  0  0  0  0  0  0  0
    3.4024   -4.2832    8.4376 C   0  0  0  0  0  0  0  0  0  0  0  0
   -1.9339   -1.9355    5.9038 H   0  0  0  0  0  0  0  0  0  0  0  0
   -0.5222   -2.7746    5.4750 H   0  0  0  0  0  0  0  0  0  0  0  0
   -0.9654   -1.4400    4.5158 H   0  0  0  0  0  0  0  0  0  0  0  0
   -0.3380   -0.9194    7.5107 H   0  0  0  0  0  0  0  0  0  0  0  0
    1.7418    0.3161    6.6591 H   0  0  0  0  0  0  0  0  0  0  0  0
    1.3028   -1.4768    4.2868 H   0  0  0  0  0  0  0  0  0  0  0  0
    1.8636    0.2074    4.3494 H   0  0  0  0  0  0  0  0  0  0  0  0
    6.2454   -1.1111    2.8943 H   0  0  0  0  0  0  0  0  0  0  0  0
    6.4510   -0.2854    1.4182 H   0  0  0  0  0  0  0  0  0  0  0  0
    3.0702   -0.1816    0.4405 H   0  0  0  0  0  0  0  0  0  0  0  0
    4.6470    0.2703    0.0527 H   0  0  0  0  0  0  0  0  0  0  0  0
    3.9700   -2.6955    6.3394 H   0  0  0  0  0  0  0  0  0  0  0  0
    4.3638   -1.0431    6.7722 H   0  0  0  0  0  0  0  0  0  0  0  0
    3.2619   -1.6941    9.1522 H   0  0  0  0  0  0  0  0  0  0  0  0
    1.6834   -0.9824    9.2444 H   0  0  0  0  0  0  0  0  0  0  0  0
    2.9809   -0.0835    8.5689 H   0  0  0  0  0  0  0  0  0  0  0  0
    1.1867   -3.1566    6.2710 H   0  0  0  0  0  0  0  0  0  0  0  0
    0.2236   -2.3448    9.0186 H   0  0  0  0  0  0  0  0  0  0  0  0
   -0.6170   -3.1368    7.7452 H   0  0  0  0  0  0  0  0  0  0  0  0
    1.0412   -4.2774    9.9261 H   0  0  0  0  0  0  0  0  0  0  0  0
   -0.5599   -4.7268    9.3839 H   0  0  0  0  0  0  0  0  0  0  0  0
    0.1020   -6.4772    6.3280 H   0  0  0  0  0  0  0  0  0  0  0  0
   -0.5010   -4.8462    6.4425 H   0  0  0  0  0  0  0  0  0  0  0  0
   -0.9870   -6.0340    7.6061 H   0  0  0  0  0  0  0  0  0  0  0  0
    2.1096   -6.4120    9.5269 H   0  0  0  0  0  0  0  0  0  0  0  0
    0.8083   -7.3054    8.7826 H   0  0  0  0  0  0  0  0  0  0  0  0
    3.6764   -7.0784    7.9606 H   0  0  0  0  0  0  0  0  0  0  0  0
    2.5802   -8.3560    7.7514 H   0  0  0  0  0  0  0  0  0  0  0  0
    3.1145   -9.5458    4.6650 H   0  0  0  0  0  0  0  0  0  0  0  0
    2.2997   -9.5243    6.1874 H   0  0  0  0  0  0  0  0  0  0  0  0
    0.9301  -10.7140    4.6158 H   0  0  0  0  0  0  0  0  0  0  0  0
    0.1014   -9.2549    5.0857 H   0  0  0  0  0  0  0  0  0  0  0  0
    1.7392   -9.7014    2.5480 H   0  0  0  0  0  0  0  0  0  0  0  0
   -0.2117   -9.6876    1.5708 H   0  0  0  0  0  0  0  0  0  0  0  0
    1.2332   -6.3755    1.0493 H   0  0  0  0  0  0  0  0  0  0  0  0
    0.4075   -7.8468    0.7463 H   0  0  0  0  0  0  0  0  0  0  0  0
    2.1514   -7.8755    0.9888 H   0  0  0  0  0  0  0  0  0  0  0  0
   -0.2176   -5.8938    3.1733 H   0  0  0  0  0  0  0  0  0  0  0  0
   -0.4952   -7.1562    4.3564 H   0  0  0  0  0  0  0  0  0  0  0  0
   -1.1521   -7.3176    2.7454 H   0  0  0  0  0  0  0  0  0  0  0  0
    3.1368   -7.5674    3.1483 H   0  0  0  0  0  0  0  0  0  0  0  0
    3.5323   -5.3884    3.2379 H   0  0  0  0  0  0  0  0  0  0  0  0
    1.9498   -5.1706    2.6244 H   0  0  0  0  0  0  0  0  0  0  0  0
    2.3039   -3.7498    4.5016 H   0  0  0  0  0  0  0  0  0  0  0  0
    1.0124   -4.8451    4.8194 H   0  0  0  0  0  0  0  0  0  0  0  0
    4.6484   -4.1925    5.2681 H   0  0  0  0  0  0  0  0  0  0  0  0
    4.6954   -5.8863    5.0854 H   0  0  0  0  0  0  0  0  0  0  0  0
    4.9588   -5.2440    6.6649 H   0  0  0  0  0  0  0  0  0  0  0  0
    3.9500   -5.1948    8.6906 H   0  0  0  0  0  0  0  0  0  0  0  0
    3.0276   -3.8952    9.3876 H   0  0  0  0  0  0  0  0  0  0  0  0
    4.1841   -3.5829    8.1453 H   0  0  0  0  0  0  0  0  0  0  0  0
  1  2  1  0
  1 40  1  0
  1 41  1  0
  1 42  1  0
  2  3  1  0
  2  6  1  0
  2 43  1  1
  3  4  2  0
  3  5  1  0
  6 15  1  0
  6  7  1  0
  6 44  1  1
  7  8  1  0
  7 45  1  0
  7 46  1  0
  8  9  2  3
  8 14  1  0
  9 10  1  0
 10 11  2  3
 11 12  1  0
 11 13  1  0
 12 47  1  0
 12 48  1  0
 13 49  1  0
 13 50  1  0
 14 15  1  0
 14 51  1  0
 14 52  1  0
 15 16  1  1
 15 17  1  0
 16 53  1  0
 16 54  1  0
 16 55  1  0
 17 38  1  0
 17 18  1  0
 17 56  1  6
 18 19  1  0
 18 57  1  0
 18 58  1  0
 19 20  1  0
 19 59  1  0
 19 60  1  0
 20 38  1  0
 20 21  1  6
 20 22  1  0
 21 61  1  0
 21 62  1  0
 21 63  1  0
 22 23  1  0
 22 64  1  0
 22 65  1  0
 23 24  1  0
 23 66  1  0
 23 67  1  0
 24 36  1  0
 24 25  2  0
 25 33  1  0
 25 26  1  0
 26 27  1  0
 26 68  1  0
 26 69  1  0
 27 28  1  0
 27 70  1  0
 27 71  1  0
 28 29  1  0
 28 30  1  0
 28 72  1  6
 29 73  1  0
 30 31  1  0
 30 32  1  0
 30 33  1  0
 31 74  1  0
 31 75  1  0
 31 76  1  0
 32 77  1  0
 32 78  1  0
 32 79  1  0
 33 34  1  0
 33 80  1  6
 34 35  1  0
 34 81  1  0
 34 82  1  0
 35 36  1  0
 35 83  1  0
 35 84  1  0
 36 37  1  6
 36 38  1  0
 37 85  1  0
 37 86  1  0
 37 87  1  0
 38 39  1  1
 39 88  1  0
 39 89  1  0
 39 90  1  0
M  CHG  1   5  -1
M  END
>  <i_m_ct_stereo_status>  (330) 
1

>  <s_m_source_file>  (330) 
/var/tmp/pbs.5076255.sched01/tmph7d3_0rd/117btfl79hs.sdf

>  <i_m_source_file_index>  (330) 
30

>  <i_lp_mmshare_version>  (330) 
48012

>  <i_f3d_flags>  (330) 
0

>  <s_epik_input>  (330) 
W05IMl1DKFtOSDJdKT1OL049QyhbQ0gyXTEpXFtDSDJdW0NAQEhdKFtDQEhdKFtDSDNdKUMoPU8pW09IXSlbQ0BAXTEoW0NIM10pW0NASF0oW0NIMl1bQ0gyXTIpW0NAQF0oW0NIM10pKFtDQF0yM1tDSDNdKVtDQEBdNChbQ0gzXSlDKFtDSDJdW0NIMl0zKT1DNVtDQEhdKFtDSDJdW0NIMl00KUMoW0NIM10pKFtDSDNdKVtDQEhdKFtPSF0pW0NIMl1bQ0gyXTU=

>  <s_epik_cmdline>  (330) 
J2VwaWtfcHl0aG9uJywgJy1waHQnLCAnMi4wJywgJy1waCcsICc3LjAnLCAnLXRuJywgJzgnLCAnLW1hJywgJzIwMCcsICctaW1hZScsICc8aW5maWxlLm1hZT4nLCAnLW9tYWUnLCAnPG91dGZpbGUubWFlPic=

>  <r_epik_Ionization_Penalty>  (330) 
0.549535

>  <r_epik_Ionization_Penalty_Charging>  (330) 
0.00127257

>  <r_epik_Ionization_Penalty_Neutral>  (330) 
0.548262

>  <r_epik_State_Penalty>  (330) 
0.558394

>  <r_epik_Charging_Adjusted_Penalty>  (330) 
0.559666

>  <i_epik_Tot_Q>  (330) 
-1

>  <i_epik_Tot_abs_Q>  (330) 
1

>  <s_epik_Chemistry_Notes>  (330) 
This compound has an imine and may undergo hydrolysis.

>  <s_lp_Force_Field>  (330) 
OPLS3e

>  <r_lp_Energy>  (330) 
107.615

>  <b_lp_Chiralities_Consistent>  (330) 
1

>  <s_lp_Variant>  (330) 
108:0-3

>  <s_i_glide_gridfile>  (330) 
pfpi4k_grid

>  <i_i_glide_lignum>  (330) 
30

>  <i_i_glide_rotatable_bonds>  (330) 
5

>  <r_i_docking_score>  (330) 
-2.70268

>  <r_i_glide_ligand_efficiency>  (330) 
-0.0692995

>  <r_i_glide_ligand_efficiency_sa>  (330) 
-0.235009

>  <r_i_glide_ligand_efficiency_ln>  (330) 
-0.579531

>  <r_i_glide_gscore>  (330) 
-2.70268

>  <r_i_glide_lipo>  (330) 
-0.0873171

>  <r_i_glide_hbond>  (330) 
-0.773357

>  <r_i_glide_metal>  (330) 
-0

>  <r_i_glide_rewards>  (330) 
0

>  <r_i_glide_evdw>  (330) 
-28.6965

>  <r_i_glide_ecoul>  (330) 
-7.66248

>  <r_i_glide_erotb>  (330) 
0.212839

>  <r_i_glide_esite>  (330) 
-0.0441252

>  <r_i_glide_emodel>  (330) 
-39.5055

>  <r_i_glide_energy>  (330) 
-36.3589

>  <r_i_glide_einternal>  (330) 
1.07407

>  <r_i_glide_intrahb_reward>  (330) 
-0

>  <i_i_glide_confnum>  (330) 
3

>  <i_i_glide_posenum>  (330) 
33

>  <r_i_glide_eff_state_penalty>  (330) 
0

>  <ligand_id>  (330) 
108

>  <original_smiles>  (330) 
CC(C(=O)O)C1CC(=NN=C(N)N)CC1(C)C1CCC2(C)CCC3=C4CCC(O)C(C)(C)C4CCC3(C)C12C

>  <smiles>  (330) 
[H]OC1([H])C([H])([H])C([H])([H])C2=C3C([H])([H])C([H])([H])C4(C([H])([H])[H])C([H])([H])C([H])([H])C([H])(C5(C([H])([H])[H])C([H])([H])C(=NN=C(N([H])[H])N([H])[H])C([H])([H])C5([H])C([H])(C(=O)[O-])C([H])([H])[H])C4(C([H])([H])[H])C3(C([H])([H])[H])C([H])([H])C([H])([H])C2([H])C1(C([H])([H])[H])C([H])([H])[H]

$$$$
108:2:1
     RDKit          3D

 90 94  0  0  1  0  0  0  0  0999 V2000
   -0.3192   -3.2608    5.4224 C   0  0  0  0  0  0  0  0  0  0  0  0
    0.3801   -1.9429    5.9395 C   0  0  2  0  0  0  0  0  0  0  0  0
   -0.6100   -0.7554    5.8257 C   0  0  0  0  0  0  0  0  0  0  0  0
   -1.8130   -0.9925    6.0597 O   0  0  0  0  0  0  0  0  0  0  0  0
   -0.1360    0.4039    5.7771 O   0  0  0  0  0  0  0  0  0  0  0  0
    1.7971   -1.6756    5.3055 C   0  0  2  0  0  0  0  0  0  0  0  0
    1.8933   -1.9837    3.8164 C   0  0  0  0  0  0  0  0  0  0  0  0
    3.3716   -2.3189    3.5127 C   0  0  0  0  0  0  0  0  0  0  0  0
    3.8596   -2.6569    2.4553 N   0  0  0  0  0  0  0  0  0  0  0  0
    2.9605   -2.5404    1.3511 N   0  0  0  0  0  0  0  0  0  0  0  0
    3.0903   -3.4636    0.4353 C   0  0  0  0  0  0  0  0  0  0  0  0
    3.9804   -4.5031    0.4332 N   0  0  0  0  0  0  0  0  0  0  0  0
    2.2834   -3.4579   -0.6724 N   0  0  0  0  0  0  0  0  0  0  0  0
    4.0863   -2.3480    4.8837 C   0  0  0  0  0  0  0  0  0  0  0  0
    3.0310   -2.3393    6.0225 C   0  0  1  0  0  0  0  0  0  0  0  0
    3.5560   -1.4396    7.1998 C   0  0  0  0  0  0  0  0  0  0  0  0
    2.6277   -3.8030    6.4724 C   0  0  2  0  0  0  0  0  0  0  0  0
    1.7265   -3.8136    7.7725 C   0  0  0  0  0  0  0  0  0  0  0  0
    2.2220   -4.8796    8.7053 C   0  0  0  0  0  0  0  0  0  0  0  0
    2.8354   -5.8889    7.7154 C   0  0  2  0  0  0  0  0  0  0  0  0
    1.5839   -6.6447    7.1321 C   0  0  0  0  0  0  0  0  0  0  0  0
    3.7637   -6.9094    8.3835 C   0  0  0  0  0  0  0  0  0  0  0  0
    4.7158   -7.5784    7.3633 C   0  0  0  0  0  0  0  0  0  0  0  0
    4.2729   -7.4297    5.8968 C   0  0  0  0  0  0  0  0  0  0  0  0
    4.0213   -8.4916    5.0701 C   0  0  0  0  0  0  0  0  0  0  0  0
    4.2574   -9.9474    5.4615 C   0  0  0  0  0  0  0  0  0  0  0  0
    3.0157  -10.7984    5.2210 C   0  0  0  0  0  0  0  0  0  0  0  0
    2.6096  -10.7349    3.7426 C   0  0  1  0  0  0  0  0  0  0  0  0
    1.4907  -11.5842    3.5586 O   0  0  0  0  0  0  0  0  0  0  0  0
    2.3399   -9.2837    3.2354 C   0  0  0  0  0  0  0  0  0  0  0  0
    2.2157   -9.3683    1.6982 C   0  0  0  0  0  0  0  0  0  0  0  0
    1.0183   -8.7324    3.8292 C   0  0  0  0  0  0  0  0  0  0  0  0
    3.5586   -8.3615    3.6004 C   0  0  1  0  0  0  0  0  0  0  0  0
    3.4192   -6.8946    3.1289 C   0  0  0  0  0  0  0  0  0  0  0  0
    3.1042   -5.9224    4.2684 C   0  0  0  0  0  0  0  0  0  0  0  0
    4.1316   -5.9510    5.4403 C   0  0  2  0  0  0  0  0  0  0  0  0
    5.5329   -5.6118    4.8230 C   0  0  0  0  0  0  0  0  0  0  0  0
    3.6697   -4.9968    6.6970 C   0  0  1  0  0  0  0  0  0  0  0  0
    4.9307   -4.3916    7.4176 C   0  0  0  0  0  0  0  0  0  0  0  0
   -1.1817   -3.4964    6.0689 H   0  0  0  0  0  0  0  0  0  0  0  0
    0.2951   -4.1502    5.3833 H   0  0  0  0  0  0  0  0  0  0  0  0
   -0.6677   -3.1314    4.3985 H   0  0  0  0  0  0  0  0  0  0  0  0
    0.5338   -1.9812    7.0139 H   0  0  0  0  0  0  0  0  0  0  0  0
    2.0414   -0.6126    5.3487 H   0  0  0  0  0  0  0  0  0  0  0  0
    1.3570   -2.8917    3.5209 H   0  0  0  0  0  0  0  0  0  0  0  0
    1.5574   -1.1583    3.1694 H   0  0  0  0  0  0  0  0  0  0  0  0
    4.6734   -4.6207    1.1779 H   0  0  0  0  0  0  0  0  0  0  0  0
    4.1739   -5.0488   -0.4040 H   0  0  0  0  0  0  0  0  0  0  0  0
    1.7331   -2.5732   -0.8285 H   0  0  0  0  0  0  0  0  0  0  0  0
    2.4961   -3.9222   -1.5319 H   0  0  0  0  0  0  0  0  0  0  0  0
    4.6623   -3.2635    4.8963 H   0  0  0  0  0  0  0  0  0  0  0  0
    4.7837   -1.4928    4.9132 H   0  0  0  0  0  0  0  0  0  0  0  0
    4.5206   -1.7889    7.5851 H   0  0  0  0  0  0  0  0  0  0  0  0
    2.8632   -1.4099    8.0470 H   0  0  0  0  0  0  0  0  0  0  0  0
    3.7367   -0.4061    6.8655 H   0  0  0  0  0  0  0  0  0  0  0  0
    2.0718   -4.1911    5.6493 H   0  0  0  0  0  0  0  0  0  0  0  0
    1.6472   -2.8690    8.3367 H   0  0  0  0  0  0  0  0  0  0  0  0
    0.6932   -4.0881    7.5006 H   0  0  0  0  0  0  0  0  0  0  0  0
    2.9607   -4.4690    9.4080 H   0  0  0  0  0  0  0  0  0  0  0  0
    1.3987   -5.2891    9.3106 H   0  0  0  0  0  0  0  0  0  0  0  0
    1.8403   -7.5257    6.5498 H   0  0  0  0  0  0  0  0  0  0  0  0
    0.9397   -6.0315    6.5006 H   0  0  0  0  0  0  0  0  0  0  0  0
    0.9371   -7.0057    7.9322 H   0  0  0  0  0  0  0  0  0  0  0  0
    4.3393   -6.4013    9.1636 H   0  0  0  0  0  0  0  0  0  0  0  0
    3.1431   -7.6502    8.8919 H   0  0  0  0  0  0  0  0  0  0  0  0
    5.6967   -7.1257    7.4326 H   0  0  0  0  0  0  0  0  0  0  0  0
    4.8734   -8.5861    7.7067 H   0  0  0  0  0  0  0  0  0  0  0  0
    5.0798  -10.3192    4.8491 H   0  0  0  0  0  0  0  0  0  0  0  0
    4.5708  -10.0988    6.4871 H   0  0  0  0  0  0  0  0  0  0  0  0
    3.2252  -11.8295    5.5096 H   0  0  0  0  0  0  0  0  0  0  0  0
    2.2040  -10.4645    5.8701 H   0  0  0  0  0  0  0  0  0  0  0  0
    3.4206  -11.1692    3.1507 H   0  0  0  0  0  0  0  0  0  0  0  0
    1.7663  -12.4802    3.6623 H   0  0  0  0  0  0  0  0  0  0  0  0
    1.9284   -8.4306    1.2342 H   0  0  0  0  0  0  0  0  0  0  0  0
    1.4502  -10.0840    1.4197 H   0  0  0  0  0  0  0  0  0  0  0  0
    3.1450   -9.7006    1.2326 H   0  0  0  0  0  0  0  0  0  0  0  0
    0.8036   -7.7223    3.4879 H   0  0  0  0  0  0  0  0  0  0  0  0
    1.0457   -8.7127    4.9146 H   0  0  0  0  0  0  0  0  0  0  0  0
    0.1619   -9.3458    3.5515 H   0  0  0  0  0  0  0  0  0  0  0  0
    4.4031   -8.7599    3.0343 H   0  0  0  0  0  0  0  0  0  0  0  0
    4.3382   -6.5853    2.6339 H   0  0  0  0  0  0  0  0  0  0  0  0
    2.6600   -6.7813    2.3550 H   0  0  0  0  0  0  0  0  0  0  0  0
    3.0447   -4.9393    3.8164 H   0  0  0  0  0  0  0  0  0  0  0  0
    2.0917   -6.1373    4.6063 H   0  0  0  0  0  0  0  0  0  0  0  0
    5.5274   -4.7838    4.1143 H   0  0  0  0  0  0  0  0  0  0  0  0
    5.8996   -6.4593    4.2396 H   0  0  0  0  0  0  0  0  0  0  0  0
    6.3049   -5.4412    5.5695 H   0  0  0  0  0  0  0  0  0  0  0  0
    5.7042   -5.1091    7.7068 H   0  0  0  0  0  0  0  0  0  0  0  0
    4.6613   -3.8627    8.3354 H   0  0  0  0  0  0  0  0  0  0  0  0
    5.4522   -3.6624    6.7974 H   0  0  0  0  0  0  0  0  0  0  0  0
  1  2  1  0
  1 40  1  0
  1 41  1  0
  1 42  1  0
  2  3  1  0
  2  6  1  0
  2 43  1  1
  3  4  2  0
  3  5  1  0
  6 15  1  0
  6  7  1  0
  6 44  1  6
  7  8  1  0
  7 45  1  0
  7 46  1  0
  8  9  2  3
  8 14  1  0
  9 10  1  0
 10 11  2  3
 11 12  1  0
 11 13  1  0
 12 47  1  0
 12 48  1  0
 13 49  1  0
 13 50  1  0
 14 15  1  0
 14 51  1  0
 14 52  1  0
 15 16  1  1
 15 17  1  0
 16 53  1  0
 16 54  1  0
 16 55  1  0
 17 38  1  0
 17 18  1  0
 17 56  1  6
 18 19  1  0
 18 57  1  0
 18 58  1  0
 19 20  1  0
 19 59  1  0
 19 60  1  0
 20 38  1  0
 20 21  1  6
 20 22  1  0
 21 61  1  0
 21 62  1  0
 21 63  1  0
 22 23  1  0
 22 64  1  0
 22 65  1  0
 23 24  1  0
 23 66  1  0
 23 67  1  0
 24 36  1  0
 24 25  2  0
 25 33  1  0
 25 26  1  0
 26 27  1  0
 26 68  1  0
 26 69  1  0
 27 28  1  0
 27 70  1  0
 27 71  1  0
 28 29  1  0
 28 30  1  0
 28 72  1  6
 29 73  1  0
 30 31  1  0
 30 32  1  0
 30 33  1  0
 31 74  1  0
 31 75  1  0
 31 76  1  0
 32 77  1  0
 32 78  1  0
 32 79  1  0
 33 34  1  0
 33 80  1  6
 34 35  1  0
 34 81  1  0
 34 82  1  0
 35 36  1  0
 35 83  1  0
 35 84  1  0
 36 37  1  6
 36 38  1  0
 37 85  1  0
 37 86  1  0
 37 87  1  0
 38 39  1  1
 39 88  1  0
 39 89  1  0
 39 90  1  0
M  CHG  1   5  -1
M  END
>  <i_m_ct_stereo_status>  (331) 
1

>  <s_m_source_file>  (331) 
/var/tmp/pbs.5076255.sched01/tmph7d3_0rd/117btfl79hs.sdf

>  <i_m_source_file_index>  (331) 
30

>  <i_lp_mmshare_version>  (331) 
48012

>  <i_f3d_flags>  (331) 
0

>  <s_epik_input>  (331) 
W05IMl1DKFtOSDJdKT1OL049QyhbQ0gyXTEpXFtDSDJdW0NAQEhdKFtDQEhdKFtDSDNdKUMoPU8pW09IXSlbQ0BAXTEoW0NIM10pW0NASF0oW0NIMl1bQ0gyXTIpW0NAQF0oW0NIM10pKFtDQF0yM1tDSDNdKVtDQEBdNChbQ0gzXSlDKFtDSDJdW0NIMl0zKT1DNVtDQEhdKFtDSDJdW0NIMl00KUMoW0NIM10pKFtDSDNdKVtDQEhdKFtPSF0pW0NIMl1bQ0gyXTU=

>  <s_epik_cmdline>  (331) 
J2VwaWtfcHl0aG9uJywgJy1waHQnLCAnMi4wJywgJy1waCcsICc3LjAnLCAnLXRuJywgJzgnLCAnLW1hJywgJzIwMCcsICctaW1hZScsICc8aW5maWxlLm1hZT4nLCAnLW9tYWUnLCAnPG91dGZpbGUubWFlPic=

>  <r_epik_Ionization_Penalty>  (331) 
0.549535

>  <r_epik_Ionization_Penalty_Charging>  (331) 
0.00127257

>  <r_epik_Ionization_Penalty_Neutral>  (331) 
0.548262

>  <r_epik_State_Penalty>  (331) 
0.558394

>  <r_epik_Charging_Adjusted_Penalty>  (331) 
0.559666

>  <i_epik_Tot_Q>  (331) 
-1

>  <i_epik_Tot_abs_Q>  (331) 
1

>  <s_epik_Chemistry_Notes>  (331) 
This compound has an imine and may undergo hydrolysis.

>  <s_lp_Force_Field>  (331) 
OPLS3e

>  <r_lp_Energy>  (331) 
107.615

>  <b_lp_Chiralities_Consistent>  (331) 
1

>  <s_lp_Variant>  (331) 
108:0-3

>  <s_i_glide_gridfile>  (331) 
pfpi4k_grid

>  <i_i_glide_lignum>  (331) 
30

>  <i_i_glide_rotatable_bonds>  (331) 
5

>  <r_i_docking_score>  (331) 
-2.24368

>  <r_i_glide_ligand_efficiency>  (331) 
-0.0575303

>  <r_i_glide_ligand_efficiency_sa>  (331) 
-0.195098

>  <r_i_glide_ligand_efficiency_ln>  (331) 
-0.481109

>  <r_i_glide_gscore>  (331) 
-2.24368

>  <r_i_glide_lipo>  (331) 
-0.0960078

>  <r_i_glide_hbond>  (331) 
-0.486769

>  <r_i_glide_metal>  (331) 
-0

>  <r_i_glide_rewards>  (331) 
-9.16859e-06

>  <r_i_glide_evdw>  (331) 
-22.9899

>  <r_i_glide_ecoul>  (331) 
-7.536

>  <r_i_glide_erotb>  (331) 
0.212839

>  <r_i_glide_esite>  (331) 
-0.112182

>  <r_i_glide_emodel>  (331) 
-32.4039

>  <r_i_glide_energy>  (331) 
-30.5259

>  <r_i_glide_einternal>  (331) 
0.920792

>  <r_i_glide_intrahb_reward>  (331) 
-0

>  <i_i_glide_confnum>  (331) 
1

>  <i_i_glide_posenum>  (331) 
34

>  <r_i_glide_eff_state_penalty>  (331) 
0

>  <ligand_id>  (331) 
108

>  <original_smiles>  (331) 
CC(C(=O)O)C1CC(=NN=C(N)N)CC1(C)C1CCC2(C)CCC3=C4CCC(O)C(C)(C)C4CCC3(C)C12C

>  <smiles>  (331) 
[H]OC1([H])C([H])([H])C([H])([H])C2=C3C([H])([H])C([H])([H])C4(C([H])([H])[H])C([H])([H])C([H])([H])C([H])(C5(C([H])([H])[H])C([H])([H])C(=NN=C(N([H])[H])N([H])[H])C([H])([H])C5([H])C([H])(C(=O)[O-])C([H])([H])[H])C4(C([H])([H])[H])C3(C([H])([H])[H])C([H])([H])C([H])([H])C2([H])C1(C([H])([H])[H])C([H])([H])[H]

$$$$
108:2:2
     RDKit          3D

 90 94  0  0  1  0  0  0  0  0999 V2000
   -1.1247   -1.7071    5.6221 C   0  0  0  0  0  0  0  0  0  0  0  0
   -0.3344   -0.6253    6.4536 C   0  0  2  0  0  0  0  0  0  0  0  0
   -1.0888    0.7011    6.3866 C   0  0  0  0  0  0  0  0  0  0  0  0
   -0.5267    1.7548    6.0245 O   0  0  0  0  0  0  0  0  0  0  0  0
   -2.2446    0.6460    6.8545 O   0  0  0  0  0  0  0  0  0  0  0  0
    1.2054   -0.5218    6.1780 C   0  0  2  0  0  0  0  0  0  0  0  0
    1.5986   -0.7335    4.7132 C   0  0  0  0  0  0  0  0  0  0  0  0
    3.0391   -1.2321    4.7276 C   0  0  0  0  0  0  0  0  0  0  0  0
    3.7693   -1.5151    3.7750 N   0  0  0  0  0  0  0  0  0  0  0  0
    3.1458   -1.3765    2.4867 N   0  0  0  0  0  0  0  0  0  0  0  0
    3.9619   -0.9749    1.5771 C   0  0  0  0  0  0  0  0  0  0  0  0
    5.3341   -0.8141    1.6793 N   0  0  0  0  0  0  0  0  0  0  0  0
    3.4750   -0.6472    0.3349 N   0  0  0  0  0  0  0  0  0  0  0  0
    3.4264   -1.4917    6.1887 C   0  0  0  0  0  0  0  0  0  0  0  0
    2.1514   -1.4011    7.0717 C   0  0  1  0  0  0  0  0  0  0  0  0
    2.5159   -0.6860    8.4143 C   0  0  0  0  0  0  0  0  0  0  0  0
    1.4651   -2.8116    7.3055 C   0  0  2  0  0  0  0  0  0  0  0  0
    0.3741   -2.8022    8.4463 C   0  0  0  0  0  0  0  0  0  0  0  0
    0.5746   -4.0360    9.2948 C   0  0  0  0  0  0  0  0  0  0  0  0
    1.1498   -5.0187    8.2658 C   0  0  2  0  0  0  0  0  0  0  0  0
   -0.1205   -5.4814    7.4580 C   0  0  0  0  0  0  0  0  0  0  0  0
    1.8048   -6.2676    8.8793 C   0  0  0  0  0  0  0  0  0  0  0  0
    2.7587   -6.9830    7.8862 C   0  0  0  0  0  0  0  0  0  0  0  0
    2.5299   -6.5881    6.4155 C   0  0  0  0  0  0  0  0  0  0  0  0
    2.2200   -7.4838    5.4358 C   0  0  0  0  0  0  0  0  0  0  0  0
    2.1629   -9.0003    5.6513 C   0  0  0  0  0  0  0  0  0  0  0  0
    0.8338   -9.5814    5.1753 C   0  0  0  0  0  0  0  0  0  0  0  0
    0.6233   -9.2784    3.6823 C   0  0  1  0  0  0  0  0  0  0  0  0
   -0.6015   -9.8453    3.2708 O   0  0  0  0  0  0  0  0  0  0  0  0
    0.6689   -7.7567    3.3463 C   0  0  0  0  0  0  0  0  0  0  0  0
    0.7073   -7.6439    1.8000 C   0  0  0  0  0  0  0  0  0  0  0  0
   -0.6069   -7.0558    3.8753 C   0  0  0  0  0  0  0  0  0  0  0  0
    1.9702   -7.1146    3.9528 C   0  0  1  0  0  0  0  0  0  0  0  0
    2.1293   -5.5998    3.6687 C   0  0  0  0  0  0  0  0  0  0  0  0
    1.8382   -4.7209    4.8901 C   0  0  0  0  0  0  0  0  0  0  0  0
    2.6885   -5.0607    6.1555 C   0  0  2  0  0  0  0  0  0  0  0  0
    4.1903   -4.9169    5.7278 C   0  0  0  0  0  0  0  0  0  0  0  0
    2.2502   -4.1814    7.4801 C   0  0  1  0  0  0  0  0  0  0  0  0
    3.4926   -3.9070    8.4145 C   0  0  0  0  0  0  0  0  0  0  0  0
   -2.1230   -1.8673    6.0371 H   0  0  0  0  0  0  0  0  0  0  0  0
   -0.6614   -2.6891    5.5877 H   0  0  0  0  0  0  0  0  0  0  0  0
   -1.2724   -1.3984    4.5848 H   0  0  0  0  0  0  0  0  0  0  0  0
   -0.4177   -0.8089    7.5270 H   0  0  0  0  0  0  0  0  0  0  0  0
    1.5568    0.4892    6.3991 H   0  0  0  0  0  0  0  0  0  0  0  0
    1.0144   -1.5254    4.2305 H   0  0  0  0  0  0  0  0  0  0  0  0
    1.5168    0.1887    4.1082 H   0  0  0  0  0  0  0  0  0  0  0  0
    5.8394   -1.0494    2.5416 H   0  0  0  0  0  0  0  0  0  0  0  0
    5.9038   -0.3405    0.9873 H   0  0  0  0  0  0  0  0  0  0  0  0
    2.4694   -0.5843    0.1731 H   0  0  0  0  0  0  0  0  0  0  0  0
    3.9923   -0.0551   -0.3016 H   0  0  0  0  0  0  0  0  0  0  0  0
    3.8548   -2.4801    6.2321 H   0  0  0  0  0  0  0  0  0  0  0  0
    4.2030   -0.7637    6.4612 H   0  0  0  0  0  0  0  0  0  0  0  0
    3.2783   -1.2312    8.9706 H   0  0  0  0  0  0  0  0  0  0  0  0
    1.6595   -0.5649    9.0876 H   0  0  0  0  0  0  0  0  0  0  0  0
    2.9423    0.3043    8.2327 H   0  0  0  0  0  0  0  0  0  0  0  0
    0.9689   -3.0203    6.3744 H   0  0  0  0  0  0  0  0  0  0  0  0
    0.3409   -1.9508    9.1230 H   0  0  0  0  0  0  0  0  0  0  0  0
   -0.6094   -2.8882    7.9803 H   0  0  0  0  0  0  0  0  0  0  0  0
    1.2743   -3.8398   10.1133 H   0  0  0  0  0  0  0  0  0  0  0  0
   -0.3565   -4.3721    9.7699 H   0  0  0  0  0  0  0  0  0  0  0  0
    0.0559   -6.3245    6.7929 H   0  0  0  0  0  0  0  0  0  0  0  0
   -0.5747   -4.7034    6.8460 H   0  0  0  0  0  0  0  0  0  0  0  0
   -0.9162   -5.8120    8.1298 H   0  0  0  0  0  0  0  0  0  0  0  0
    2.3598   -5.9732    9.7744 H   0  0  0  0  0  0  0  0  0  0  0  0
    1.0195   -6.9503    9.2217 H   0  0  0  0  0  0  0  0  0  0  0  0
    3.7899   -6.7297    8.1079 H   0  0  0  0  0  0  0  0  0  0  0  0
    2.7077   -8.0394    8.1045 H   0  0  0  0  0  0  0  0  0  0  0  0
    2.9785   -9.4451    5.0787 H   0  0  0  0  0  0  0  0  0  0  0  0
    2.3178   -9.3267    6.6739 H   0  0  0  0  0  0  0  0  0  0  0  0
    0.8397  -10.6622    5.3397 H   0  0  0  0  0  0  0  0  0  0  0  0
    0.0163   -9.1841    5.7794 H   0  0  0  0  0  0  0  0  0  0  0  0
    1.4221   -9.7863    3.1343 H   0  0  0  0  0  0  0  0  0  0  0  0
   -1.0398  -10.2274    4.0132 H   0  0  0  0  0  0  0  0  0  0  0  0
    0.6497   -6.6226    1.4335 H   0  0  0  0  0  0  0  0  0  0  0  0
   -0.1219   -8.1803    1.3400 H   0  0  0  0  0  0  0  0  0  0  0  0
    1.6208   -8.0838    1.3974 H   0  0  0  0  0  0  0  0  0  0  0  0
   -0.5921   -5.9899    3.6649 H   0  0  0  0  0  0  0  0  0  0  0  0
   -0.7111   -7.1675    4.9507 H   0  0  0  0  0  0  0  0  0  0  0  0
   -1.5130   -7.4622    3.4241 H   0  0  0  0  0  0  0  0  0  0  0  0
    2.7991   -7.5910    3.4248 H   0  0  0  0  0  0  0  0  0  0  0  0
    3.1405   -5.4058    3.3128 H   0  0  0  0  0  0  0  0  0  0  0  0
    1.4999   -5.2691    2.8420 H   0  0  0  0  0  0  0  0  0  0  0  0
    1.9973   -3.6975    4.5710 H   0  0  0  0  0  0  0  0  0  0  0  0
    0.7717   -4.7958    5.0884 H   0  0  0  0  0  0  0  0  0  0  0  0
    4.4064   -4.0323    5.1290 H   0  0  0  0  0  0  0  0  0  0  0  0
    4.4883   -5.7388    5.0712 H   0  0  0  0  0  0  0  0  0  0  0  0
    4.8853   -4.9660    6.5648 H   0  0  0  0  0  0  0  0  0  0  0  0
    4.0729   -4.7922    8.6918 H   0  0  0  0  0  0  0  0  0  0  0  0
    3.1848   -3.4629    9.3656 H   0  0  0  0  0  0  0  0  0  0  0  0
    4.2078   -3.2069    7.9705 H   0  0  0  0  0  0  0  0  0  0  0  0
  1  2  1  0
  1 40  1  0
  1 41  1  0
  1 42  1  0
  2  3  1  0
  2  6  1  0
  2 43  1  1
  3  4  2  0
  3  5  1  0
  6 15  1  0
  6  7  1  0
  6 44  1  1
  7  8  1  0
  7 45  1  0
  7 46  1  0
  8  9  2  3
  8 14  1  0
  9 10  1  0
 10 11  2  3
 11 12  1  0
 11 13  1  0
 12 47  1  0
 12 48  1  0
 13 49  1  0
 13 50  1  0
 14 15  1  0
 14 51  1  0
 14 52  1  0
 15 16  1  1
 15 17  1  0
 16 53  1  0
 16 54  1  0
 16 55  1  0
 17 38  1  0
 17 18  1  0
 17 56  1  6
 18 19  1  0
 18 57  1  0
 18 58  1  0
 19 20  1  0
 19 59  1  0
 19 60  1  0
 20 38  1  0
 20 21  1  6
 20 22  1  0
 21 61  1  0
 21 62  1  0
 21 63  1  0
 22 23  1  0
 22 64  1  0
 22 65  1  0
 23 24  1  0
 23 66  1  0
 23 67  1  0
 24 36  1  0
 24 25  2  0
 25 33  1  0
 25 26  1  0
 26 27  1  0
 26 68  1  0
 26 69  1  0
 27 28  1  0
 27 70  1  0
 27 71  1  0
 28 29  1  0
 28 30  1  0
 28 72  1  6
 29 73  1  0
 30 31  1  0
 30 32  1  0
 30 33  1  0
 31 74  1  0
 31 75  1  0
 31 76  1  0
 32 77  1  0
 32 78  1  0
 32 79  1  0
 33 34  1  0
 33 80  1  6
 34 35  1  0
 34 81  1  0
 34 82  1  0
 35 36  1  0
 35 83  1  0
 35 84  1  0
 36 37  1  6
 36 38  1  0
 37 85  1  0
 37 86  1  0
 37 87  1  0
 38 39  1  1
 39 88  1  0
 39 89  1  0
 39 90  1  0
M  CHG  1   5  -1
M  END
>  <i_m_ct_stereo_status>  (332) 
1

>  <s_m_source_file>  (332) 
/var/tmp/pbs.5076255.sched01/tmph7d3_0rd/117btfl79hs.sdf

>  <i_m_source_file_index>  (332) 
30

>  <i_lp_mmshare_version>  (332) 
48012

>  <i_f3d_flags>  (332) 
0

>  <s_epik_input>  (332) 
W05IMl1DKFtOSDJdKT1OL049QyhbQ0gyXTEpXFtDSDJdW0NAQEhdKFtDQEhdKFtDSDNdKUMoPU8pW09IXSlbQ0BAXTEoW0NIM10pW0NASF0oW0NIMl1bQ0gyXTIpW0NAQF0oW0NIM10pKFtDQF0yM1tDSDNdKVtDQEBdNChbQ0gzXSlDKFtDSDJdW0NIMl0zKT1DNVtDQEhdKFtDSDJdW0NIMl00KUMoW0NIM10pKFtDSDNdKVtDQEhdKFtPSF0pW0NIMl1bQ0gyXTU=

>  <s_epik_cmdline>  (332) 
J2VwaWtfcHl0aG9uJywgJy1waHQnLCAnMi4wJywgJy1waCcsICc3LjAnLCAnLXRuJywgJzgnLCAnLW1hJywgJzIwMCcsICctaW1hZScsICc8aW5maWxlLm1hZT4nLCAnLW9tYWUnLCAnPG91dGZpbGUubWFlPic=

>  <r_epik_Ionization_Penalty>  (332) 
0.549535

>  <r_epik_Ionization_Penalty_Charging>  (332) 
0.00127257

>  <r_epik_Ionization_Penalty_Neutral>  (332) 
0.548262

>  <r_epik_State_Penalty>  (332) 
0.558394

>  <r_epik_Charging_Adjusted_Penalty>  (332) 
0.559666

>  <i_epik_Tot_Q>  (332) 
-1

>  <i_epik_Tot_abs_Q>  (332) 
1

>  <s_epik_Chemistry_Notes>  (332) 
This compound has an imine and may undergo hydrolysis.

>  <s_lp_Force_Field>  (332) 
OPLS3e

>  <r_lp_Energy>  (332) 
107.615

>  <b_lp_Chiralities_Consistent>  (332) 
1

>  <s_lp_Variant>  (332) 
108:0-3

>  <s_i_glide_gridfile>  (332) 
pfpi4k_grid

>  <i_i_glide_lignum>  (332) 
30

>  <i_i_glide_rotatable_bonds>  (332) 
5

>  <r_i_docking_score>  (332) 
-2.10941

>  <r_i_glide_ligand_efficiency>  (332) 
-0.0540874

>  <r_i_glide_ligand_efficiency_sa>  (332) 
-0.183422

>  <r_i_glide_ligand_efficiency_ln>  (332) 
-0.452317

>  <r_i_glide_gscore>  (332) 
-2.10941

>  <r_i_glide_lipo>  (332) 
-0.028214

>  <r_i_glide_hbond>  (332) 
-0.50344

>  <r_i_glide_metal>  (332) 
-0

>  <r_i_glide_rewards>  (332) 
0

>  <r_i_glide_evdw>  (332) 
-27.5587

>  <r_i_glide_ecoul>  (332) 
-7.37408

>  <r_i_glide_erotb>  (332) 
0.212839

>  <r_i_glide_esite>  (332) 
-0.103126

>  <r_i_glide_emodel>  (332) 
-35.2942

>  <r_i_glide_energy>  (332) 
-34.9327

>  <r_i_glide_einternal>  (332) 
2.6047

>  <r_i_glide_intrahb_reward>  (332) 
-0

>  <i_i_glide_confnum>  (332) 
3

>  <i_i_glide_posenum>  (332) 
28

>  <r_i_glide_eff_state_penalty>  (332) 
0

>  <ligand_id>  (332) 
108

>  <original_smiles>  (332) 
CC(C(=O)O)C1CC(=NN=C(N)N)CC1(C)C1CCC2(C)CCC3=C4CCC(O)C(C)(C)C4CCC3(C)C12C

>  <smiles>  (332) 
[H]OC1([H])C([H])([H])C([H])([H])C2=C3C([H])([H])C([H])([H])C4(C([H])([H])[H])C([H])([H])C([H])([H])C([H])(C5(C([H])([H])[H])C([H])([H])C(=NN=C(N([H])[H])N([H])[H])C([H])([H])C5([H])C([H])(C(=O)[O-])C([H])([H])[H])C4(C([H])([H])[H])C3(C([H])([H])[H])C([H])([H])C([H])([H])C2([H])C1(C([H])([H])[H])C([H])([H])[H]

$$$$
108:3:0
     RDKit          3D

 90 94  0  0  1  0  0  0  0  0999 V2000
   -1.4709   -1.5725    5.6723 C   0  0  0  0  0  0  0  0  0  0  0  0
   -0.5483   -0.4079    6.1986 C   0  0  2  0  0  0  0  0  0  0  0  0
   -1.3569    0.8856    6.2718 C   0  0  0  0  0  0  0  0  0  0  0  0
   -0.8868    1.9753    5.9013 O   0  0  0  0  0  0  0  0  0  0  0  0
   -2.4605    0.7730    6.8415 O   0  0  0  0  0  0  0  0  0  0  0  0
    0.8249   -0.2551    5.4759 C   0  0  2  0  0  0  0  0  0  0  0  0
    0.7616   -0.4893    3.9475 C   0  0  0  0  0  0  0  0  0  0  0  0
    2.1357   -0.9388    3.5205 C   0  0  0  0  0  0  0  0  0  0  0  0
    2.4321   -1.1877    2.3352 N   0  0  0  0  0  0  0  0  0  0  0  0
    3.7769   -1.6576    2.2106 N   0  0  0  0  0  0  0  0  0  0  0  0
    4.1937   -1.7340    0.9906 C   0  0  0  0  0  0  0  0  0  0  0  0
    3.4857   -1.4601   -0.1714 N   0  0  0  0  0  0  0  0  0  0  0  0
    5.5008   -2.1219    0.7683 N   0  0  0  0  0  0  0  0  0  0  0  0
    2.9700   -1.1500    4.7939 C   0  0  0  0  0  0  0  0  0  0  0  0
    2.0345   -1.0905    6.0326 C   0  0  1  0  0  0  0  0  0  0  0  0
    2.7664   -0.3477    7.2007 C   0  0  0  0  0  0  0  0  0  0  0  0
    1.5243   -2.5208    6.4630 C   0  0  2  0  0  0  0  0  0  0  0  0
    0.7824   -2.5384    7.8591 C   0  0  0  0  0  0  0  0  0  0  0  0
    1.2578   -3.7283    8.6459 C   0  0  0  0  0  0  0  0  0  0  0  0
    1.5781   -4.7104    7.5158 C   0  0  2  0  0  0  0  0  0  0  0  0
    0.1648   -5.2606    7.0819 C   0  0  0  0  0  0  0  0  0  0  0  0
    2.4458   -5.9102    7.9570 C   0  0  0  0  0  0  0  0  0  0  0  0
    3.1404   -6.6062    6.7617 C   0  0  0  0  0  0  0  0  0  0  0  0
    2.5068   -6.2791    5.4028 C   0  0  0  0  0  0  0  0  0  0  0  0
    1.9931   -7.2212    4.5569 C   0  0  0  0  0  0  0  0  0  0  0  0
    2.0715   -8.7250    4.8119 C   0  0  0  0  0  0  0  0  0  0  0  0
    0.7092   -9.3725    4.7301 C   0  0  0  0  0  0  0  0  0  0  0  0
    0.1418   -9.1216    3.3477 C   0  0  1  0  0  0  0  0  0  0  0  0
   -1.1414   -9.7200    3.3287 O   0  0  0  0  0  0  0  0  0  0  0  0
   -0.0337   -7.6176    2.9824 C   0  0  0  0  0  0  0  0  0  0  0  0
   -0.4249   -7.5360    1.4869 C   0  0  0  0  0  0  0  0  0  0  0  0
   -1.1628   -6.9925    3.8403 C   0  0  0  0  0  0  0  0  0  0  0  0
    1.3441   -6.9081    3.1921 C   0  0  1  0  0  0  0  0  0  0  0  0
    1.3634   -5.4032    2.8484 C   0  0  0  0  0  0  0  0  0  0  0  0
    1.3456   -4.4952    4.0789 C   0  0  0  0  0  0  0  0  0  0  0  0
    2.5117   -4.7554    5.0774 C   0  0  2  0  0  0  0  0  0  0  0  0
    3.8431   -4.5648    4.2700 C   0  0  0  0  0  0  0  0  0  0  0  0
    2.3836   -3.8497    6.4378 C   0  0  1  0  0  0  0  0  0  0  0  0
    3.8085   -3.4843    7.0050 C   0  0  0  0  0  0  0  0  0  0  0  0
   -2.2655   -1.7755    6.3805 H   0  0  0  0  0  0  0  0  0  0  0  0
   -1.0107   -2.5495    5.5349 H   0  0  0  0  0  0  0  0  0  0  0  0
   -1.9485   -1.3396    4.7180 H   0  0  0  0  0  0  0  0  0  0  0  0
   -0.3140   -0.5173    7.2422 H   0  0  0  0  0  0  0  0  0  0  0  0
    1.2014    0.7671    5.5685 H   0  0  0  0  0  0  0  0  0  0  0  0
    0.0736   -1.3145    3.6854 H   0  0  0  0  0  0  0  0  0  0  0  0
    0.4515    0.4221    3.3910 H   0  0  0  0  0  0  0  0  0  0  0  0
    2.5102   -1.1471   -0.1612 H   0  0  0  0  0  0  0  0  0  0  0  0
    3.7805   -1.8032   -1.0834 H   0  0  0  0  0  0  0  0  0  0  0  0
    6.1006   -2.3795    1.5454 H   0  0  0  0  0  0  0  0  0  0  0  0
    6.0258   -1.8542   -0.0588 H   0  0  0  0  0  0  0  0  0  0  0  0
    3.4205   -2.1186    4.7211 H   0  0  0  0  0  0  0  0  0  0  0  0
    3.7651   -0.3990    4.8140 H   0  0  0  0  0  0  0  0  0  0  0  0
    3.6790   -0.8611    7.5100 H   0  0  0  0  0  0  0  0  0  0  0  0
    2.1584   -0.2311    8.0941 H   0  0  0  0  0  0  0  0  0  0  0  0
    3.0793    0.6567    6.9058 H   0  0  0  0  0  0  0  0  0  0  0  0
    0.8315   -2.7641    5.6972 H   0  0  0  0  0  0  0  0  0  0  0  0
    0.8825   -1.6749    8.5179 H   0  0  0  0  0  0  0  0  0  0  0  0
   -0.2973   -2.6736    7.7094 H   0  0  0  0  0  0  0  0  0  0  0  0
    2.1325   -3.4677    9.2391 H   0  0  0  0  0  0  0  0  0  0  0  0
    0.4927   -4.0764    9.3465 H   0  0  0  0  0  0  0  0  0  0  0  0
    0.2123   -6.1168    6.4159 H   0  0  0  0  0  0  0  0  0  0  0  0
   -0.4697   -4.5213    6.5950 H   0  0  0  0  0  0  0  0  0  0  0  0
   -0.4018   -5.6003    7.9490 H   0  0  0  0  0  0  0  0  0  0  0  0
    3.1952   -5.5546    8.6644 H   0  0  0  0  0  0  0  0  0  0  0  0
    1.8118   -6.6115    8.5085 H   0  0  0  0  0  0  0  0  0  0  0  0
    4.1740   -6.2890    6.6973 H   0  0  0  0  0  0  0  0  0  0  0  0
    3.2115   -7.6522    7.0031 H   0  0  0  0  0  0  0  0  0  0  0  0
    2.7261   -9.1528    4.0467 H   0  0  0  0  0  0  0  0  0  0  0  0
    2.5105   -9.0056    5.7584 H   0  0  0  0  0  0  0  0  0  0  0  0
    0.7915  -10.4465    4.8986 H   0  0  0  0  0  0  0  0  0  0  0  0
    0.0474   -8.9895    5.5046 H   0  0  0  0  0  0  0  0  0  0  0  0
    0.7582   -9.6182    2.5860 H   0  0  0  0  0  0  0  0  0  0  0  0
   -1.3797  -10.2803    4.1355 H   0  0  0  0  0  0  0  0  0  0  0  0
   -0.6302   -6.5343    1.1154 H   0  0  0  0  0  0  0  0  0  0  0  0
   -1.3015   -8.1462    1.2724 H   0  0  0  0  0  0  0  0  0  0  0  0
    0.3907   -7.9248    0.8840 H   0  0  0  0  0  0  0  0  0  0  0  0
   -1.2266   -5.9212    3.6950 H   0  0  0  0  0  0  0  0  0  0  0  0
   -0.9781   -7.0977    4.9036 H   0  0  0  0  0  0  0  0  0  0  0  0
   -2.1436   -7.4216    3.6156 H   0  0  0  0  0  0  0  0  0  0  0  0
    2.0224   -7.3682    2.4658 H   0  0  0  0  0  0  0  0  0  0  0  0
    2.2274   -5.1734    2.2242 H   0  0  0  0  0  0  0  0  0  0  0  0
    0.5234   -5.1437    2.2170 H   0  0  0  0  0  0  0  0  0  0  0  0
    1.3522   -3.4780    3.6978 H   0  0  0  0  0  0  0  0  0  0  0  0
    0.3670   -4.6047    4.5498 H   0  0  0  0  0  0  0  0  0  0  0  0
    3.8479   -3.6826    3.6409 H   0  0  0  0  0  0  0  0  0  0  0  0
    3.9901   -5.3816    3.5562 H   0  0  0  0  0  0  0  0  0  0  0  0
    4.7342   -4.5616    4.8942 H   0  0  0  0  0  0  0  0  0  0  0  0
    4.5024   -4.3316    7.1232 H   0  0  0  0  0  0  0  0  0  0  0  0
    3.7495   -3.0200    7.9947 H   0  0  0  0  0  0  0  0  0  0  0  0
    4.3494   -2.7708    6.3771 H   0  0  0  0  0  0  0  0  0  0  0  0
  1  2  1  0
  1 40  1  0
  1 41  1  0
  1 42  1  0
  2  3  1  0
  2  6  1  0
  2 43  1  1
  3  4  2  0
  3  5  1  0
  6 15  1  0
  6  7  1  0
  6 44  1  6
  7  8  1  0
  7 45  1  0
  7 46  1  0
  8  9  2  3
  8 14  1  0
  9 10  1  0
 10 11  2  3
 11 12  1  0
 11 13  1  0
 12 47  1  0
 12 48  1  0
 13 49  1  0
 13 50  1  0
 14 15  1  0
 14 51  1  0
 14 52  1  0
 15 16  1  1
 15 17  1  0
 16 53  1  0
 16 54  1  0
 16 55  1  0
 17 38  1  0
 17 18  1  0
 17 56  1  6
 18 19  1  0
 18 57  1  0
 18 58  1  0
 19 20  1  0
 19 59  1  0
 19 60  1  0
 20 38  1  0
 20 21  1  6
 20 22  1  0
 21 61  1  0
 21 62  1  0
 21 63  1  0
 22 23  1  0
 22 64  1  0
 22 65  1  0
 23 24  1  0
 23 66  1  0
 23 67  1  0
 24 36  1  0
 24 25  2  0
 25 33  1  0
 25 26  1  0
 26 27  1  0
 26 68  1  0
 26 69  1  0
 27 28  1  0
 27 70  1  0
 27 71  1  0
 28 29  1  0
 28 30  1  0
 28 72  1  6
 29 73  1  0
 30 31  1  0
 30 32  1  0
 30 33  1  0
 31 74  1  0
 31 75  1  0
 31 76  1  0
 32 77  1  0
 32 78  1  0
 32 79  1  0
 33 34  1  0
 33 80  1  6
 34 35  1  0
 34 81  1  0
 34 82  1  0
 35 36  1  0
 35 83  1  0
 35 84  1  0
 36 37  1  6
 36 38  1  0
 37 85  1  0
 37 86  1  0
 37 87  1  0
 38 39  1  1
 39 88  1  0
 39 89  1  0
 39 90  1  0
M  CHG  1   5  -1
M  END
>  <i_m_ct_stereo_status>  (333) 
1

>  <s_m_source_file>  (333) 
/var/tmp/pbs.5076255.sched01/tmph7d3_0rd/117btfl79hs.sdf

>  <i_m_source_file_index>  (333) 
31

>  <i_lp_mmshare_version>  (333) 
48012

>  <i_f3d_flags>  (333) 
0

>  <s_epik_input>  (333) 
W05IMl1DKFtOSDJdKT1OL049QyhbQ0gyXTEpXFtDSDJdW0NAQEhdKFtDQEhdKFtDSDNdKUMoPU8pW09IXSlbQ0BAXTEoW0NIM10pW0NASF0oW0NIMl1bQ0gyXTIpW0NAQF0oW0NIM10pKFtDQF0yM1tDSDNdKVtDQEBdNChbQ0gzXSlDKFtDSDJdW0NIMl0zKT1DNVtDQEhdKFtDSDJdW0NIMl00KUMoW0NIM10pKFtDSDNdKVtDQEhdKFtPSF0pW0NIMl1bQ0gyXTU=

>  <s_epik_cmdline>  (333) 
J2VwaWtfcHl0aG9uJywgJy1waHQnLCAnMi4wJywgJy1waCcsICc3LjAnLCAnLXRuJywgJzgnLCAnLW1hJywgJzIwMCcsICctaW1hZScsICc8aW5maWxlLm1hZT4nLCAnLW9tYWUnLCAnPG91dGZpbGUubWFlPic=

>  <r_epik_Ionization_Penalty>  (333) 
0.549535

>  <r_epik_Ionization_Penalty_Charging>  (333) 
0.00127257

>  <r_epik_Ionization_Penalty_Neutral>  (333) 
0.548262

>  <r_epik_State_Penalty>  (333) 
0.558394

>  <r_epik_Charging_Adjusted_Penalty>  (333) 
0.559666

>  <i_epik_Tot_Q>  (333) 
-1

>  <i_epik_Tot_abs_Q>  (333) 
1

>  <s_epik_Chemistry_Notes>  (333) 
This compound has an imine and may undergo hydrolysis.

>  <s_lp_Force_Field>  (333) 
OPLS3e

>  <r_lp_Energy>  (333) 
106.504

>  <b_lp_Chiralities_Consistent>  (333) 
1

>  <s_lp_Variant>  (333) 
108:0-4

>  <s_i_glide_gridfile>  (333) 
pfpi4k_grid

>  <i_i_glide_lignum>  (333) 
31

>  <i_i_glide_rotatable_bonds>  (333) 
5

>  <r_i_docking_score>  (333) 
-2.37088

>  <r_i_glide_ligand_efficiency>  (333) 
-0.0607919

>  <r_i_glide_ligand_efficiency_sa>  (333) 
-0.206158

>  <r_i_glide_ligand_efficiency_ln>  (333) 
-0.508384

>  <r_i_glide_gscore>  (333) 
-2.37088

>  <r_i_glide_lipo>  (333) 
0

>  <r_i_glide_hbond>  (333) 
-0.489159

>  <r_i_glide_metal>  (333) 
-0

>  <r_i_glide_rewards>  (333) 
0

>  <r_i_glide_evdw>  (333) 
-20.5383

>  <r_i_glide_ecoul>  (333) 
-8.85688

>  <r_i_glide_erotb>  (333) 
0.212839

>  <r_i_glide_esite>  (333) 
-0.166532

>  <r_i_glide_emodel>  (333) 
-31.0279

>  <r_i_glide_energy>  (333) 
-29.3952

>  <r_i_glide_einternal>  (333) 
1.74516

>  <r_i_glide_intrahb_reward>  (333) 
-0

>  <i_i_glide_confnum>  (333) 
1

>  <i_i_glide_posenum>  (333) 
1

>  <r_i_glide_eff_state_penalty>  (333) 
0

>  <ligand_id>  (333) 
108

>  <original_smiles>  (333) 
CC(C(=O)O)C1CC(=NN=C(N)N)CC1(C)C1CCC2(C)CCC3=C4CCC(O)C(C)(C)C4CCC3(C)C12C

>  <smiles>  (333) 
[H]OC1([H])C([H])([H])C([H])([H])C2=C3C([H])([H])C([H])([H])C4(C([H])([H])[H])C([H])([H])C([H])([H])C([H])(C5(C([H])([H])[H])C([H])([H])C(=NN=C(N([H])[H])N([H])[H])C([H])([H])C5([H])C([H])(C(=O)[O-])C([H])([H])[H])C4(C([H])([H])[H])C3(C([H])([H])[H])C([H])([H])C([H])([H])C2([H])C1(C([H])([H])[H])C([H])([H])[H]

$$$$
108:3:1
     RDKit          3D

 90 94  0  0  1  0  0  0  0  0999 V2000
    0.0043   -3.3609    5.9410 C   0  0  0  0  0  0  0  0  0  0  0  0
    0.7432   -1.9765    5.8870 C   0  0  2  0  0  0  0  0  0  0  0  0
   -0.2708   -0.8279    6.0115 C   0  0  0  0  0  0  0  0  0  0  0  0
    0.1913    0.3166    6.2124 O   0  0  0  0  0  0  0  0  0  0  0  0
   -1.4918   -1.0910    6.0727 O   0  0  0  0  0  0  0  0  0  0  0  0
    1.7674   -1.7422    4.7366 C   0  0  2  0  0  0  0  0  0  0  0  0
    1.2999   -2.2958    3.3719 C   0  0  0  0  0  0  0  0  0  0  0  0
    2.5323   -2.5930    2.5887 C   0  0  0  0  0  0  0  0  0  0  0  0
    2.5240   -3.0357    1.3779 N   0  0  0  0  0  0  0  0  0  0  0  0
    3.7943   -3.4128    0.9088 N   0  0  0  0  0  0  0  0  0  0  0  0
    4.1473   -2.7993   -0.1550 C   0  0  0  0  0  0  0  0  0  0  0  0
    3.4066   -1.8984   -0.9121 N   0  0  0  0  0  0  0  0  0  0  0  0
    5.4318   -2.9643   -0.6669 N   0  0  0  0  0  0  0  0  0  0  0  0
    3.7334   -2.4255    3.5071 C   0  0  0  0  0  0  0  0  0  0  0  0
    3.2335   -2.2475    4.9686 C   0  0  1  0  0  0  0  0  0  0  0  0
    4.1236   -1.1772    5.6749 C   0  0  0  0  0  0  0  0  0  0  0  0
    3.2146   -3.6074    5.7614 C   0  0  2  0  0  0  0  0  0  0  0  0
    2.9699   -3.4488    7.3025 C   0  0  0  0  0  0  0  0  0  0  0  0
    3.9199   -4.3864    8.0229 C   0  0  0  0  0  0  0  0  0  0  0  0
    4.0188   -5.5272    7.0100 C   0  0  2  0  0  0  0  0  0  0  0  0
    2.6763   -6.3249    7.2112 C   0  0  0  0  0  0  0  0  0  0  0  0
    5.1927   -6.4868    7.2616 C   0  0  0  0  0  0  0  0  0  0  0  0
    5.5548   -7.3147    6.0085 C   0  0  0  0  0  0  0  0  0  0  0  0
    4.4474   -7.3590    4.9486 C   0  0  0  0  0  0  0  0  0  0  0  0
    3.8639   -8.5131    4.4920 C   0  0  0  0  0  0  0  0  0  0  0  0
    4.3157   -9.9066    4.9112 C   0  0  0  0  0  0  0  0  0  0  0  0
    3.1448  -10.7323    5.4384 C   0  0  0  0  0  0  0  0  0  0  0  0
    2.0563  -10.8635    4.3628 C   0  0  1  0  0  0  0  0  0  0  0  0
    1.0161  -11.6807    4.8643 O   0  0  0  0  0  0  0  0  0  0  0  0
    1.5189   -9.4866    3.8564 C   0  0  0  0  0  0  0  0  0  0  0  0
    0.6502   -9.7858    2.6082 C   0  0  0  0  0  0  0  0  0  0  0  0
    0.6484   -8.8068    4.9370 C   0  0  0  0  0  0  0  0  0  0  0  0
    2.7351   -8.5668    3.4356 C   0  0  1  0  0  0  0  0  0  0  0  0
    2.3310   -7.1739    2.9006 C   0  0  0  0  0  0  0  0  0  0  0  0
    2.5771   -6.0472    3.9062 C   0  0  0  0  0  0  0  0  0  0  0  0
    4.0476   -5.9466    4.4332 C   0  0  2  0  0  0  0  0  0  0  0  0
    4.9669   -5.7629    3.1806 C   0  0  0  0  0  0  0  0  0  0  0  0
    4.2346   -4.8076    5.5967 C   0  0  1  0  0  0  0  0  0  0  0  0
    5.6699   -4.1524    5.5551 C   0  0  0  0  0  0  0  0  0  0  0  0
   -0.4894   -3.4875    6.9040 H   0  0  0  0  0  0  0  0  0  0  0  0
    0.5827   -4.2711    5.8303 H   0  0  0  0  0  0  0  0  0  0  0  0
   -0.7332   -3.4332    5.1387 H   0  0  0  0  0  0  0  0  0  0  0  0
    1.2817   -1.7647    6.8103 H   0  0  0  0  0  0  0  0  0  0  0  0
    1.8845   -0.6710    4.5445 H   0  0  0  0  0  0  0  0  0  0  0  0
    0.7578   -3.2460    3.4795 H   0  0  0  0  0  0  0  0  0  0  0  0
    0.6525   -1.5989    2.8117 H   0  0  0  0  0  0  0  0  0  0  0  0
    2.4358   -1.6829   -0.6543 H   0  0  0  0  0  0  0  0  0  0  0  0
    3.5688   -1.7244   -1.8887 H   0  0  0  0  0  0  0  0  0  0  0  0
    6.0721   -3.5826   -0.1867 H   0  0  0  0  0  0  0  0  0  0  0  0
    5.8822   -2.2611   -1.2382 H   0  0  0  0  0  0  0  0  0  0  0  0
    4.3143   -3.3192    3.4144 H   0  0  0  0  0  0  0  0  0  0  0  0
    4.3472   -1.6018    3.1375 H   0  0  0  0  0  0  0  0  0  0  0  0
    5.1626   -1.4996    5.7515 H   0  0  0  0  0  0  0  0  0  0  0  0
    3.7944   -0.9409    6.6892 H   0  0  0  0  0  0  0  0  0  0  0  0
    4.1126   -0.2124    5.1502 H   0  0  0  0  0  0  0  0  0  0  0  0
    2.3884   -4.0875    5.2937 H   0  0  0  0  0  0  0  0  0  0  0  0
    3.0983   -2.4781    7.7833 H   0  0  0  0  0  0  0  0  0  0  0  0
    1.9730   -3.7566    7.5839 H   0  0  0  0  0  0  0  0  0  0  0  0
    4.8674   -3.8812    8.2009 H   0  0  0  0  0  0  0  0  0  0  0  0
    3.5063   -4.6648    9.0036 H   0  0  0  0  0  0  0  0  0  0  0  0
    2.6572   -7.2829    6.7084 H   0  0  0  0  0  0  0  0  0  0  0  0
    1.7779   -5.7906    6.8991 H   0  0  0  0  0  0  0  0  0  0  0  0
    2.5165   -6.5513    8.2672 H   0  0  0  0  0  0  0  0  0  0  0  0
    6.0572   -5.9007    7.5829 H   0  0  0  0  0  0  0  0  0  0  0  0
    4.9346   -7.1299    8.1025 H   0  0  0  0  0  0  0  0  0  0  0  0
    6.4251   -6.8913    5.5242 H   0  0  0  0  0  0  0  0  0  0  0  0
    5.9105   -8.2699    6.3507 H   0  0  0  0  0  0  0  0  0  0  0  0
    4.7414  -10.3953    4.0355 H   0  0  0  0  0  0  0  0  0  0  0  0
    5.0974   -9.9294    5.6607 H   0  0  0  0  0  0  0  0  0  0  0  0
    3.5016  -11.7236    5.7204 H   0  0  0  0  0  0  0  0  0  0  0  0
    2.7501  -10.2795    6.3473 H   0  0  0  0  0  0  0  0  0  0  0  0
    2.4897  -11.4070    3.5185 H   0  0  0  0  0  0  0  0  0  0  0  0
    1.1668  -11.8520    5.8116 H   0  0  0  0  0  0  0  0  0  0  0  0
    0.1481   -8.9103    2.2099 H   0  0  0  0  0  0  0  0  0  0  0  0
   -0.1328  -10.5121    2.8271 H   0  0  0  0  0  0  0  0  0  0  0  0
    1.2487  -10.2042    1.8047 H   0  0  0  0  0  0  0  0  0  0  0  0
    0.2653   -7.8416    4.6167 H   0  0  0  0  0  0  0  0  0  0  0  0
    1.1998   -8.6507    5.8610 H   0  0  0  0  0  0  0  0  0  0  0  0
   -0.2216   -9.4159    5.1941 H   0  0  0  0  0  0  0  0  0  0  0  0
    3.2015   -9.0741    2.5917 H   0  0  0  0  0  0  0  0  0  0  0  0
    2.8767   -6.9674    1.9790 H   0  0  0  0  0  0  0  0  0  0  0  0
    1.2860   -7.1453    2.5899 H   0  0  0  0  0  0  0  0  0  0  0  0
    2.2620   -5.1302    3.4122 H   0  0  0  0  0  0  0  0  0  0  0  0
    1.8668   -6.1787    4.7215 H   0  0  0  0  0  0  0  0  0  0  0  0
    4.5856   -5.0403    2.4779 H   0  0  0  0  0  0  0  0  0  0  0  0
    5.0049   -6.6668    2.5720 H   0  0  0  0  0  0  0  0  0  0  0  0
    5.9975   -5.5103    3.4156 H   0  0  0  0  0  0  0  0  0  0  0  0
    6.4981   -4.8681    5.5172 H   0  0  0  0  0  0  0  0  0  0  0  0
    5.8536   -3.5033    6.4105 H   0  0  0  0  0  0  0  0  0  0  0  0
    5.8389   -3.5083    4.6842 H   0  0  0  0  0  0  0  0  0  0  0  0
  1  2  1  0
  1 40  1  0
  1 41  1  0
  1 42  1  0
  2  3  1  0
  2  6  1  0
  2 43  1  1
  3  4  2  0
  3  5  1  0
  6 15  1  0
  6  7  1  0
  6 44  1  6
  7  8  1  0
  7 45  1  0
  7 46  1  0
  8  9  2  3
  8 14  1  0
  9 10  1  0
 10 11  2  3
 11 12  1  0
 11 13  1  0
 12 47  1  0
 12 48  1  0
 13 49  1  0
 13 50  1  0
 14 15  1  0
 14 51  1  0
 14 52  1  0
 15 16  1  1
 15 17  1  0
 16 53  1  0
 16 54  1  0
 16 55  1  0
 17 38  1  0
 17 18  1  0
 17 56  1  6
 18 19  1  0
 18 57  1  0
 18 58  1  0
 19 20  1  0
 19 59  1  0
 19 60  1  0
 20 38  1  0
 20 21  1  6
 20 22  1  0
 21 61  1  0
 21 62  1  0
 21 63  1  0
 22 23  1  0
 22 64  1  0
 22 65  1  0
 23 24  1  0
 23 66  1  0
 23 67  1  0
 24 36  1  0
 24 25  2  0
 25 33  1  0
 25 26  1  0
 26 27  1  0
 26 68  1  0
 26 69  1  0
 27 28  1  0
 27 70  1  0
 27 71  1  0
 28 29  1  0
 28 30  1  0
 28 72  1  6
 29 73  1  0
 30 31  1  0
 30 32  1  0
 30 33  1  0
 31 74  1  0
 31 75  1  0
 31 76  1  0
 32 77  1  0
 32 78  1  0
 32 79  1  0
 33 34  1  0
 33 80  1  6
 34 35  1  0
 34 81  1  0
 34 82  1  0
 35 36  1  0
 35 83  1  0
 35 84  1  0
 36 37  1  6
 36 38  1  0
 37 85  1  0
 37 86  1  0
 37 87  1  0
 38 39  1  1
 39 88  1  0
 39 89  1  0
 39 90  1  0
M  CHG  1   5  -1
M  END
>  <i_m_ct_stereo_status>  (334) 
1

>  <s_m_source_file>  (334) 
/var/tmp/pbs.5076255.sched01/tmph7d3_0rd/117btfl79hs.sdf

>  <i_m_source_file_index>  (334) 
31

>  <i_lp_mmshare_version>  (334) 
48012

>  <i_f3d_flags>  (334) 
0

>  <s_epik_input>  (334) 
W05IMl1DKFtOSDJdKT1OL049QyhbQ0gyXTEpXFtDSDJdW0NAQEhdKFtDQEhdKFtDSDNdKUMoPU8pW09IXSlbQ0BAXTEoW0NIM10pW0NASF0oW0NIMl1bQ0gyXTIpW0NAQF0oW0NIM10pKFtDQF0yM1tDSDNdKVtDQEBdNChbQ0gzXSlDKFtDSDJdW0NIMl0zKT1DNVtDQEhdKFtDSDJdW0NIMl00KUMoW0NIM10pKFtDSDNdKVtDQEhdKFtPSF0pW0NIMl1bQ0gyXTU=

>  <s_epik_cmdline>  (334) 
J2VwaWtfcHl0aG9uJywgJy1waHQnLCAnMi4wJywgJy1waCcsICc3LjAnLCAnLXRuJywgJzgnLCAnLW1hJywgJzIwMCcsICctaW1hZScsICc8aW5maWxlLm1hZT4nLCAnLW9tYWUnLCAnPG91dGZpbGUubWFlPic=

>  <r_epik_Ionization_Penalty>  (334) 
0.549535

>  <r_epik_Ionization_Penalty_Charging>  (334) 
0.00127257

>  <r_epik_Ionization_Penalty_Neutral>  (334) 
0.548262

>  <r_epik_State_Penalty>  (334) 
0.558394

>  <r_epik_Charging_Adjusted_Penalty>  (334) 
0.559666

>  <i_epik_Tot_Q>  (334) 
-1

>  <i_epik_Tot_abs_Q>  (334) 
1

>  <s_epik_Chemistry_Notes>  (334) 
This compound has an imine and may undergo hydrolysis.

>  <s_lp_Force_Field>  (334) 
OPLS3e

>  <r_lp_Energy>  (334) 
106.504

>  <b_lp_Chiralities_Consistent>  (334) 
1

>  <s_lp_Variant>  (334) 
108:0-4

>  <s_i_glide_gridfile>  (334) 
pfpi4k_grid

>  <i_i_glide_lignum>  (334) 
31

>  <i_i_glide_rotatable_bonds>  (334) 
5

>  <r_i_docking_score>  (334) 
-2.27986

>  <r_i_glide_ligand_efficiency>  (334) 
-0.058458

>  <r_i_glide_ligand_efficiency_sa>  (334) 
-0.198243

>  <r_i_glide_ligand_efficiency_ln>  (334) 
-0.488867

>  <r_i_glide_gscore>  (334) 
-2.27986

>  <r_i_glide_lipo>  (334) 
-0.126985

>  <r_i_glide_hbond>  (334) 
-0.373994

>  <r_i_glide_metal>  (334) 
-0

>  <r_i_glide_rewards>  (334) 
0

>  <r_i_glide_evdw>  (334) 
-25.9443

>  <r_i_glide_ecoul>  (334) 
-5.77718

>  <r_i_glide_erotb>  (334) 
0.212839

>  <r_i_glide_esite>  (334) 
-0.147922

>  <r_i_glide_emodel>  (334) 
-32.6369

>  <r_i_glide_energy>  (334) 
-31.7215

>  <r_i_glide_einternal>  (334) 
2.87405

>  <r_i_glide_intrahb_reward>  (334) 
-0

>  <i_i_glide_confnum>  (334) 
1

>  <i_i_glide_posenum>  (334) 
34

>  <r_i_glide_eff_state_penalty>  (334) 
0

>  <ligand_id>  (334) 
108

>  <original_smiles>  (334) 
CC(C(=O)O)C1CC(=NN=C(N)N)CC1(C)C1CCC2(C)CCC3=C4CCC(O)C(C)(C)C4CCC3(C)C12C

>  <smiles>  (334) 
[H]OC1([H])C([H])([H])C([H])([H])C2=C3C([H])([H])C([H])([H])C4(C([H])([H])[H])C([H])([H])C([H])([H])C([H])(C5(C([H])([H])[H])C([H])([H])C(=NN=C(N([H])[H])N([H])[H])C([H])([H])C5([H])C([H])(C(=O)[O-])C([H])([H])[H])C4(C([H])([H])[H])C3(C([H])([H])[H])C([H])([H])C([H])([H])C2([H])C1(C([H])([H])[H])C([H])([H])[H]

$$$$
108:3:2
     RDKit          3D

 90 94  0  0  1  0  0  0  0  0999 V2000
   -0.4508   -2.8102    5.8311 C   0  0  0  0  0  0  0  0  0  0  0  0
    0.3138   -1.4382    5.8378 C   0  0  2  0  0  0  0  0  0  0  0  0
   -0.6972   -0.2723    5.8621 C   0  0  0  0  0  0  0  0  0  0  0  0
   -0.2412    0.8946    5.8844 O   0  0  0  0  0  0  0  0  0  0  0  0
   -1.9104   -0.5406    6.0148 O   0  0  0  0  0  0  0  0  0  0  0  0
    1.4408   -1.2343    4.7796 C   0  0  2  0  0  0  0  0  0  0  0  0
    1.0718   -1.7756    3.3849 C   0  0  0  0  0  0  0  0  0  0  0  0
    2.3638   -2.1187    2.6950 C   0  0  0  0  0  0  0  0  0  0  0  0
    2.4453   -2.5653    1.5159 N   0  0  0  0  0  0  0  0  0  0  0  0
    3.7464   -2.9583    1.1522 N   0  0  0  0  0  0  0  0  0  0  0  0
    4.1383   -2.5021    0.0259 C   0  0  0  0  0  0  0  0  0  0  0  0
    3.4311   -1.7438   -0.8910 N   0  0  0  0  0  0  0  0  0  0  0  0
    5.4364   -2.7065   -0.4036 N   0  0  0  0  0  0  0  0  0  0  0  0
    3.4861   -1.9751    3.7347 C   0  0  0  0  0  0  0  0  0  0  0  0
    2.8610   -1.7834    5.1411 C   0  0  1  0  0  0  0  0  0  0  0  0
    3.7120   -0.7360    5.9354 C   0  0  0  0  0  0  0  0  0  0  0  0
    2.7278   -3.1464    5.9205 C   0  0  2  0  0  0  0  0  0  0  0  0
    2.3242   -2.9696    7.4315 C   0  0  0  0  0  0  0  0  0  0  0  0
    3.1678   -3.9217    8.2576 C   0  0  0  0  0  0  0  0  0  0  0  0
    3.3734   -5.0660    7.2620 C   0  0  2  0  0  0  0  0  0  0  0  0
    2.0094   -5.8503    7.3049 C   0  0  0  0  0  0  0  0  0  0  0  0
    4.5020   -6.0298    7.6561 C   0  0  0  0  0  0  0  0  0  0  0  0
    5.0046   -6.8615    6.4554 C   0  0  0  0  0  0  0  0  0  0  0  0
    4.0337   -6.8964    5.2675 C   0  0  0  0  0  0  0  0  0  0  0  0
    3.5012   -8.0492    4.7468 C   0  0  0  0  0  0  0  0  0  0  0  0
    3.8870   -9.4451    5.2216 C   0  0  0  0  0  0  0  0  0  0  0  0
    2.6542  -10.2579    5.6035 C   0  0  0  0  0  0  0  0  0  0  0  0
    1.7038  -10.3815    4.4067 C   0  0  1  0  0  0  0  0  0  0  0  0
    0.6285  -11.2185    4.7574 O   0  0  0  0  0  0  0  0  0  0  0  0
    1.2412   -9.0064    3.8340 C   0  0  0  0  0  0  0  0  0  0  0  0
    0.5274   -9.3027    2.4928 C   0  0  0  0  0  0  0  0  0  0  0  0
    0.2495   -8.3213    4.8048 C   0  0  0  0  0  0  0  0  0  0  0  0
    2.5041   -8.0978    3.5655 C   0  0  1  0  0  0  0  0  0  0  0  0
    2.1783   -6.7024    2.9818 C   0  0  0  0  0  0  0  0  0  0  0  0
    2.3095   -5.5754    4.0087 C   0  0  0  0  0  0  0  0  0  0  0  0
    3.7076   -5.4865    4.7039 C   0  0  2  0  0  0  0  0  0  0  0  0
    4.7701   -5.3036    3.5682 C   0  0  0  0  0  0  0  0  0  0  0  0
    3.7553   -4.3505    5.8844 C   0  0  1  0  0  0  0  0  0  0  0  0
    5.1916   -3.7002    6.0012 C   0  0  0  0  0  0  0  0  0  0  0  0
   -1.0303   -2.9250    6.7465 H   0  0  0  0  0  0  0  0  0  0  0  0
    0.1298   -3.7238    5.7718 H   0  0  0  0  0  0  0  0  0  0  0  0
   -1.1118   -2.8772    4.9636 H   0  0  0  0  0  0  0  0  0  0  0  0
    0.7696   -1.2275    6.8022 H   0  0  0  0  0  0  0  0  0  0  0  0
    1.6171   -0.1715    4.5940 H   0  0  0  0  0  0  0  0  0  0  0  0
    0.4987   -2.7102    3.4414 H   0  0  0  0  0  0  0  0  0  0  0  0
    0.5066   -1.0591    2.7693 H   0  0  0  0  0  0  0  0  0  0  0  0
    2.4274   -1.5076   -0.7019 H   0  0  0  0  0  0  0  0  0  0  0  0
    3.6157   -1.7104   -1.8742 H   0  0  0  0  0  0  0  0  0  0  0  0
    6.0759   -3.2293    0.1931 H   0  0  0  0  0  0  0  0  0  0  0  0
    5.9063   -2.0776   -1.0520 H   0  0  0  0  0  0  0  0  0  0  0  0
    4.0613   -2.8802    3.7068 H   0  0  0  0  0  0  0  0  0  0  0  0
    4.1478   -1.1632    3.4190 H   0  0  0  0  0  0  0  0  0  0  0  0
    4.7403   -1.0778    6.0888 H   0  0  0  0  0  0  0  0  0  0  0  0
    3.3029   -0.5158    6.9243 H   0  0  0  0  0  0  0  0  0  0  0  0
    3.7684    0.2320    5.4157 H   0  0  0  0  0  0  0  0  0  0  0  0
    1.9493   -3.6118    5.3634 H   0  0  0  0  0  0  0  0  0  0  0  0
    2.4218   -1.9915    7.9077 H   0  0  0  0  0  0  0  0  0  0  0  0
    1.2948   -3.2616    7.6102 H   0  0  0  0  0  0  0  0  0  0  0  0
    4.0922   -3.4233    8.5496 H   0  0  0  0  0  0  0  0  0  0  0  0
    2.6325   -4.1923    9.1795 H   0  0  0  0  0  0  0  0  0  0  0  0
    2.0451   -6.8089    6.8035 H   0  0  0  0  0  0  0  0  0  0  0  0
    1.1597   -5.3100    6.8859 H   0  0  0  0  0  0  0  0  0  0  0  0
    1.7228   -6.0733    8.3337 H   0  0  0  0  0  0  0  0  0  0  0  0
    5.3240   -5.4489    8.0781 H   0  0  0  0  0  0  0  0  0  0  0  0
    4.1388   -6.6691    8.4600 H   0  0  0  0  0  0  0  0  0  0  0  0
    5.9299   -6.4434    6.0809 H   0  0  0  0  0  0  0  0  0  0  0  0
    5.3096   -7.8180    6.8393 H   0  0  0  0  0  0  0  0  0  0  0  0
    4.4124   -9.9399    4.4029 H   0  0  0  0  0  0  0  0  0  0  0  0
    4.5746   -9.4733    6.0589 H   0  0  0  0  0  0  0  0  0  0  0  0
    2.9679  -11.2527    5.9262 H   0  0  0  0  0  0  0  0  0  0  0  0
    2.1585   -9.8038    6.4622 H   0  0  0  0  0  0  0  0  0  0  0  0
    2.2340  -10.9320    3.6258 H   0  0  0  0  0  0  0  0  0  0  0  0
    0.0309  -10.7568    5.3535 H   0  0  0  0  0  0  0  0  0  0  0  0
    0.0827   -8.4237    2.0346 H   0  0  0  0  0  0  0  0  0  0  0  0
   -0.2799  -10.0231    2.6142 H   0  0  0  0  0  0  0  0  0  0  0  0
    1.2165   -9.7281    1.7653 H   0  0  0  0  0  0  0  0  0  0  0  0
   -0.0816   -7.3515    4.4393 H   0  0  0  0  0  0  0  0  0  0  0  0
    0.6893   -8.1666    5.7859 H   0  0  0  0  0  0  0  0  0  0  0  0
   -0.6502   -8.9185    4.9536 H   0  0  0  0  0  0  0  0  0  0  0  0
    3.0675   -8.6087    2.7824 H   0  0  0  0  0  0  0  0  0  0  0  0
    2.8335   -6.5011    2.1339 H   0  0  0  0  0  0  0  0  0  0  0  0
    1.1795   -6.6667    2.5488 H   0  0  0  0  0  0  0  0  0  0  0  0
    2.0639   -4.6581    3.4801 H   0  0  0  0  0  0  0  0  0  0  0  0
    1.5066   -5.7005    4.7346 H   0  0  0  0  0  0  0  0  0  0  0  0
    4.4896   -4.5782    2.8195 H   0  0  0  0  0  0  0  0  0  0  0  0
    4.8775   -6.2132    2.9778 H   0  0  0  0  0  0  0  0  0  0  0  0
    5.7665   -5.0642    3.9281 H   0  0  0  0  0  0  0  0  0  0  0  0
    6.0152   -4.4199    6.0658 H   0  0  0  0  0  0  0  0  0  0  0  0
    5.2791   -3.0536    6.8764 H   0  0  0  0  0  0  0  0  0  0  0  0
    5.4549   -3.0663    5.1487 H   0  0  0  0  0  0  0  0  0  0  0  0
  1  2  1  0
  1 40  1  0
  1 41  1  0
  1 42  1  0
  2  3  1  0
  2  6  1  0
  2 43  1  1
  3  4  2  0
  3  5  1  0
  6 15  1  0
  6  7  1  0
  6 44  1  6
  7  8  1  0
  7 45  1  0
  7 46  1  0
  8  9  2  3
  8 14  1  0
  9 10  1  0
 10 11  2  3
 11 12  1  0
 11 13  1  0
 12 47  1  0
 12 48  1  0
 13 49  1  0
 13 50  1  0
 14 15  1  0
 14 51  1  0
 14 52  1  0
 15 16  1  1
 15 17  1  0
 16 53  1  0
 16 54  1  0
 16 55  1  0
 17 38  1  0
 17 18  1  0
 17 56  1  6
 18 19  1  0
 18 57  1  0
 18 58  1  0
 19 20  1  0
 19 59  1  0
 19 60  1  0
 20 38  1  0
 20 21  1  6
 20 22  1  0
 21 61  1  0
 21 62  1  0
 21 63  1  0
 22 23  1  0
 22 64  1  0
 22 65  1  0
 23 24  1  0
 23 66  1  0
 23 67  1  0
 24 36  1  0
 24 25  2  0
 25 33  1  0
 25 26  1  0
 26 27  1  0
 26 68  1  0
 26 69  1  0
 27 28  1  0
 27 70  1  0
 27 71  1  0
 28 29  1  0
 28 30  1  0
 28 72  1  6
 29 73  1  0
 30 31  1  0
 30 32  1  0
 30 33  1  0
 31 74  1  0
 31 75  1  0
 31 76  1  0
 32 77  1  0
 32 78  1  0
 32 79  1  0
 33 34  1  0
 33 80  1  6
 34 35  1  0
 34 81  1  0
 34 82  1  0
 35 36  1  0
 35 83  1  0
 35 84  1  0
 36 37  1  6
 36 38  1  0
 37 85  1  0
 37 86  1  0
 37 87  1  0
 38 39  1  1
 39 88  1  0
 39 89  1  0
 39 90  1  0
M  CHG  1   5  -1
M  END
>  <i_m_ct_stereo_status>  (335) 
1

>  <s_m_source_file>  (335) 
/var/tmp/pbs.5076255.sched01/tmph7d3_0rd/117btfl79hs.sdf

>  <i_m_source_file_index>  (335) 
31

>  <i_lp_mmshare_version>  (335) 
48012

>  <i_f3d_flags>  (335) 
0

>  <s_epik_input>  (335) 
W05IMl1DKFtOSDJdKT1OL049QyhbQ0gyXTEpXFtDSDJdW0NAQEhdKFtDQEhdKFtDSDNdKUMoPU8pW09IXSlbQ0BAXTEoW0NIM10pW0NASF0oW0NIMl1bQ0gyXTIpW0NAQF0oW0NIM10pKFtDQF0yM1tDSDNdKVtDQEBdNChbQ0gzXSlDKFtDSDJdW0NIMl0zKT1DNVtDQEhdKFtDSDJdW0NIMl00KUMoW0NIM10pKFtDSDNdKVtDQEhdKFtPSF0pW0NIMl1bQ0gyXTU=

>  <s_epik_cmdline>  (335) 
J2VwaWtfcHl0aG9uJywgJy1waHQnLCAnMi4wJywgJy1waCcsICc3LjAnLCAnLXRuJywgJzgnLCAnLW1hJywgJzIwMCcsICctaW1hZScsICc8aW5maWxlLm1hZT4nLCAnLW9tYWUnLCAnPG91dGZpbGUubWFlPic=

>  <r_epik_Ionization_Penalty>  (335) 
0.549535

>  <r_epik_Ionization_Penalty_Charging>  (335) 
0.00127257

>  <r_epik_Ionization_Penalty_Neutral>  (335) 
0.548262

>  <r_epik_State_Penalty>  (335) 
0.558394

>  <r_epik_Charging_Adjusted_Penalty>  (335) 
0.559666

>  <i_epik_Tot_Q>  (335) 
-1

>  <i_epik_Tot_abs_Q>  (335) 
1

>  <s_epik_Chemistry_Notes>  (335) 
This compound has an imine and may undergo hydrolysis.

>  <s_lp_Force_Field>  (335) 
OPLS3e

>  <r_lp_Energy>  (335) 
106.504

>  <b_lp_Chiralities_Consistent>  (335) 
1

>  <s_lp_Variant>  (335) 
108:0-4

>  <s_i_glide_gridfile>  (335) 
pfpi4k_grid

>  <i_i_glide_lignum>  (335) 
31

>  <i_i_glide_rotatable_bonds>  (335) 
5

>  <r_i_docking_score>  (335) 
-2.05922

>  <r_i_glide_ligand_efficiency>  (335) 
-0.0528006

>  <r_i_glide_ligand_efficiency_sa>  (335) 
-0.179058

>  <r_i_glide_ligand_efficiency_ln>  (335) 
-0.441556

>  <r_i_glide_gscore>  (335) 
-2.05922

>  <r_i_glide_lipo>  (335) 
-0.0182785

>  <r_i_glide_hbond>  (335) 
-0.337452

>  <r_i_glide_metal>  (335) 
-0

>  <r_i_glide_rewards>  (335) 
0

>  <r_i_glide_evdw>  (335) 
-26.2374

>  <r_i_glide_ecoul>  (335) 
-5.16618

>  <r_i_glide_erotb>  (335) 
0.212839

>  <r_i_glide_esite>  (335) 
-0.180978

>  <r_i_glide_emodel>  (335) 
-32.641

>  <r_i_glide_energy>  (335) 
-31.4036

>  <r_i_glide_einternal>  (335) 
0.867632

>  <r_i_glide_intrahb_reward>  (335) 
-0

>  <i_i_glide_confnum>  (335) 
1

>  <i_i_glide_posenum>  (335) 
18

>  <r_i_glide_eff_state_penalty>  (335) 
0

>  <ligand_id>  (335) 
108

>  <original_smiles>  (335) 
CC(C(=O)O)C1CC(=NN=C(N)N)CC1(C)C1CCC2(C)CCC3=C4CCC(O)C(C)(C)C4CCC3(C)C12C

>  <smiles>  (335) 
[H]OC1([H])C([H])([H])C([H])([H])C2=C3C([H])([H])C([H])([H])C4(C([H])([H])[H])C([H])([H])C([H])([H])C([H])(C5(C([H])([H])[H])C([H])([H])C(=NN=C(N([H])[H])N([H])[H])C([H])([H])C5([H])C([H])(C(=O)[O-])C([H])([H])[H])C4(C([H])([H])[H])C3(C([H])([H])[H])C([H])([H])C([H])([H])C2([H])C1(C([H])([H])[H])C([H])([H])[H]

$$$$
109:0:0
     RDKit          3D

 61 67  0  0  1  0  0  0  0  0999 V2000
    4.5945   -2.0381    3.9645 C   0  0  0  0  0  0  0  0  0  0  0  0
    3.2341   -2.0803    3.2225 C   0  0  2  0  0  0  0  0  0  0  0  0
    2.6918   -0.6608    3.0321 C   0  0  0  0  0  0  0  0  0  0  0  0
    1.7013   -0.4638    4.1866 C   0  0  1  0  0  0  0  0  0  0  0  0
    0.6557    0.6344    3.9272 C   0  0  1  0  0  0  0  0  0  0  0  0
   -0.1581    0.5901    2.7107 O   0  0  0  0  0  0  0  0  0  0  0  0
   -1.1177    1.4270    3.4466 C   0  0  1  0  0  0  0  0  0  0  0  0
   -0.7050    0.5727    4.6587 C   0  0  0  0  0  0  0  0  0  0  0  0
   -1.2195    0.0984    5.6740 O   0  0  0  0  0  0  0  0  0  0  0  0
   -0.2181    2.6481    3.3907 C   0  0  1  0  0  0  0  0  0  0  0  0
   -0.5263    4.0377    3.9110 C   0  0  0  0  0  0  0  0  0  0  0  0
   -1.5892    4.3584    4.4401 O   0  0  0  0  0  0  0  0  0  0  0  0
    0.6464    5.0087    3.6825 C   0  0  0  0  0  0  0  0  0  0  0  0
    2.0566    4.3573    3.8975 C   0  0  0  0  0  0  0  0  0  0  0  0
    2.2046    2.8506    3.5099 C   0  0  1  0  0  0  0  0  0  0  0  0
    3.4070    2.3852    4.0832 O   0  0  0  0  0  0  0  0  0  0  0  0
    0.9952    2.1194    4.1068 C   0  0  2  0  0  0  0  0  0  0  0  0
    1.1257   -1.7596    4.2922 O   0  0  0  0  0  0  0  0  0  0  0  0
    2.1501   -2.7335    4.1026 C   0  0  1  0  0  0  0  0  0  0  0  0
    1.6043   -3.9543    3.3472 C   0  0  0  0  0  0  0  0  0  0  0  0
    2.6150   -4.2820    2.2321 C   0  0  1  0  0  0  0  0  0  0  0  0
    3.2263   -2.9146    1.9083 C   0  0  2  0  0  0  0  0  0  0  0  0
    4.5165   -2.9764    1.0819 C   0  0  0  0  0  0  0  0  0  0  0  0
    4.8985   -1.9609    0.5034 O   0  0  0  0  0  0  0  0  0  0  0  0
    5.2661   -4.2417    1.0145 C   0  0  0  0  0  0  0  0  0  0  0  0
    4.8996   -5.3463    1.6968 C   0  0  0  0  0  0  0  0  0  0  0  0
    5.8208   -6.5662    1.6986 C   0  0  0  0  0  0  0  0  0  0  0  0
    5.0588   -7.8859    1.5988 C   0  0  0  0  0  0  0  0  0  0  0  0
    5.4428   -8.8032    0.8812 O   0  0  0  0  0  0  0  0  0  0  0  0
    3.8309   -8.0262    2.4861 C   0  0  0  0  0  0  0  0  0  0  0  0
    2.9082   -6.8069    2.3177 C   0  0  0  0  0  0  0  0  0  0  0  0
    3.6148   -5.4414    2.5394 C   0  0  2  0  0  0  0  0  0  0  0  0
    3.9874   -5.4015    3.8989 O   0  0  0  0  0  0  0  0  0  0  0  0
    5.3487   -1.4836    3.4050 H   0  0  0  0  0  0  0  0  0  0  0  0
    4.9902   -3.0339    4.1434 H   0  0  0  0  0  0  0  0  0  0  0  0
    4.5029   -1.5532    4.9376 H   0  0  0  0  0  0  0  0  0  0  0  0
    3.4841    0.0845    3.0206 H   0  0  0  0  0  0  0  0  0  0  0  0
    2.1456   -0.5599    2.0919 H   0  0  0  0  0  0  0  0  0  0  0  0
    2.2468   -0.2489    5.1084 H   0  0  0  0  0  0  0  0  0  0  0  0
   -2.1290    1.4268    3.0396 H   0  0  0  0  0  0  0  0  0  0  0  0
    0.0213    2.8102    2.3365 H   0  0  0  0  0  0  0  0  0  0  0  0
    0.5850    5.3611    2.6522 H   0  0  0  0  0  0  0  0  0  0  0  0
    0.5359    5.8907    4.3148 H   0  0  0  0  0  0  0  0  0  0  0  0
    2.8067    4.9424    3.3599 H   0  0  0  0  0  0  0  0  0  0  0  0
    2.3058    4.4712    4.9554 H   0  0  0  0  0  0  0  0  0  0  0  0
    2.2471    2.7220    2.4261 H   0  0  0  0  0  0  0  0  0  0  0  0
    4.1122    2.5558    3.4731 H   0  0  0  0  0  0  0  0  0  0  0  0
    0.9722    2.3578    5.1754 H   0  0  0  0  0  0  0  0  0  0  0  0
    2.5621   -3.0301    5.0686 H   0  0  0  0  0  0  0  0  0  0  0  0
    1.3970   -4.7944    4.0080 H   0  0  0  0  0  0  0  0  0  0  0  0
    0.6597   -3.6726    2.8860 H   0  0  0  0  0  0  0  0  0  0  0  0
    2.0595   -4.5764    1.3405 H   0  0  0  0  0  0  0  0  0  0  0  0
    2.5058   -2.4359    1.2432 H   0  0  0  0  0  0  0  0  0  0  0  0
    6.1858   -4.2338    0.4447 H   0  0  0  0  0  0  0  0  0  0  0  0
    6.5297   -6.5035    0.8731 H   0  0  0  0  0  0  0  0  0  0  0  0
    6.3964   -6.5770    2.6221 H   0  0  0  0  0  0  0  0  0  0  0  0
    3.3025   -8.9485    2.2398 H   0  0  0  0  0  0  0  0  0  0  0  0
    4.1631   -8.1225    3.5189 H   0  0  0  0  0  0  0  0  0  0  0  0
    2.4942   -6.8465    1.3092 H   0  0  0  0  0  0  0  0  0  0  0  0
    2.0561   -6.9081    2.9930 H   0  0  0  0  0  0  0  0  0  0  0  0
    4.5543   -6.1380    4.0760 H   0  0  0  0  0  0  0  0  0  0  0  0
  2  1  1  1
  1 34  1  0
  1 35  1  0
  1 36  1  0
  2 19  1  0
  2 22  1  0
  2  3  1  0
  3  4  1  0
  3 37  1  0
  3 38  1  0
  4  5  1  0
  4 18  1  0
  4 39  1  1
  5  8  1  0
  5 17  1  0
  5  6  1  6
  6  7  1  0
  7  8  1  0
  7 10  1  0
  7 40  1  6
  8  9  2  0
 10 17  1  0
 10 11  1  0
 10 41  1  6
 11 12  2  0
 11 13  1  0
 13 14  1  0
 13 42  1  0
 13 43  1  0
 14 15  1  0
 14 44  1  0
 14 45  1  0
 15 16  1  0
 15 17  1  0
 15 46  1  6
 16 47  1  0
 17 48  1  1
 18 19  1  0
 19 20  1  0
 19 49  1  1
 20 21  1  0
 20 50  1  0
 20 51  1  0
 21 32  1  0
 21 22  1  0
 21 52  1  6
 22 23  1  0
 22 53  1  6
 23 24  2  0
 23 25  1  0
 25 26  2  0
 25 54  1  0
 26 32  1  0
 26 27  1  0
 27 28  1  0
 27 55  1  0
 27 56  1  0
 28 29  2  0
 28 30  1  0
 30 31  1  0
 30 57  1  0
 30 58  1  0
 31 32  1  0
 31 59  1  0
 31 60  1  0
 32 33  1  1
 33 61  1  0
M  END
>  <i_m_ct_stereo_status>  (336) 
1

>  <s_m_source_file>  (336) 
/var/tmp/pbs.5076255.sched01/tmph7d3_0rd/117btfl79hs.sdf

>  <i_m_source_file_index>  (336) 
32

>  <i_lp_mmshare_version>  (336) 
48012

>  <i_f3d_flags>  (336) 
0

>  <s_epik_input>  (336) 
W09IXVtDQEBIXTFbQ0gyXVtDSDJdQyg9TylbQ0BIXShbQ0BASF0oTzIpQzM9TylbQ0BIXTFbQ0BdMjNbQ0BIXShbQ0gyXTQpT1tDQEhdKFtDQF00NVtDSDNdKVtDSDJdW0NASF02W0NAQEhdNUMoPU8pW0NIXT1DN1tDQF02KFtPSF0pW0NIMl1bQ0gyXUMoPU8pW0NIMl03

>  <s_epik_cmdline>  (336) 
J2VwaWtfcHl0aG9uJywgJy1waHQnLCAnMi4wJywgJy1waCcsICc3LjAnLCAnLXRuJywgJzgnLCAnLW1hJywgJzIwMCcsICctaW1hZScsICc8aW5maWxlLm1hZT4nLCAnLW9tYWUnLCAnPG91dGZpbGUubWFlPic=

>  <r_lp_tautomer_probability>  (336) 
1

>  <r_epik_Ionization_Penalty>  (336) 
2.62114e-07

>  <r_epik_Ionization_Penalty_Charging>  (336) 
0

>  <r_epik_Ionization_Penalty_Neutral>  (336) 
2.62114e-07

>  <r_epik_State_Penalty>  (336) 
-0

>  <r_epik_Charging_Adjusted_Penalty>  (336) 
0

>  <i_epik_Tot_Q>  (336) 
0

>  <i_epik_Tot_abs_Q>  (336) 
0

>  <s_lp_Force_Field>  (336) 
OPLS3e

>  <r_lp_Energy>  (336) 
48.6016

>  <b_lp_Chiralities_Consistent>  (336) 
1

>  <s_lp_Variant>  (336) 
109:0-1

>  <s_i_glide_gridfile>  (336) 
pfpi4k_grid

>  <i_i_glide_lignum>  (336) 
32

>  <i_i_glide_rotatable_bonds>  (336) 
3

>  <r_i_docking_score>  (336) 
-3.63415

>  <r_i_glide_ligand_efficiency>  (336) 
-0.110126

>  <r_i_glide_ligand_efficiency_sa>  (336) 
-0.353233

>  <r_i_glide_ligand_efficiency_ln>  (336) 
-0.808217

>  <r_i_glide_gscore>  (336) 
-3.63415

>  <r_i_glide_lipo>  (336) 
-0.175112

>  <r_i_glide_hbond>  (336) 
-0.3792

>  <r_i_glide_metal>  (336) 
-0

>  <r_i_glide_rewards>  (336) 
-0.401891

>  <r_i_glide_evdw>  (336) 
-29.0597

>  <r_i_glide_ecoul>  (336) 
-8.10378

>  <r_i_glide_erotb>  (336) 
0.0964464

>  <r_i_glide_esite>  (336) 
-0.105845

>  <r_i_glide_emodel>  (336) 
-44.4179

>  <r_i_glide_energy>  (336) 
-37.1635

>  <r_i_glide_einternal>  (336) 
3.74367

>  <r_i_glide_intrahb_reward>  (336) 
-0

>  <i_i_glide_confnum>  (336) 
4

>  <i_i_glide_posenum>  (336) 
33

>  <r_i_glide_eff_state_penalty>  (336) 
0

>  <ligand_id>  (336) 
109

>  <original_smiles>  (336) 
CC12CC(C34OC(C3=O)C3C(=O)CCC(O)C34)OC1CC1C2C(=O)C=C2CC(=O)CCC21O

>  <smiles>  (336) 
[H]OC1([H])C([H])([H])C([H])([H])C(=O)C2([H])C3([H])OC(C4([H])OC5([H])C([H])([H])C6([H])C([H])(C(=O)C([H])=C7C([H])([H])C(=O)C([H])([H])C([H])([H])C76O[H])C5(C([H])([H])[H])C4([H])[H])(C3=O)C12[H]

$$$$
109:0:1
     RDKit          3D

 61 67  0  0  1  0  0  0  0  0999 V2000
    4.2815   -0.1664    1.5147 C   0  0  0  0  0  0  0  0  0  0  0  0
    3.5658   -1.1296    2.4918 C   0  0  2  0  0  0  0  0  0  0  0  0
    4.3833   -2.4166    2.6488 C   0  0  0  0  0  0  0  0  0  0  0  0
    3.7354   -3.4058    1.6731 C   0  0  1  0  0  0  0  0  0  0  0  0
    4.0069   -4.8835    2.0087 C   0  0  1  0  0  0  0  0  0  0  0  0
    3.8137   -5.3691    3.3798 O   0  0  0  0  0  0  0  0  0  0  0  0
    3.6666   -6.7027    2.7750 C   0  0  1  0  0  0  0  0  0  0  0  0
    2.9513   -5.9451    1.6433 C   0  0  0  0  0  0  0  0  0  0  0  0
    2.0070   -6.1071    0.8691 O   0  0  0  0  0  0  0  0  0  0  0  0
    5.1496   -6.7878    2.4508 C   0  0  1  0  0  0  0  0  0  0  0  0
    5.8827   -7.9531    1.8209 C   0  0  0  0  0  0  0  0  0  0  0  0
    5.3487   -9.0044    1.4856 O   0  0  0  0  0  0  0  0  0  0  0  0
    7.3818   -7.6476    1.6445 C   0  0  0  0  0  0  0  0  0  0  0  0
    7.6743   -6.1761    1.1872 C   0  0  0  0  0  0  0  0  0  0  0  0
    6.7124   -5.0726    1.7281 C   0  0  1  0  0  0  0  0  0  0  0  0
    6.9056   -3.9076    0.9621 O   0  0  0  0  0  0  0  0  0  0  0  0
    5.2851   -5.5905    1.5451 C   0  0  2  0  0  0  0  0  0  0  0  0
    2.3658   -3.0634    1.8034 O   0  0  0  0  0  0  0  0  0  0  0  0
    2.2534   -1.6441    1.8803 C   0  0  1  0  0  0  0  0  0  0  0  0
    1.1039   -1.2429    2.8176 C   0  0  0  0  0  0  0  0  0  0  0  0
    1.6417   -0.1547    3.7550 C   0  0  1  0  0  0  0  0  0  0  0  0
    3.1320   -0.4987    3.8480 C   0  0  2  0  0  0  0  0  0  0  0  0
    3.9987    0.6137    4.4376 C   0  0  0  0  0  0  0  0  0  0  0  0
    5.1179    0.3268    4.8560 O   0  0  0  0  0  0  0  0  0  0  0  0
    3.4719    1.9894    4.4828 C   0  0  0  0  0  0  0  0  0  0  0  0
    2.2730    2.3325    3.9639 C   0  0  0  0  0  0  0  0  0  0  0  0
    1.8769    3.8103    3.9018 C   0  0  0  0  0  0  0  0  0  0  0  0
    0.4045    4.0433    4.2385 C   0  0  0  0  0  0  0  0  0  0  0  0
    0.0324    4.9729    4.9540 O   0  0  0  0  0  0  0  0  0  0  0  0
   -0.5957    3.0889    3.6052 C   0  0  0  0  0  0  0  0  0  0  0  0
   -0.1685    1.6289    3.8269 C   0  0  0  0  0  0  0  0  0  0  0  0
    1.2821    1.3201    3.3679 C   0  0  2  0  0  0  0  0  0  0  0  0
    1.3023    1.4741    1.9658 O   0  0  0  0  0  0  0  0  0  0  0  0
    5.2629    0.1285    1.8870 H   0  0  0  0  0  0  0  0  0  0  0  0
    3.7084    0.7440    1.3576 H   0  0  0  0  0  0  0  0  0  0  0  0
    4.4339   -0.6185    0.5334 H   0  0  0  0  0  0  0  0  0  0  0  0
    5.4443   -2.2661    2.4616 H   0  0  0  0  0  0  0  0  0  0  0  0
    4.2908   -2.8209    3.6584 H   0  0  0  0  0  0  0  0  0  0  0  0
    4.0512   -3.1901    0.6513 H   0  0  0  0  0  0  0  0  0  0  0  0
    3.1623   -7.4332    3.4072 H   0  0  0  0  0  0  0  0  0  0  0  0
    5.6895   -6.6115    3.3886 H   0  0  0  0  0  0  0  0  0  0  0  0
    7.8694   -7.8263    2.6041 H   0  0  0  0  0  0  0  0  0  0  0  0
    7.8162   -8.3530    0.9353 H   0  0  0  0  0  0  0  0  0  0  0  0
    8.7024   -5.9212    1.4489 H   0  0  0  0  0  0  0  0  0  0  0  0
    7.6435   -6.1605    0.0961 H   0  0  0  0  0  0  0  0  0  0  0  0
    6.9140   -4.8738    2.7811 H   0  0  0  0  0  0  0  0  0  0  0  0
    6.3325   -3.2331    1.2950 H   0  0  0  0  0  0  0  0  0  0  0  0
    5.1746   -5.8630    0.4891 H   0  0  0  0  0  0  0  0  0  0  0  0
    2.1260   -1.2249    0.8829 H   0  0  0  0  0  0  0  0  0  0  0  0
    0.2194   -0.9245    2.2733 H   0  0  0  0  0  0  0  0  0  0  0  0
    0.8236   -2.1114    3.4126 H   0  0  0  0  0  0  0  0  0  0  0  0
    1.2298   -0.3319    4.7504 H   0  0  0  0  0  0  0  0  0  0  0  0
    3.1830   -1.3008    4.5848 H   0  0  0  0  0  0  0  0  0  0  0  0
    4.1305    2.7489    4.8787 H   0  0  0  0  0  0  0  0  0  0  0  0
    2.4995    4.3934    4.5812 H   0  0  0  0  0  0  0  0  0  0  0  0
    2.0564    4.1822    2.8945 H   0  0  0  0  0  0  0  0  0  0  0  0
   -1.5898    3.2708    4.0141 H   0  0  0  0  0  0  0  0  0  0  0  0
   -0.6464    3.3169    2.5409 H   0  0  0  0  0  0  0  0  0  0  0  0
   -0.2723    1.4132    4.8915 H   0  0  0  0  0  0  0  0  0  0  0  0
   -0.8759    0.9719    3.3188 H   0  0  0  0  0  0  0  0  0  0  0  0
    0.9592    2.3315    1.7372 H   0  0  0  0  0  0  0  0  0  0  0  0
  2  1  1  6
  1 34  1  0
  1 35  1  0
  1 36  1  0
  2 19  1  0
  2 22  1  0
  2  3  1  0
  3  4  1  0
  3 37  1  0
  3 38  1  0
  4  5  1  0
  4 18  1  0
  4 39  1  6
  5  8  1  0
  5 17  1  0
  5  6  1  1
  6  7  1  0
  7  8  1  0
  7 10  1  0
  7 40  1  1
  8  9  2  0
 10 17  1  0
 10 11  1  0
 10 41  1  1
 11 12  2  0
 11 13  1  0
 13 14  1  0
 13 42  1  0
 13 43  1  0
 14 15  1  0
 14 44  1  0
 14 45  1  0
 15 16  1  0
 15 17  1  0
 15 46  1  1
 16 47  1  0
 17 48  1  6
 18 19  1  0
 19 20  1  0
 19 49  1  6
 20 21  1  0
 20 50  1  0
 20 51  1  0
 21 32  1  0
 21 22  1  0
 21 52  1  1
 22 23  1  0
 22 53  1  1
 23 24  2  0
 23 25  1  0
 25 26  2  0
 25 54  1  0
 26 32  1  0
 26 27  1  0
 27 28  1  0
 27 55  1  0
 27 56  1  0
 28 29  2  0
 28 30  1  0
 30 31  1  0
 30 57  1  0
 30 58  1  0
 31 32  1  0
 31 59  1  0
 31 60  1  0
 32 33  1  6
 33 61  1  0
M  END
>  <i_m_ct_stereo_status>  (337) 
1

>  <s_m_source_file>  (337) 
/var/tmp/pbs.5076255.sched01/tmph7d3_0rd/117btfl79hs.sdf

>  <i_m_source_file_index>  (337) 
32

>  <i_lp_mmshare_version>  (337) 
48012

>  <i_f3d_flags>  (337) 
0

>  <s_epik_input>  (337) 
W09IXVtDQEBIXTFbQ0gyXVtDSDJdQyg9TylbQ0BIXShbQ0BASF0oTzIpQzM9TylbQ0BIXTFbQ0BdMjNbQ0BIXShbQ0gyXTQpT1tDQEhdKFtDQF00NVtDSDNdKVtDSDJdW0NASF02W0NAQEhdNUMoPU8pW0NIXT1DN1tDQF02KFtPSF0pW0NIMl1bQ0gyXUMoPU8pW0NIMl03

>  <s_epik_cmdline>  (337) 
J2VwaWtfcHl0aG9uJywgJy1waHQnLCAnMi4wJywgJy1waCcsICc3LjAnLCAnLXRuJywgJzgnLCAnLW1hJywgJzIwMCcsICctaW1hZScsICc8aW5maWxlLm1hZT4nLCAnLW9tYWUnLCAnPG91dGZpbGUubWFlPic=

>  <r_lp_tautomer_probability>  (337) 
1

>  <r_epik_Ionization_Penalty>  (337) 
2.62114e-07

>  <r_epik_Ionization_Penalty_Charging>  (337) 
0

>  <r_epik_Ionization_Penalty_Neutral>  (337) 
2.62114e-07

>  <r_epik_State_Penalty>  (337) 
-0

>  <r_epik_Charging_Adjusted_Penalty>  (337) 
0

>  <i_epik_Tot_Q>  (337) 
0

>  <i_epik_Tot_abs_Q>  (337) 
0

>  <s_lp_Force_Field>  (337) 
OPLS3e

>  <r_lp_Energy>  (337) 
48.6016

>  <b_lp_Chiralities_Consistent>  (337) 
1

>  <s_lp_Variant>  (337) 
109:0-1

>  <s_i_glide_gridfile>  (337) 
pfpi4k_grid

>  <i_i_glide_lignum>  (337) 
32

>  <i_i_glide_rotatable_bonds>  (337) 
3

>  <r_i_docking_score>  (337) 
-2.72545

>  <r_i_glide_ligand_efficiency>  (337) 
-0.0825895

>  <r_i_glide_ligand_efficiency_sa>  (337) 
-0.264909

>  <r_i_glide_ligand_efficiency_ln>  (337) 
-0.606127

>  <r_i_glide_gscore>  (337) 
-2.72545

>  <r_i_glide_lipo>  (337) 
-0.249227

>  <r_i_glide_hbond>  (337) 
-0.0209943

>  <r_i_glide_metal>  (337) 
-0

>  <r_i_glide_rewards>  (337) 
-0.413964

>  <r_i_glide_evdw>  (337) 
-31.231

>  <r_i_glide_ecoul>  (337) 
-3.50929

>  <r_i_glide_erotb>  (337) 
0.0964464

>  <r_i_glide_esite>  (337) 
-0.0497696

>  <r_i_glide_emodel>  (337) 
-39.7964

>  <r_i_glide_energy>  (337) 
-34.7403

>  <r_i_glide_einternal>  (337) 
3.71819

>  <r_i_glide_intrahb_reward>  (337) 
-0

>  <i_i_glide_confnum>  (337) 
1

>  <i_i_glide_posenum>  (337) 
30

>  <r_i_glide_eff_state_penalty>  (337) 
0

>  <ligand_id>  (337) 
109

>  <original_smiles>  (337) 
CC12CC(C34OC(C3=O)C3C(=O)CCC(O)C34)OC1CC1C2C(=O)C=C2CC(=O)CCC21O

>  <smiles>  (337) 
[H]OC1([H])C([H])([H])C([H])([H])C(=O)C2([H])C3([H])OC(C4([H])OC5([H])C([H])([H])C6([H])C([H])(C(=O)C([H])=C7C([H])([H])C(=O)C([H])([H])C([H])([H])C76O[H])C5(C([H])([H])[H])C4([H])[H])(C3=O)C12[H]

$$$$
109:0:2
     RDKit          3D

 61 67  0  0  1  0  0  0  0  0999 V2000
    3.5430   -0.3491    1.9736 C   0  0  0  0  0  0  0  0  0  0  0  0
    2.9361   -1.0089    3.2369 C   0  0  2  0  0  0  0  0  0  0  0  0
    3.7562   -2.2451    3.6407 C   0  0  0  0  0  0  0  0  0  0  0  0
    2.9835   -3.4170    3.0261 C   0  0  1  0  0  0  0  0  0  0  0  0
    3.2124   -4.8066    3.6481 C   0  0  1  0  0  0  0  0  0  0  0  0
    4.5739   -5.3227    3.8223 O   0  0  0  0  0  0  0  0  0  0  0  0
    3.9986   -6.2006    4.8566 C   0  0  1  0  0  0  0  0  0  0  0  0
    3.1107   -4.9889    5.1730 C   0  0  0  0  0  0  0  0  0  0  0  0
    2.5890   -4.4460    6.1479 O   0  0  0  0  0  0  0  0  0  0  0  0
    3.2896   -7.0662    3.8308 C   0  0  1  0  0  0  0  0  0  0  0  0
    2.4452   -8.2934    4.1052 C   0  0  0  0  0  0  0  0  0  0  0  0
    2.2358   -8.7457    5.2255 O   0  0  0  0  0  0  0  0  0  0  0  0
    1.8796   -8.8889    2.8019 C   0  0  0  0  0  0  0  0  0  0  0  0
    1.4231   -7.8042    1.7664 C   0  0  0  0  0  0  0  0  0  0  0  0
    2.2652   -6.4901    1.7123 C   0  0  1  0  0  0  0  0  0  0  0  0
    1.5621   -5.5454    0.9455 O   0  0  0  0  0  0  0  0  0  0  0  0
    2.4243   -6.0265    3.1648 C   0  0  2  0  0  0  0  0  0  0  0  0
    1.6357   -3.0037    3.1919 O   0  0  0  0  0  0  0  0  0  0  0  0
    1.5493   -1.6050    2.9294 C   0  0  1  0  0  0  0  0  0  0  0  0
    0.5271   -0.9317    3.8618 C   0  0  0  0  0  0  0  0  0  0  0  0
    1.1919    0.3375    4.4153 C   0  0  1  0  0  0  0  0  0  0  0  0
    2.6777   -0.0371    4.4253 C   0  0  2  0  0  0  0  0  0  0  0  0
    3.6273    1.1455    4.6073 C   0  0  0  0  0  0  0  0  0  0  0  0
    4.7841    0.9232    4.9598 O   0  0  0  0  0  0  0  0  0  0  0  0
    3.1327    2.5104    4.3583 C   0  0  0  0  0  0  0  0  0  0  0  0
    1.8852    2.7666    3.9144 C   0  0  0  0  0  0  0  0  0  0  0  0
    1.5097    4.2000    3.5365 C   0  0  0  0  0  0  0  0  0  0  0  0
    0.0919    4.5707    3.9619 C   0  0  0  0  0  0  0  0  0  0  0  0
   -0.1784    5.6581    4.4718 O   0  0  0  0  0  0  0  0  0  0  0  0
   -0.9920    3.5368    3.6882 C   0  0  0  0  0  0  0  0  0  0  0  0
   -0.5666    2.1632    4.2302 C   0  0  0  0  0  0  0  0  0  0  0  0
    0.8142    1.6818    3.7097 C   0  0  2  0  0  0  0  0  0  0  0  0
    0.6652    1.4804    2.3195 O   0  0  0  0  0  0  0  0  0  0  0  0
    4.5667   -0.0141    2.1409 H   0  0  0  0  0  0  0  0  0  0  0  0
    2.9667    0.5141    1.6516 H   0  0  0  0  0  0  0  0  0  0  0  0
    3.5661   -1.0431    1.1316 H   0  0  0  0  0  0  0  0  0  0  0  0
    4.7870   -2.2217    3.2830 H   0  0  0  0  0  0  0  0  0  0  0  0
    3.7989   -2.3527    4.7250 H   0  0  0  0  0  0  0  0  0  0  0  0
    3.2102   -3.4524    1.9599 H   0  0  0  0  0  0  0  0  0  0  0  0
    4.7163   -6.6050    5.5704 H   0  0  0  0  0  0  0  0  0  0  0  0
    4.0540   -7.4218    3.1323 H   0  0  0  0  0  0  0  0  0  0  0  0
    2.6670   -9.4918    2.3465 H   0  0  0  0  0  0  0  0  0  0  0  0
    1.0564   -9.5701    3.0220 H   0  0  0  0  0  0  0  0  0  0  0  0
    1.4132   -8.2568    0.7781 H   0  0  0  0  0  0  0  0  0  0  0  0
    0.3816   -7.5547    1.9833 H   0  0  0  0  0  0  0  0  0  0  0  0
    3.2331   -6.6618    1.2367 H   0  0  0  0  0  0  0  0  0  0  0  0
    2.1561   -4.8346    0.7506 H   0  0  0  0  0  0  0  0  0  0  0  0
    1.4221   -5.9845    3.6073 H   0  0  0  0  0  0  0  0  0  0  0  0
    1.2814   -1.4450    1.8834 H   0  0  0  0  0  0  0  0  0  0  0  0
   -0.4199   -0.7277    3.3657 H   0  0  0  0  0  0  0  0  0  0  0  0
    0.3162   -1.6049    4.6910 H   0  0  0  0  0  0  0  0  0  0  0  0
    0.9028    0.4380    5.4627 H   0  0  0  0  0  0  0  0  0  0  0  0
    2.8045   -0.6237    5.3354 H   0  0  0  0  0  0  0  0  0  0  0  0
    3.8463    3.3142    4.4649 H   0  0  0  0  0  0  0  0  0  0  0  0
    2.2216    4.9078    3.9610 H   0  0  0  0  0  0  0  0  0  0  0  0
    1.5725    4.2992    2.4571 H   0  0  0  0  0  0  0  0  0  0  0  0
   -1.9265    3.8578    4.1476 H   0  0  0  0  0  0  0  0  0  0  0  0
   -1.1638    3.4932    2.6125 H   0  0  0  0  0  0  0  0  0  0  0  0
   -0.5445    2.2318    5.3196 H   0  0  0  0  0  0  0  0  0  0  0  0
   -1.3401    1.4313    3.9922 H   0  0  0  0  0  0  0  0  0  0  0  0
    0.4989    2.3144    1.8976 H   0  0  0  0  0  0  0  0  0  0  0  0
  2  1  1  6
  1 34  1  0
  1 35  1  0
  1 36  1  0
  2 19  1  0
  2 22  1  0
  2  3  1  0
  3  4  1  0
  3 37  1  0
  3 38  1  0
  4  5  1  0
  4 18  1  0
  4 39  1  6
  5  8  1  0
  5 17  1  0
  5  6  1  6
  6  7  1  0
  7  8  1  0
  7 10  1  0
  7 40  1  1
  8  9  2  0
 10 17  1  0
 10 11  1  0
 10 41  1  6
 11 12  2  0
 11 13  1  0
 13 14  1  0
 13 42  1  0
 13 43  1  0
 14 15  1  0
 14 44  1  0
 14 45  1  0
 15 16  1  0
 15 17  1  0
 15 46  1  6
 16 47  1  0
 17 48  1  1
 18 19  1  0
 19 20  1  0
 19 49  1  6
 20 21  1  0
 20 50  1  0
 20 51  1  0
 21 32  1  0
 21 22  1  0
 21 52  1  1
 22 23  1  0
 22 53  1  1
 23 24  2  0
 23 25  1  0
 25 26  2  0
 25 54  1  0
 26 32  1  0
 26 27  1  0
 27 28  1  0
 27 55  1  0
 27 56  1  0
 28 29  2  0
 28 30  1  0
 30 31  1  0
 30 57  1  0
 30 58  1  0
 31 32  1  0
 31 59  1  0
 31 60  1  0
 32 33  1  6
 33 61  1  0
M  END
>  <i_m_ct_stereo_status>  (338) 
1

>  <s_m_source_file>  (338) 
/var/tmp/pbs.5076255.sched01/tmph7d3_0rd/117btfl79hs.sdf

>  <i_m_source_file_index>  (338) 
32

>  <i_lp_mmshare_version>  (338) 
48012

>  <i_f3d_flags>  (338) 
0

>  <s_epik_input>  (338) 
W09IXVtDQEBIXTFbQ0gyXVtDSDJdQyg9TylbQ0BIXShbQ0BASF0oTzIpQzM9TylbQ0BIXTFbQ0BdMjNbQ0BIXShbQ0gyXTQpT1tDQEhdKFtDQF00NVtDSDNdKVtDSDJdW0NASF02W0NAQEhdNUMoPU8pW0NIXT1DN1tDQF02KFtPSF0pW0NIMl1bQ0gyXUMoPU8pW0NIMl03

>  <s_epik_cmdline>  (338) 
J2VwaWtfcHl0aG9uJywgJy1waHQnLCAnMi4wJywgJy1waCcsICc3LjAnLCAnLXRuJywgJzgnLCAnLW1hJywgJzIwMCcsICctaW1hZScsICc8aW5maWxlLm1hZT4nLCAnLW9tYWUnLCAnPG91dGZpbGUubWFlPic=

>  <r_lp_tautomer_probability>  (338) 
1

>  <r_epik_Ionization_Penalty>  (338) 
2.62114e-07

>  <r_epik_Ionization_Penalty_Charging>  (338) 
0

>  <r_epik_Ionization_Penalty_Neutral>  (338) 
2.62114e-07

>  <r_epik_State_Penalty>  (338) 
-0

>  <r_epik_Charging_Adjusted_Penalty>  (338) 
0

>  <i_epik_Tot_Q>  (338) 
0

>  <i_epik_Tot_abs_Q>  (338) 
0

>  <s_lp_Force_Field>  (338) 
OPLS3e

>  <r_lp_Energy>  (338) 
48.6016

>  <b_lp_Chiralities_Consistent>  (338) 
1

>  <s_lp_Variant>  (338) 
109:0-1

>  <s_i_glide_gridfile>  (338) 
pfpi4k_grid

>  <i_i_glide_lignum>  (338) 
32

>  <i_i_glide_rotatable_bonds>  (338) 
3

>  <r_i_docking_score>  (338) 
-2.50537

>  <r_i_glide_ligand_efficiency>  (338) 
-0.0759204

>  <r_i_glide_ligand_efficiency_sa>  (338) 
-0.243517

>  <r_i_glide_ligand_efficiency_ln>  (338) 
-0.557182

>  <r_i_glide_gscore>  (338) 
-2.50537

>  <r_i_glide_lipo>  (338) 
-4.28603e-05

>  <r_i_glide_hbond>  (338) 
-0.0367142

>  <r_i_glide_metal>  (338) 
-0

>  <r_i_glide_rewards>  (338) 
-0.296693

>  <r_i_glide_evdw>  (338) 
-24.8431

>  <r_i_glide_ecoul>  (338) 
-6.18926

>  <r_i_glide_erotb>  (338) 
0.0964464

>  <r_i_glide_esite>  (338) 
-0.097827

>  <r_i_glide_emodel>  (338) 
-37.0146

>  <r_i_glide_energy>  (338) 
-31.0323

>  <r_i_glide_einternal>  (338) 
0.598285

>  <r_i_glide_intrahb_reward>  (338) 
-0

>  <i_i_glide_confnum>  (338) 
3

>  <i_i_glide_posenum>  (338) 
17

>  <r_i_glide_eff_state_penalty>  (338) 
0

>  <ligand_id>  (338) 
109

>  <original_smiles>  (338) 
CC12CC(C34OC(C3=O)C3C(=O)CCC(O)C34)OC1CC1C2C(=O)C=C2CC(=O)CCC21O

>  <smiles>  (338) 
[H]OC1([H])C([H])([H])C([H])([H])C(=O)C2([H])C3([H])OC(C4([H])OC5([H])C([H])([H])C6([H])C([H])(C(=O)C([H])=C7C([H])([H])C(=O)C([H])([H])C([H])([H])C76O[H])C5(C([H])([H])[H])C4([H])[H])(C3=O)C12[H]

$$$$
110:0:0
     RDKit          3D

 82 90  0  0  1  0  0  0  0  0999 V2000
    2.1082   -3.0363   -2.5936 C   0  0  0  0  0  0  0  0  0  0  0  0
    2.7639   -3.4568   -1.4010 O   0  0  0  0  0  0  0  0  0  0  0  0
    4.1247   -3.4096   -1.3585 C   0  0  0  0  0  0  0  0  0  0  0  0
    4.7956   -2.9595   -2.3961 N   0  0  0  0  0  0  0  0  0  0  0  0
    6.4001   -3.0317   -1.9746 S   0  0  0  0  0  0  0  0  0  0  0  0
    6.2240   -3.6350   -0.4360 N   0  0  0  0  0  0  0  0  0  0  0  0
    4.9264   -3.8088   -0.2317 C   0  0  0  0  0  0  0  0  0  0  0  0
    4.4779   -4.3488    1.0741 C   0  0  0  0  0  0  0  0  0  0  0  0
    5.2433   -4.5178    2.0648 N   0  0  0  0  0  0  0  0  0  0  0  0
    4.5420   -5.0576    3.1761 O   0  0  0  0  0  0  0  0  0  0  0  0
    3.1797   -5.2094    2.8486 C   0  0  2  0  0  0  0  0  0  0  0  0
    3.0767   -4.7698    1.3816 C   0  0  0  0  0  0  0  0  0  0  0  0
    2.3607   -4.3564    3.8097 C   0  0  0  0  0  0  0  0  0  0  0  0
    2.3056   -3.1343    3.7402 O   0  0  0  0  0  0  0  0  0  0  0  0
    1.7582   -5.1155    4.7222 O   0  0  0  0  0  0  0  0  0  0  0  0
    1.9467   -6.5241    4.5915 C   0  0  1  0  0  0  0  0  0  0  0  0
    2.7119   -6.6320    3.1880 C   0  0  2  0  0  0  0  0  0  0  0  0
    3.5485   -7.8579    2.5646 C   0  0  0  0  0  0  0  0  0  0  0  0
    4.5166   -8.8352    3.3425 C   0  0  2  0  0  0  0  0  0  0  0  0
    4.2598  -10.2972    3.3700 O   0  0  0  0  0  0  0  0  0  0  0  0
    3.5859  -10.8577    4.5712 C   0  0  0  0  0  0  0  0  0  0  0  0
    2.7449  -12.0220    3.9460 C   0  0  0  0  0  0  0  0  0  0  0  0
    4.3850  -11.6627    5.6444 C   0  0  0  0  0  0  0  0  0  0  0  0
    3.0940   -9.4298    5.0209 C   0  0  1  0  0  0  0  0  0  0  0  0
    1.7590   -9.4551    4.1116 C   0  0  0  0  0  0  0  0  0  0  0  0
    0.5927   -9.8931    4.9885 C   0  0  0  0  0  0  0  0  0  0  0  0
    0.8569   -9.1257    6.2603 C   0  0  1  0  0  0  0  0  0  0  0  0
    0.3434   -9.8507    7.3692 O   0  0  0  0  0  0  0  0  0  0  0  0
    2.3845   -8.7486    6.2511 C   0  0  1  0  0  0  0  0  0  0  0  0
    2.9832   -9.1725    7.6207 C   0  0  0  0  0  0  0  0  0  0  0  0
    2.4782   -7.1401    5.9519 C   0  0  1  0  0  0  0  0  0  0  0  0
    3.8418   -6.4896    6.1719 C   0  0  0  0  0  0  0  0  0  0  0  0
    4.9069   -7.3676    5.5751 C   0  0  2  0  0  0  0  0  0  0  0  0
    6.4000   -6.9485    5.4820 C   0  0  2  0  0  0  0  0  0  0  0  0
    6.9048   -6.1099    4.3378 C   0  0  0  0  0  0  0  0  0  0  0  0
    7.7893   -6.7302    3.5567 C   0  0  0  0  0  0  0  0  0  0  0  0
    8.5871   -6.1339    2.4113 C   0  0  0  0  0  0  0  0  0  0  0  0
    7.9536   -8.1735    3.9420 C   0  0  1  0  0  0  0  0  0  0  0  0
    9.3186   -8.5120    4.0857 O   0  0  0  0  0  0  0  0  0  0  0  0
    7.1069   -8.2922    5.2582 C   0  0  1  0  0  0  0  0  0  0  0  0
    7.9243   -8.5311    6.3993 O   0  0  0  0  0  0  0  0  0  0  0  0
    5.9650   -9.3429    5.2033 C   0  0  0  0  0  0  0  0  0  0  0  0
    4.5468   -8.6854    4.8101 C   0  0  2  0  0  0  0  0  0  0  0  0
    1.0383   -3.1414   -2.4383 H   0  0  0  0  0  0  0  0  0  0  0  0
    2.3857   -3.6464   -3.4534 H   0  0  0  0  0  0  0  0  0  0  0  0
    2.3030   -1.9875   -2.8160 H   0  0  0  0  0  0  0  0  0  0  0  0
    2.4001   -3.9254    1.2337 H   0  0  0  0  0  0  0  0  0  0  0  0
    2.7729   -5.5720    0.7066 H   0  0  0  0  0  0  0  0  0  0  0  0
    0.9149   -6.8556    4.4796 H   0  0  0  0  0  0  0  0  0  0  0  0
    1.8405   -6.6819    2.5303 H   0  0  0  0  0  0  0  0  0  0  0  0
    2.8753   -8.4722    1.9655 H   0  0  0  0  0  0  0  0  0  0  0  0
    4.1662   -7.4190    1.7807 H   0  0  0  0  0  0  0  0  0  0  0  0
    5.4876   -8.6913    2.8868 H   0  0  0  0  0  0  0  0  0  0  0  0
    2.0016  -12.4319    4.6271 H   0  0  0  0  0  0  0  0  0  0  0  0
    3.4202  -12.8448    3.7161 H   0  0  0  0  0  0  0  0  0  0  0  0
    2.2827  -11.8576    2.9768 H   0  0  0  0  0  0  0  0  0  0  0  0
    3.8617  -12.5697    5.9615 H   0  0  0  0  0  0  0  0  0  0  0  0
    4.5120  -11.1339    6.5826 H   0  0  0  0  0  0  0  0  0  0  0  0
    5.3517  -12.0012    5.2704 H   0  0  0  0  0  0  0  0  0  0  0  0
    1.3664   -8.5624    3.7006 H   0  0  0  0  0  0  0  0  0  0  0  0
    1.7848   -9.9668    3.1603 H   0  0  0  0  0  0  0  0  0  0  0  0
   -0.3710   -9.6324    4.5448 H   0  0  0  0  0  0  0  0  0  0  0  0
    0.5770  -10.9651    5.1686 H   0  0  0  0  0  0  0  0  0  0  0  0
    0.2528   -8.2200    6.2316 H   0  0  0  0  0  0  0  0  0  0  0  0
    0.7020  -10.7417    7.3605 H   0  0  0  0  0  0  0  0  0  0  0  0
    2.5981   -8.5541    8.4302 H   0  0  0  0  0  0  0  0  0  0  0  0
    4.0630   -9.1412    7.6722 H   0  0  0  0  0  0  0  0  0  0  0  0
    2.7349  -10.2088    7.8641 H   0  0  0  0  0  0  0  0  0  0  0  0
    1.8368   -6.6980    6.7132 H   0  0  0  0  0  0  0  0  0  0  0  0
    3.9387   -5.4824    5.7748 H   0  0  0  0  0  0  0  0  0  0  0  0
    3.9839   -6.3664    7.2476 H   0  0  0  0  0  0  0  0  0  0  0  0
    5.0642   -7.7949    6.5567 H   0  0  0  0  0  0  0  0  0  0  0  0
    6.7332   -6.4618    6.4022 H   0  0  0  0  0  0  0  0  0  0  0  0
    6.6499   -5.0665    4.2599 H   0  0  0  0  0  0  0  0  0  0  0  0
    8.3883   -6.6719    1.4871 H   0  0  0  0  0  0  0  0  0  0  0  0
    9.6558   -6.2116    2.6081 H   0  0  0  0  0  0  0  0  0  0  0  0
    8.3623   -5.0779    2.2548 H   0  0  0  0  0  0  0  0  0  0  0  0
    7.5635   -8.7722    3.1191 H   0  0  0  0  0  0  0  0  0  0  0  0
    9.7420   -8.3858    3.2426 H   0  0  0  0  0  0  0  0  0  0  0  0
    8.4336   -9.3101    6.2278 H   0  0  0  0  0  0  0  0  0  0  0  0
    6.2928  -10.1580    4.5579 H   0  0  0  0  0  0  0  0  0  0  0  0
    5.9308   -9.7445    6.2141 H   0  0  0  0  0  0  0  0  0  0  0  0
  1  2  1  0
  1 44  1  0
  1 45  1  0
  1 46  1  0
  2  3  1  0
  3  7  1  0
  3  4  2  0
  4  5  1  0
  5  6  1  0
  6  7  2  0
  7  8  1  0
  8 12  1  0
  8  9  2  0
  9 10  1  0
 11 10  1  1
 11 17  1  0
 11 12  1  0
 11 13  1  0
 12 47  1  0
 12 48  1  0
 13 14  2  0
 13 15  1  0
 15 16  1  0
 16 31  1  0
 16 17  1  0
 16 49  1  6
 17 18  1  0
 17 50  1  6
 18 19  1  0
 18 51  1  0
 18 52  1  0
 19 43  1  0
 19 20  1  0
 19 53  1  6
 20 21  1  0
 21 22  1  0
 21 23  1  0
 24 21  1  1
 22 54  1  0
 22 55  1  0
 22 56  1  0
 23 57  1  0
 23 58  1  0
 23 59  1  0
 24 29  1  0
 24 43  1  0
 24 25  1  0
 25 26  1  0
 25 60  1  0
 25 61  1  0
 26 27  1  0
 26 62  1  0
 26 63  1  0
 27 28  1  0
 27 29  1  0
 27 64  1  6
 28 65  1  0
 29 30  1  1
 29 31  1  0
 30 66  1  0
 30 67  1  0
 30 68  1  0
 31 32  1  0
 31 69  1  1
 32 33  1  0
 32 70  1  0
 32 71  1  0
 33 43  1  0
 33 34  1  0
 33 72  1  1
 34 40  1  0
 34 35  1  0
 34 73  1  1
 35 36  2  0
 35 74  1  0
 36 37  1  0
 36 38  1  0
 37 75  1  0
 37 76  1  0
 37 77  1  0
 38 39  1  0
 38 40  1  0
 38 78  1  6
 39 79  1  0
 40 41  1  1
 40 42  1  0
 41 80  1  0
 43 42  1  1
 42 81  1  0
 42 82  1  0
M  END
>  <i_m_ct_stereo_status>  (339) 
1

>  <s_m_source_file>  (339) 
/var/tmp/pbs.5076255.sched01/tmph7d3_0rd/117btfl79hs.sdf

>  <i_m_source_file_index>  (339) 
33

>  <i_lp_mmshare_version>  (339) 
48012

>  <i_f3d_flags>  (339) 
0

>  <s_epik_input>  (339) 
W0NIM11PYzFuc25jMUMoW0NIMl0yKT1OT1tDQF0yM1tDQEBIXTRbQ0BIXShPQzM9TylbQ0BIXTVbQ0BdNihbQ0gzXSlbQ0BAXTcoW0NIMl1bQ0gyXVtDQEhdNltPSF0pW0NAQF04KFtDQEhdKFtDSDJdNClPQzcoW0NIM10pW0NIM10pW0NASF0oW0NIMl01KVtDQEhdOVtDQEBdKFtPSF0pKFtDSDJdOClbQ0BIXShbT0hdKUMoPVtDSF05KVtDSDNd

>  <s_epik_cmdline>  (339) 
J2VwaWtfcHl0aG9uJywgJy1waHQnLCAnMi4wJywgJy1waCcsICc3LjAnLCAnLXRuJywgJzgnLCAnLW1hJywgJzIwMCcsICctaW1hZScsICc8aW5maWxlLm1hZT4nLCAnLW9tYWUnLCAnPG91dGZpbGUubWFlPic=

>  <r_lp_tautomer_probability>  (339) 
1

>  <r_epik_Ionization_Penalty>  (339) 
7.66386e-07

>  <r_epik_Ionization_Penalty_Charging>  (339) 
0

>  <r_epik_Ionization_Penalty_Neutral>  (339) 
7.66386e-07

>  <r_epik_State_Penalty>  (339) 
-0

>  <r_epik_Charging_Adjusted_Penalty>  (339) 
0

>  <i_epik_Tot_Q>  (339) 
0

>  <i_epik_Tot_abs_Q>  (339) 
0

>  <s_epik_Chemistry_Notes>  (339) 
This compound has an ester and may undergo hydrolysis at high or low pH. This compound has an imine and may undergo hydrolysis.

>  <s_lp_Force_Field>  (339) 
OPLS3e

>  <r_lp_Energy>  (339) 
190.018

>  <b_lp_Chiralities_Consistent>  (339) 
1

>  <s_lp_Variant>  (339) 
110:0-1

>  <s_i_glide_gridfile>  (339) 
pfpi4k_grid

>  <i_i_glide_lignum>  (339) 
33

>  <i_i_glide_rotatable_bonds>  (339) 
5

>  <r_i_docking_score>  (339) 
-2.93132

>  <r_i_glide_ligand_efficiency>  (339) 
-0.0681701

>  <r_i_glide_ligand_efficiency_sa>  (339) 
-0.238827

>  <r_i_glide_ligand_efficiency_ln>  (339) 
-0.615668

>  <r_i_glide_gscore>  (339) 
-2.93132

>  <r_i_glide_lipo>  (339) 
-0.235822

>  <r_i_glide_hbond>  (339) 
-0.16

>  <r_i_glide_metal>  (339) 
-0

>  <r_i_glide_rewards>  (339) 
-0.0372055

>  <r_i_glide_evdw>  (339) 
-31.8383

>  <r_i_glide_ecoul>  (339) 
-6.41538

>  <r_i_glide_erotb>  (339) 
0.0559325

>  <r_i_glide_esite>  (339) 
0

>  <r_i_glide_emodel>  (339) 
-44.9471

>  <r_i_glide_energy>  (339) 
-38.2537

>  <r_i_glide_einternal>  (339) 
1.31898

>  <r_i_glide_intrahb_reward>  (339) 
-0

>  <i_i_glide_confnum>  (339) 
2

>  <i_i_glide_posenum>  (339) 
33

>  <r_i_glide_eff_state_penalty>  (339) 
0

>  <ligand_id>  (339) 
110

>  <original_smiles>  (339) 
COc1nsnc1C1=NOC2(C1)C(=O)OC1C2CC2OC(C)(C)C34CCC(O)C3(C)C1CC1C3C=C(C)C(O)C3(O)CC214

>  <smiles>  (339) 
[H]OC1([H])C(C([H])([H])[H])=C([H])C2([H])C3([H])C([H])([H])C4([H])C5([H])OC(=O)C6(ON=C(c7nsnc7OC([H])([H])[H])C6([H])[H])C5([H])C([H])([H])C5([H])OC(C([H])([H])[H])(C([H])([H])[H])C6(C([H])([H])C([H])([H])C([H])(O[H])C46C([H])([H])[H])C53C([H])([H])C12O[H]

$$$$
110:0:1
     RDKit          3D

 82 90  0  0  1  0  0  0  0  0999 V2000
    7.1683   -2.5249    0.7303 C   0  0  0  0  0  0  0  0  0  0  0  0
    6.8015   -3.3748   -0.3655 O   0  0  0  0  0  0  0  0  0  0  0  0
    5.6162   -3.1658   -0.9802 C   0  0  0  0  0  0  0  0  0  0  0  0
    5.6616   -2.6957   -2.1914 N   0  0  0  0  0  0  0  0  0  0  0  0
    4.0773   -2.5660   -2.7173 S   0  0  0  0  0  0  0  0  0  0  0  0
    3.3373   -3.1542   -1.3366 N   0  0  0  0  0  0  0  0  0  0  0  0
    4.2969   -3.5234   -0.5045 C   0  0  0  0  0  0  0  0  0  0  0  0
    3.9099   -4.1782    0.7497 C   0  0  0  0  0  0  0  0  0  0  0  0
    4.7842   -4.5276    1.6348 N   0  0  0  0  0  0  0  0  0  0  0  0
    4.1449   -4.9232    2.8310 O   0  0  0  0  0  0  0  0  0  0  0  0
    2.7452   -4.9991    2.6322 C   0  0  2  0  0  0  0  0  0  0  0  0
    2.5292   -4.5076    1.1840 C   0  0  0  0  0  0  0  0  0  0  0  0
    2.0298   -4.1597    3.6884 C   0  0  0  0  0  0  0  0  0  0  0  0
    1.9829   -2.9366    3.6654 O   0  0  0  0  0  0  0  0  0  0  0  0
    1.5022   -4.9448    4.6345 O   0  0  0  0  0  0  0  0  0  0  0  0
    1.6859   -6.3468    4.4348 C   0  0  1  0  0  0  0  0  0  0  0  0
    2.3223   -6.4216    2.9612 C   0  0  2  0  0  0  0  0  0  0  0  0
    3.1520   -7.6157    2.2439 C   0  0  0  0  0  0  0  0  0  0  0  0
    4.1789   -8.6059    2.9181 C   0  0  2  0  0  0  0  0  0  0  0  0
    3.9278  -10.0698    2.9208 O   0  0  0  0  0  0  0  0  0  0  0  0
    3.3418  -10.6680    4.1501 C   0  0  0  0  0  0  0  0  0  0  0  0
    2.4538  -11.8186    3.5565 C   0  0  0  0  0  0  0  0  0  0  0  0
    4.2138  -11.5052    5.1365 C   0  0  0  0  0  0  0  0  0  0  0  0
    2.8858   -9.2540    4.6737 C   0  0  1  0  0  0  0  0  0  0  0  0
    1.4898   -9.2649    3.8668 C   0  0  0  0  0  0  0  0  0  0  0  0
    0.3911   -9.7253    4.8136 C   0  0  0  0  0  0  0  0  0  0  0  0
    0.7474   -8.9918    6.0860 C   0  0  1  0  0  0  0  0  0  0  0  0
    0.3070   -9.7406    7.2114 O   0  0  0  0  0  0  0  0  0  0  0  0
    2.2708   -8.6108    5.9730 C   0  0  1  0  0  0  0  0  0  0  0  0
    2.9623   -9.0774    7.2849 C   0  0  0  0  0  0  0  0  0  0  0  0
    2.3415   -6.9949    5.7194 C   0  0  1  0  0  0  0  0  0  0  0  0
    3.7139   -6.3467    5.8481 C   0  0  0  0  0  0  0  0  0  0  0  0
    4.7260   -7.2015    5.1476 C   0  0  2  0  0  0  0  0  0  0  0  0
    6.2097   -6.7766    4.9742 C   0  0  2  0  0  0  0  0  0  0  0  0
    6.6409   -5.9392    3.8078 C   0  0  0  0  0  0  0  0  0  0  0  0
    7.4492   -6.5588    2.9500 C   0  0  0  0  0  0  0  0  0  0  0  0
    8.1854   -5.9556    1.7828 C   0  0  0  0  0  0  0  0  0  0  0  0
    7.6335   -8.0005    3.2919 C   0  0  1  0  0  0  0  0  0  0  0  0
    9.0124   -8.3232    3.3456 O   0  0  0  0  0  0  0  0  0  0  0  0
    6.8912   -8.1205    4.6698 C   0  0  1  0  0  0  0  0  0  0  0  0
    7.7917   -8.4034    5.7329 O   0  0  0  0  0  0  0  0  0  0  0  0
    5.7526   -9.1714    4.6577 C   0  0  0  0  0  0  0  0  0  0  0  0
    4.3167   -8.5060    4.3782 C   0  0  2  0  0  0  0  0  0  0  0  0
    8.2155   -2.7827    0.9505 H   0  0  0  0  0  0  0  0  0  0  0  0
    6.5391   -2.7664    1.5829 H   0  0  0  0  0  0  0  0  0  0  0  0
    7.1091   -1.4622    0.4501 H   0  0  0  0  0  0  0  0  0  0  0  0
    1.8866   -3.6214    1.1171 H   0  0  0  0  0  0  0  0  0  0  0  0
    2.1350   -5.2898    0.5346 H   0  0  0  0  0  0  0  0  0  0  0  0
    0.6523   -6.6921    4.3896 H   0  0  0  0  0  0  0  0  0  0  0  0
    1.4137   -6.4664    2.3656 H   0  0  0  0  0  0  0  0  0  0  0  0
    2.4467   -8.2133    1.6716 H   0  0  0  0  0  0  0  0  0  0  0  0
    3.7122   -7.1524    1.4329 H   0  0  0  0  0  0  0  0  0  0  0  0
    5.1140   -8.4499    2.3938 H   0  0  0  0  0  0  0  0  0  0  0  0
    1.7596  -12.2519    4.2772 H   0  0  0  0  0  0  0  0  0  0  0  0
    3.1058  -12.6339    3.2436 H   0  0  0  0  0  0  0  0  0  0  0  0
    1.9211  -11.6182    2.6334 H   0  0  0  0  0  0  0  0  0  0  0  0
    3.7083  -12.4197    5.4621 H   0  0  0  0  0  0  0  0  0  0  0  0
    4.4097  -11.0023    6.0784 H   0  0  0  0  0  0  0  0  0  0  0  0
    5.1481  -11.8338    4.6808 H   0  0  0  0  0  0  0  0  0  0  0  0
    1.0626   -8.3638    3.5151 H   0  0  0  0  0  0  0  0  0  0  0  0
    1.4485   -9.7421    2.8979 H   0  0  0  0  0  0  0  0  0  0  0  0
   -0.5953   -9.4506    4.4406 H   0  0  0  0  0  0  0  0  0  0  0  0
    0.3805  -10.8021    4.9609 H   0  0  0  0  0  0  0  0  0  0  0  0
    0.1427   -8.0872    6.1163 H   0  0  0  0  0  0  0  0  0  0  0  0
    0.7524  -10.5902    7.2253 H   0  0  0  0  0  0  0  0  0  0  0  0
    2.6315   -8.4822    8.1363 H   0  0  0  0  0  0  0  0  0  0  0  0
    4.0437   -9.0384    7.2603 H   0  0  0  0  0  0  0  0  0  0  0  0
    2.7321  -10.1235    7.5133 H   0  0  0  0  0  0  0  0  0  0  0  0
    1.7594   -6.5826    6.5376 H   0  0  0  0  0  0  0  0  0  0  0  0
    3.7816   -5.3267    5.4757 H   0  0  0  0  0  0  0  0  0  0  0  0
    3.9361   -6.2673    6.9165 H   0  0  0  0  0  0  0  0  0  0  0  0
    4.9486   -7.6624    6.1000 H   0  0  0  0  0  0  0  0  0  0  0  0
    6.6269   -6.3307    5.8843 H   0  0  0  0  0  0  0  0  0  0  0  0
    6.3684   -4.8976    3.7573 H   0  0  0  0  0  0  0  0  0  0  0  0
    7.9258   -6.4689    0.8502 H   0  0  0  0  0  0  0  0  0  0  0  0
    9.2727   -6.0370    1.9098 H   0  0  0  0  0  0  0  0  0  0  0  0
    7.9165   -4.9063    1.7379 H   0  0  0  0  0  0  0  0  0  0  0  0
    7.1924   -8.5645    2.4642 H   0  0  0  0  0  0  0  0  0  0  0  0
    9.4040   -8.1648    2.4913 H   0  0  0  0  0  0  0  0  0  0  0  0
    8.3161   -9.1555    5.4720 H   0  0  0  0  0  0  0  0  0  0  0  0
    6.0284   -9.9655    3.9611 H   0  0  0  0  0  0  0  0  0  0  0  0
    5.7909   -9.5994    5.6554 H   0  0  0  0  0  0  0  0  0  0  0  0
  1  2  1  0
  1 44  1  0
  1 45  1  0
  1 46  1  0
  2  3  1  0
  3  7  1  0
  3  4  2  0
  4  5  1  0
  5  6  1  0
  6  7  2  0
  7  8  1  0
  8 12  1  0
  8  9  2  0
  9 10  1  0
 11 10  1  1
 11 17  1  0
 11 12  1  0
 11 13  1  0
 12 47  1  0
 12 48  1  0
 13 14  2  0
 13 15  1  0
 15 16  1  0
 16 31  1  0
 16 17  1  0
 16 49  1  6
 17 18  1  0
 17 50  1  6
 18 19  1  0
 18 51  1  0
 18 52  1  0
 19 43  1  0
 19 20  1  0
 19 53  1  6
 20 21  1  0
 21 22  1  0
 21 23  1  0
 24 21  1  1
 22 54  1  0
 22 55  1  0
 22 56  1  0
 23 57  1  0
 23 58  1  0
 23 59  1  0
 24 29  1  0
 24 43  1  0
 24 25  1  0
 25 26  1  0
 25 60  1  0
 25 61  1  0
 26 27  1  0
 26 62  1  0
 26 63  1  0
 27 28  1  0
 27 29  1  0
 27 64  1  6
 28 65  1  0
 29 30  1  1
 29 31  1  0
 30 66  1  0
 30 67  1  0
 30 68  1  0
 31 32  1  0
 31 69  1  1
 32 33  1  0
 32 70  1  0
 32 71  1  0
 33 43  1  0
 33 34  1  0
 33 72  1  1
 34 40  1  0
 34 35  1  0
 34 73  1  1
 35 36  2  0
 35 74  1  0
 36 37  1  0
 36 38  1  0
 37 75  1  0
 37 76  1  0
 37 77  1  0
 38 39  1  0
 38 40  1  0
 38 78  1  6
 39 79  1  0
 40 41  1  1
 40 42  1  0
 41 80  1  0
 43 42  1  1
 42 81  1  0
 42 82  1  0
M  END
>  <i_m_ct_stereo_status>  (340) 
1

>  <s_m_source_file>  (340) 
/var/tmp/pbs.5076255.sched01/tmph7d3_0rd/117btfl79hs.sdf

>  <i_m_source_file_index>  (340) 
33

>  <i_lp_mmshare_version>  (340) 
48012

>  <i_f3d_flags>  (340) 
0

>  <s_epik_input>  (340) 
W0NIM11PYzFuc25jMUMoW0NIMl0yKT1OT1tDQF0yM1tDQEBIXTRbQ0BIXShPQzM9TylbQ0BIXTVbQ0BdNihbQ0gzXSlbQ0BAXTcoW0NIMl1bQ0gyXVtDQEhdNltPSF0pW0NAQF04KFtDQEhdKFtDSDJdNClPQzcoW0NIM10pW0NIM10pW0NASF0oW0NIMl01KVtDQEhdOVtDQEBdKFtPSF0pKFtDSDJdOClbQ0BIXShbT0hdKUMoPVtDSF05KVtDSDNd

>  <s_epik_cmdline>  (340) 
J2VwaWtfcHl0aG9uJywgJy1waHQnLCAnMi4wJywgJy1waCcsICc3LjAnLCAnLXRuJywgJzgnLCAnLW1hJywgJzIwMCcsICctaW1hZScsICc8aW5maWxlLm1hZT4nLCAnLW9tYWUnLCAnPG91dGZpbGUubWFlPic=

>  <r_lp_tautomer_probability>  (340) 
1

>  <r_epik_Ionization_Penalty>  (340) 
7.66386e-07

>  <r_epik_Ionization_Penalty_Charging>  (340) 
0

>  <r_epik_Ionization_Penalty_Neutral>  (340) 
7.66386e-07

>  <r_epik_State_Penalty>  (340) 
-0

>  <r_epik_Charging_Adjusted_Penalty>  (340) 
0

>  <i_epik_Tot_Q>  (340) 
0

>  <i_epik_Tot_abs_Q>  (340) 
0

>  <s_epik_Chemistry_Notes>  (340) 
This compound has an ester and may undergo hydrolysis at high or low pH. This compound has an imine and may undergo hydrolysis.

>  <s_lp_Force_Field>  (340) 
OPLS3e

>  <r_lp_Energy>  (340) 
190.018

>  <b_lp_Chiralities_Consistent>  (340) 
1

>  <s_lp_Variant>  (340) 
110:0-1

>  <s_i_glide_gridfile>  (340) 
pfpi4k_grid

>  <i_i_glide_lignum>  (340) 
33

>  <i_i_glide_rotatable_bonds>  (340) 
5

>  <r_i_docking_score>  (340) 
-2.74437

>  <r_i_glide_ligand_efficiency>  (340) 
-0.0638226

>  <r_i_glide_ligand_efficiency_sa>  (340) 
-0.223596

>  <r_i_glide_ligand_efficiency_ln>  (340) 
-0.576404

>  <r_i_glide_gscore>  (340) 
-2.74437

>  <r_i_glide_lipo>  (340) 
-0.253423

>  <r_i_glide_hbond>  (340) 
-0.152

>  <r_i_glide_metal>  (340) 
-0

>  <r_i_glide_rewards>  (340) 
-0.0178524

>  <r_i_glide_evdw>  (340) 
-32.463

>  <r_i_glide_ecoul>  (340) 
-5.02421

>  <r_i_glide_erotb>  (340) 
0.0559325

>  <r_i_glide_esite>  (340) 
-0.000251381

>  <r_i_glide_emodel>  (340) 
-41.6972

>  <r_i_glide_energy>  (340) 
-37.4872

>  <r_i_glide_einternal>  (340) 
3.759

>  <r_i_glide_intrahb_reward>  (340) 
-0

>  <i_i_glide_confnum>  (340) 
3

>  <i_i_glide_posenum>  (340) 
10

>  <r_i_glide_eff_state_penalty>  (340) 
0

>  <ligand_id>  (340) 
110

>  <original_smiles>  (340) 
COc1nsnc1C1=NOC2(C1)C(=O)OC1C2CC2OC(C)(C)C34CCC(O)C3(C)C1CC1C3C=C(C)C(O)C3(O)CC214

>  <smiles>  (340) 
[H]OC1([H])C(C([H])([H])[H])=C([H])C2([H])C3([H])C([H])([H])C4([H])C5([H])OC(=O)C6(ON=C(c7nsnc7OC([H])([H])[H])C6([H])[H])C5([H])C([H])([H])C5([H])OC(C([H])([H])[H])(C([H])([H])[H])C6(C([H])([H])C([H])([H])C([H])(O[H])C46C([H])([H])[H])C53C([H])([H])C12O[H]

$$$$
110:0:2
     RDKit          3D

 82 90  0  0  1  0  0  0  0  0999 V2000
    1.4213   -6.7216    1.6003 C   0  0  0  0  0  0  0  0  0  0  0  0
    1.8862   -5.5180    2.2059 O   0  0  0  0  0  0  0  0  0  0  0  0
    2.9637   -5.5918    3.0392 C   0  0  0  0  0  0  0  0  0  0  0  0
    3.4744   -6.7712    3.3383 N   0  0  0  0  0  0  0  0  0  0  0  0
    4.7419   -6.4894    4.3707 S   0  0  0  0  0  0  0  0  0  0  0  0
    4.6296   -4.8242    4.4313 N   0  0  0  0  0  0  0  0  0  0  0  0
    3.6224   -4.4740    3.6621 C   0  0  0  0  0  0  0  0  0  0  0  0
    3.2831   -3.0277    3.5320 C   0  0  0  0  0  0  0  0  0  0  0  0
    3.9280   -2.1057    4.1053 N   0  0  0  0  0  0  0  0  0  0  0  0
    3.3618   -0.8316    3.8238 O   0  0  0  0  0  0  0  0  0  0  0  0
    2.2789   -0.9779    2.9357 C   0  0  2  0  0  0  0  0  0  0  0  0
    2.1430   -2.4930    2.7275 C   0  0  0  0  0  0  0  0  0  0  0  0
    2.6174   -0.2091    1.6672 C   0  0  0  0  0  0  0  0  0  0  0  0
    3.4525   -0.5871    0.8527 O   0  0  0  0  0  0  0  0  0  0  0  0
    1.9313    0.9310    1.6074 O   0  0  0  0  0  0  0  0  0  0  0  0
    1.0008    1.1579    2.6598 C   0  0  1  0  0  0  0  0  0  0  0  0
    1.0519   -0.2280    3.4601 C   0  0  2  0  0  0  0  0  0  0  0  0
    0.5693   -0.5713    4.9566 C   0  0  0  0  0  0  0  0  0  0  0  0
    0.7115    0.3499    6.2354 C   0  0  2  0  0  0  0  0  0  0  0  0
   -0.4974    0.7844    6.9929 O   0  0  0  0  0  0  0  0  0  0  0  0
   -1.0123    2.1538    6.7224 C   0  0  0  0  0  0  0  0  0  0  0  0
   -2.5586    1.9489    6.9210 C   0  0  0  0  0  0  0  0  0  0  0  0
   -0.7702    3.3250    7.7241 C   0  0  0  0  0  0  0  0  0  0  0  0
   -0.1982    2.2435    5.3714 C   0  0  1  0  0  0  0  0  0  0  0  0
   -1.3320    1.5050    4.4868 C   0  0  0  0  0  0  0  0  0  0  0  0
   -2.1873    2.5717    3.8142 C   0  0  0  0  0  0  0  0  0  0  0  0
   -1.1311    3.5416    3.3572 C   0  0  1  0  0  0  0  0  0  0  0  0
   -1.6513    4.8619    3.2792 O   0  0  0  0  0  0  0  0  0  0  0  0
    0.1422    3.3025    4.2527 C   0  0  1  0  0  0  0  0  0  0  0  0
    0.5928    4.6794    4.8221 C   0  0  0  0  0  0  0  0  0  0  0  0
    1.2661    2.5788    3.3083 C   0  0  1  0  0  0  0  0  0  0  0  0
    2.6773    2.4906    3.8860 C   0  0  0  0  0  0  0  0  0  0  0  0
    2.5990    2.0590    5.3230 C   0  0  2  0  0  0  0  0  0  0  0  0
    3.8526    1.7160    6.1730 C   0  0  2  0  0  0  0  0  0  0  0  0
    4.4995    0.3531    6.1338 C   0  0  0  0  0  0  0  0  0  0  0  0
    4.4239   -0.3094    7.2885 C   0  0  0  0  0  0  0  0  0  0  0  0
    5.0571   -1.6439    7.6283 C   0  0  0  0  0  0  0  0  0  0  0  0
    3.6000    0.4295    8.3066 C   0  0  1  0  0  0  0  0  0  0  0  0
    4.2676    0.5095    9.5503 O   0  0  0  0  0  0  0  0  0  0  0  0
    3.3043    1.7943    7.6084 C   0  0  1  0  0  0  0  0  0  0  0  0
    3.9901    2.8396    8.2809 O   0  0  0  0  0  0  0  0  0  0  0  0
    1.8003    2.1409    7.4450 C   0  0  0  0  0  0  0  0  0  0  0  0
    1.2286    1.7135    6.0006 C   0  0  2  0  0  0  0  0  0  0  0  0
    0.5775   -6.4808    0.9599 H   0  0  0  0  0  0  0  0  0  0  0  0
    1.0789   -7.4479    2.3386 H   0  0  0  0  0  0  0  0  0  0  0  0
    2.1880   -7.1840    0.9780 H   0  0  0  0  0  0  0  0  0  0  0  0
    2.2534   -2.7985    1.6837 H   0  0  0  0  0  0  0  0  0  0  0  0
    1.1971   -2.8934    3.0951 H   0  0  0  0  0  0  0  0  0  0  0  0
    0.0673    1.2345    2.1049 H   0  0  0  0  0  0  0  0  0  0  0  0
    0.2735   -0.7621    2.9096 H   0  0  0  0  0  0  0  0  0  0  0  0
   -0.4623   -0.9211    4.9161 H   0  0  0  0  0  0  0  0  0  0  0  0
    1.0850   -1.4954    5.2210 H   0  0  0  0  0  0  0  0  0  0  0  0
    1.3338   -0.2147    6.9202 H   0  0  0  0  0  0  0  0  0  0  0  0
   -3.1581    2.7752    6.5441 H   0  0  0  0  0  0  0  0  0  0  0  0
   -2.7707    1.9015    7.9878 H   0  0  0  0  0  0  0  0  0  0  0  0
   -2.9845    1.0131    6.5751 H   0  0  0  0  0  0  0  0  0  0  0  0
   -1.6697    3.9220    7.8896 H   0  0  0  0  0  0  0  0  0  0  0  0
   -0.0652    4.0673    7.3653 H   0  0  0  0  0  0  0  0  0  0  0  0
   -0.4719    2.9704    8.7100 H   0  0  0  0  0  0  0  0  0  0  0  0
   -1.0631    0.9127    3.6505 H   0  0  0  0  0  0  0  0  0  0  0  0
   -1.9240    0.7265    4.9404 H   0  0  0  0  0  0  0  0  0  0  0  0
   -2.7419    2.1721    2.9612 H   0  0  0  0  0  0  0  0  0  0  0  0
   -2.9058    3.0443    4.4779 H   0  0  0  0  0  0  0  0  0  0  0  0
   -0.9403    3.2704    2.3230 H   0  0  0  0  0  0  0  0  0  0  0  0
   -1.1182    5.3000    2.6271 H   0  0  0  0  0  0  0  0  0  0  0  0
    0.9920    5.3222    4.0385 H   0  0  0  0  0  0  0  0  0  0  0  0
    1.3393    4.6249    5.6028 H   0  0  0  0  0  0  0  0  0  0  0  0
   -0.2383    5.2176    5.2825 H   0  0  0  0  0  0  0  0  0  0  0  0
    1.3629    3.2560    2.4589 H   0  0  0  0  0  0  0  0  0  0  0  0
    3.3549    1.8370    3.3425 H   0  0  0  0  0  0  0  0  0  0  0  0
    3.1440    3.4740    3.7837 H   0  0  0  0  0  0  0  0  0  0  0  0
    2.6540    3.1027    5.6025 H   0  0  0  0  0  0  0  0  0  0  0  0
    4.6488    2.4432    5.9926 H   0  0  0  0  0  0  0  0  0  0  0  0
    5.0532    0.0147    5.2745 H   0  0  0  0  0  0  0  0  0  0  0  0
    4.2977   -2.3635    7.9292 H   0  0  0  0  0  0  0  0  0  0  0  0
    5.7488   -1.5263    8.4610 H   0  0  0  0  0  0  0  0  0  0  0  0
    5.6167   -2.0558    6.7874 H   0  0  0  0  0  0  0  0  0  0  0  0
    2.7001   -0.1504    8.4910 H   0  0  0  0  0  0  0  0  0  0  0  0
    5.0138    1.0855    9.4752 H   0  0  0  0  0  0  0  0  0  0  0  0
    4.9202    2.6900    8.1693 H   0  0  0  0  0  0  0  0  0  0  0  0
    1.2690    1.7153    8.2927 H   0  0  0  0  0  0  0  0  0  0  0  0
    1.7597    3.2208    7.5691 H   0  0  0  0  0  0  0  0  0  0  0  0
  1  2  1  0
  1 44  1  0
  1 45  1  0
  1 46  1  0
  2  3  1  0
  3  7  1  0
  3  4  2  0
  4  5  1  0
  5  6  1  0
  6  7  2  0
  7  8  1  0
  8 12  1  0
  8  9  2  0
  9 10  1  0
 11 10  1  1
 11 17  1  0
 11 12  1  0
 11 13  1  0
 12 47  1  0
 12 48  1  0
 13 14  2  0
 13 15  1  0
 15 16  1  0
 16 31  1  0
 16 17  1  0
 16 49  1  6
 17 18  1  0
 17 50  1  6
 18 19  1  0
 18 51  1  0
 18 52  1  0
 19 43  1  0
 19 20  1  0
 19 53  1  1
 20 21  1  0
 21 22  1  0
 21 23  1  0
 24 21  1  1
 22 54  1  0
 22 55  1  0
 22 56  1  0
 23 57  1  0
 23 58  1  0
 23 59  1  0
 24 29  1  0
 24 43  1  0
 24 25  1  0
 25 26  1  0
 25 60  1  0
 25 61  1  0
 26 27  1  0
 26 62  1  0
 26 63  1  0
 27 28  1  0
 27 29  1  0
 27 64  1  6
 28 65  1  0
 29 30  1  1
 29 31  1  0
 30 66  1  0
 30 67  1  0
 30 68  1  0
 31 32  1  0
 31 69  1  6
 32 33  1  0
 32 70  1  0
 32 71  1  0
 33 43  1  0
 33 34  1  0
 33 72  1  1
 34 40  1  0
 34 35  1  0
 34 73  1  1
 35 36  2  0
 35 74  1  0
 36 37  1  0
 36 38  1  0
 37 75  1  0
 37 76  1  0
 37 77  1  0
 38 39  1  0
 38 40  1  0
 38 78  1  1
 39 79  1  0
 40 41  1  1
 40 42  1  0
 41 80  1  0
 43 42  1  1
 42 81  1  0
 42 82  1  0
M  END
>  <i_m_ct_stereo_status>  (341) 
1

>  <s_m_source_file>  (341) 
/var/tmp/pbs.5076255.sched01/tmph7d3_0rd/117btfl79hs.sdf

>  <i_m_source_file_index>  (341) 
33

>  <i_lp_mmshare_version>  (341) 
48012

>  <i_f3d_flags>  (341) 
0

>  <s_epik_input>  (341) 
W0NIM11PYzFuc25jMUMoW0NIMl0yKT1OT1tDQF0yM1tDQEBIXTRbQ0BIXShPQzM9TylbQ0BIXTVbQ0BdNihbQ0gzXSlbQ0BAXTcoW0NIMl1bQ0gyXVtDQEhdNltPSF0pW0NAQF04KFtDQEhdKFtDSDJdNClPQzcoW0NIM10pW0NIM10pW0NASF0oW0NIMl01KVtDQEhdOVtDQEBdKFtPSF0pKFtDSDJdOClbQ0BIXShbT0hdKUMoPVtDSF05KVtDSDNd

>  <s_epik_cmdline>  (341) 
J2VwaWtfcHl0aG9uJywgJy1waHQnLCAnMi4wJywgJy1waCcsICc3LjAnLCAnLXRuJywgJzgnLCAnLW1hJywgJzIwMCcsICctaW1hZScsICc8aW5maWxlLm1hZT4nLCAnLW9tYWUnLCAnPG91dGZpbGUubWFlPic=

>  <r_lp_tautomer_probability>  (341) 
1

>  <r_epik_Ionization_Penalty>  (341) 
7.66386e-07

>  <r_epik_Ionization_Penalty_Charging>  (341) 
0

>  <r_epik_Ionization_Penalty_Neutral>  (341) 
7.66386e-07

>  <r_epik_State_Penalty>  (341) 
-0

>  <r_epik_Charging_Adjusted_Penalty>  (341) 
0

>  <i_epik_Tot_Q>  (341) 
0

>  <i_epik_Tot_abs_Q>  (341) 
0

>  <s_epik_Chemistry_Notes>  (341) 
This compound has an ester and may undergo hydrolysis at high or low pH. This compound has an imine and may undergo hydrolysis.

>  <s_lp_Force_Field>  (341) 
OPLS3e

>  <r_lp_Energy>  (341) 
190.018

>  <b_lp_Chiralities_Consistent>  (341) 
1

>  <s_lp_Variant>  (341) 
110:0-1

>  <s_i_glide_gridfile>  (341) 
pfpi4k_grid

>  <i_i_glide_lignum>  (341) 
33

>  <i_i_glide_rotatable_bonds>  (341) 
5

>  <r_i_docking_score>  (341) 
-2.67271

>  <r_i_glide_ligand_efficiency>  (341) 
-0.062156

>  <r_i_glide_ligand_efficiency_sa>  (341) 
-0.217757

>  <r_i_glide_ligand_efficiency_ln>  (341) 
-0.561351

>  <r_i_glide_gscore>  (341) 
-2.67271

>  <r_i_glide_lipo>  (341) 
-0.00432751

>  <r_i_glide_hbond>  (341) 
-0.169366

>  <r_i_glide_metal>  (341) 
-0

>  <r_i_glide_rewards>  (341) 
0

>  <r_i_glide_evdw>  (341) 
-25.4968

>  <r_i_glide_ecoul>  (341) 
-8.23118

>  <r_i_glide_erotb>  (341) 
0.0559325

>  <r_i_glide_esite>  (341) 
-0.0454292

>  <r_i_glide_emodel>  (341) 
-39.4584

>  <r_i_glide_energy>  (341) 
-33.728

>  <r_i_glide_einternal>  (341) 
1.46528

>  <r_i_glide_intrahb_reward>  (341) 
-0

>  <i_i_glide_confnum>  (341) 
1

>  <i_i_glide_posenum>  (341) 
26

>  <r_i_glide_eff_state_penalty>  (341) 
0

>  <ligand_id>  (341) 
110

>  <original_smiles>  (341) 
COc1nsnc1C1=NOC2(C1)C(=O)OC1C2CC2OC(C)(C)C34CCC(O)C3(C)C1CC1C3C=C(C)C(O)C3(O)CC214

>  <smiles>  (341) 
[H]OC1([H])C(C([H])([H])[H])=C([H])C2([H])C3([H])C([H])([H])C4([H])C5([H])OC(=O)C6(ON=C(c7nsnc7OC([H])([H])[H])C6([H])[H])C5([H])C([H])([H])C5([H])OC(C([H])([H])[H])(C([H])([H])[H])C6(C([H])([H])C([H])([H])C([H])(O[H])C46C([H])([H])[H])C53C([H])([H])C12O[H]

$$$$
111:0:0
     RDKit          3D

 18 19  0  0  1  0  0  0  0  0999 V2000
   -5.4212   -4.2600   -5.2383 C   0  0  0  0  0  0  0  0  0  0  0  0
   -6.7775   -4.9560   -5.3263 C   0  0  0  0  0  0  0  0  0  0  0  0
   -7.3552   -4.9148   -3.9317 C   0  0  0  0  0  0  0  0  0  0  0  0
   -7.7870   -4.3515   -6.3283 C   0  0  0  0  0  0  0  0  0  0  0  0
   -8.1713   -5.2053   -7.3033 C   0  0  0  0  0  0  0  0  0  0  0  0
   -7.4976   -6.4557   -7.0193 C   0  0  0  0  0  0  0  0  0  0  0  0
   -7.4600   -7.7046   -7.6416 N   0  0  0  0  0  0  0  0  0  0  0  0
   -6.6686   -8.5197   -6.9908 N   0  0  0  0  0  0  0  0  0  0  0  0
   -5.9329   -7.8075   -5.6274 S   0  0  0  0  0  0  0  0  0  0  0  0
   -6.7373   -6.3175   -5.9203 C   0  0  0  0  0  0  0  0  0  0  0  0
   -4.9960   -4.0181   -6.2160 H   0  0  0  0  0  0  0  0  0  0  0  0
   -4.6965   -4.8282   -4.6583 H   0  0  0  0  0  0  0  0  0  0  0  0
   -5.5543   -3.2964   -4.6934 H   0  0  0  0  0  0  0  0  0  0  0  0
   -8.3485   -5.3376   -4.0295 H   0  0  0  0  0  0  0  0  0  0  0  0
   -7.4260   -3.8937   -3.5470 H   0  0  0  0  0  0  0  0  0  0  0  0
   -6.7411   -5.4834   -3.2271 H   0  0  0  0  0  0  0  0  0  0  0  0
   -8.1696   -3.3456   -6.2294 H   0  0  0  0  0  0  0  0  0  0  0  0
   -8.8311   -5.0137   -8.1394 H   0  0  0  0  0  0  0  0  0  0  0  0
  1  2  1  0
  1 11  1  0
  1 12  1  0
  1 13  1  0
  2 10  1  0
  2  3  1  0
  2  4  1  0
  3 14  1  0
  3 15  1  0
  3 16  1  0
  4  5  2  0
  4 17  1  0
  5  6  1  0
  5 18  1  0
  6 10  2  0
  6  7  1  0
  7  8  2  0
  8  9  1  0
  9 10  1  0
M  END
>  <i_m_ct_stereo_status>  (342) 
1

>  <s_m_source_file>  (342) 
/var/tmp/pbs.5076255.sched01/tmph7d3_0rd/117btfl79hs.sdf

>  <i_m_source_file_index>  (342) 
34

>  <i_lp_mmshare_version>  (342) 
48012

>  <i_f3d_flags>  (342) 
0

>  <s_epik_input>  (342) 
W0NIXTE9W0NIXUMoW0NIM10pKFtDSDNdKWMoYzEyKXNubjI=

>  <s_epik_cmdline>  (342) 
J2VwaWtfcHl0aG9uJywgJy1waHQnLCAnMi4wJywgJy1waCcsICc3LjAnLCAnLXRuJywgJzgnLCAnLW1hJywgJzIwMCcsICctaW1hZScsICc8aW5maWxlLm1hZT4nLCAnLW9tYWUnLCAnPG91dGZpbGUubWFlPic=

>  <r_lp_tautomer_probability>  (342) 
1

>  <r_epik_Ionization_Penalty>  (342) 
2.75996e-08

>  <r_epik_Ionization_Penalty_Charging>  (342) 
0

>  <r_epik_Ionization_Penalty_Neutral>  (342) 
2.75996e-08

>  <r_epik_State_Penalty>  (342) 
-0

>  <r_epik_Charging_Adjusted_Penalty>  (342) 
0

>  <i_epik_Tot_Q>  (342) 
0

>  <i_epik_Tot_abs_Q>  (342) 
0

>  <s_lp_Force_Field>  (342) 
OPLS3e

>  <r_lp_Energy>  (342) 
4.35441

>  <b_lp_Chiralities_Consistent>  (342) 
1

>  <s_lp_Variant>  (342) 
111:0-1

>  <s_i_glide_gridfile>  (342) 
pfpi4k_grid

>  <i_i_glide_lignum>  (342) 
34

>  <i_i_glide_rotatable_bonds>  (342) 
0

>  <r_i_docking_score>  (342) 
-5.33744

>  <r_i_glide_ligand_efficiency>  (342) 
-0.533744

>  <r_i_glide_ligand_efficiency_sa>  (342) 
-1.14992

>  <r_i_glide_ligand_efficiency_ln>  (342) 
-1.61614

>  <r_i_glide_gscore>  (342) 
-5.33744

>  <r_i_glide_lipo>  (342) 
-1.92499

>  <r_i_glide_hbond>  (342) 
0

>  <r_i_glide_metal>  (342) 
-0

>  <r_i_glide_rewards>  (342) 
-2.80916

>  <r_i_glide_evdw>  (342) 
-13.0943

>  <r_i_glide_ecoul>  (342) 
0.342743

>  <r_i_glide_erotb>  (342) 
0

>  <r_i_glide_esite>  (342) 
0

>  <r_i_glide_emodel>  (342) 
-13.5406

>  <r_i_glide_energy>  (342) 
-12.7515

>  <r_i_glide_einternal>  (342) 
0

>  <r_i_glide_intrahb_reward>  (342) 
-0

>  <i_i_glide_confnum>  (342) 
2

>  <i_i_glide_posenum>  (342) 
28

>  <r_i_glide_eff_state_penalty>  (342) 
0

>  <ligand_id>  (342) 
111

>  <original_smiles>  (342) 
CC1(C)C=Cc2nnsc21

>  <smiles>  (342) 
[H]C1=C([H])C(C([H])([H])[H])(C([H])([H])[H])c2snnc21

$$$$
111:0:1
     RDKit          3D

 18 19  0  0  1  0  0  0  0  0999 V2000
   -5.4427   -4.5002   -5.3142 C   0  0  0  0  0  0  0  0  0  0  0  0
   -6.4627   -5.6148   -5.0868 C   0  0  0  0  0  0  0  0  0  0  0  0
   -6.1940   -6.2534   -3.7532 C   0  0  0  0  0  0  0  0  0  0  0  0
   -7.8696   -5.0590   -5.2450 C   0  0  0  0  0  0  0  0  0  0  0  0
   -8.5433   -5.6281   -6.2650 C   0  0  0  0  0  0  0  0  0  0  0  0
   -7.6896   -6.6450   -6.8272 C   0  0  0  0  0  0  0  0  0  0  0  0
   -7.7962   -7.5691   -7.8766 N   0  0  0  0  0  0  0  0  0  0  0  0
   -6.7109   -8.2942   -7.9583 N   0  0  0  0  0  0  0  0  0  0  0  0
   -5.5590   -7.9211   -6.7617 S   0  0  0  0  0  0  0  0  0  0  0  0
   -6.5405   -6.6447   -6.1579 C   0  0  0  0  0  0  0  0  0  0  0  0
   -5.5863   -4.0157   -6.2788 H   0  0  0  0  0  0  0  0  0  0  0  0
   -4.4608   -4.9617   -5.2751 H   0  0  0  0  0  0  0  0  0  0  0  0
   -5.4681   -3.7279   -4.5412 H   0  0  0  0  0  0  0  0  0  0  0  0
   -6.8776   -7.0800   -3.6308 H   0  0  0  0  0  0  0  0  0  0  0  0
   -6.3012   -5.5650   -2.9237 H   0  0  0  0  0  0  0  0  0  0  0  0
   -5.1973   -6.6995   -3.7446 H   0  0  0  0  0  0  0  0  0  0  0  0
   -8.2441   -4.3050   -4.5743 H   0  0  0  0  0  0  0  0  0  0  0  0
   -9.5610   -5.4451   -6.5459 H   0  0  0  0  0  0  0  0  0  0  0  0
  1  2  1  0
  1 11  1  0
  1 12  1  0
  1 13  1  0
  2 10  1  0
  2  3  1  0
  2  4  1  0
  3 14  1  0
  3 15  1  0
  3 16  1  0
  4  5  2  0
  4 17  1  0
  5  6  1  0
  5 18  1  0
  6 10  2  0
  6  7  1  0
  7  8  2  0
  8  9  1  0
  9 10  1  0
M  END
>  <i_m_ct_stereo_status>  (343) 
1

>  <s_m_source_file>  (343) 
/var/tmp/pbs.5076255.sched01/tmph7d3_0rd/117btfl79hs.sdf

>  <i_m_source_file_index>  (343) 
34

>  <i_lp_mmshare_version>  (343) 
48012

>  <i_f3d_flags>  (343) 
0

>  <s_epik_input>  (343) 
W0NIXTE9W0NIXUMoW0NIM10pKFtDSDNdKWMoYzEyKXNubjI=

>  <s_epik_cmdline>  (343) 
J2VwaWtfcHl0aG9uJywgJy1waHQnLCAnMi4wJywgJy1waCcsICc3LjAnLCAnLXRuJywgJzgnLCAnLW1hJywgJzIwMCcsICctaW1hZScsICc8aW5maWxlLm1hZT4nLCAnLW9tYWUnLCAnPG91dGZpbGUubWFlPic=

>  <r_lp_tautomer_probability>  (343) 
1

>  <r_epik_Ionization_Penalty>  (343) 
2.75996e-08

>  <r_epik_Ionization_Penalty_Charging>  (343) 
0

>  <r_epik_Ionization_Penalty_Neutral>  (343) 
2.75996e-08

>  <r_epik_State_Penalty>  (343) 
-0

>  <r_epik_Charging_Adjusted_Penalty>  (343) 
0

>  <i_epik_Tot_Q>  (343) 
0

>  <i_epik_Tot_abs_Q>  (343) 
0

>  <s_lp_Force_Field>  (343) 
OPLS3e

>  <r_lp_Energy>  (343) 
4.35441

>  <b_lp_Chiralities_Consistent>  (343) 
1

>  <s_lp_Variant>  (343) 
111:0-1

>  <s_i_glide_gridfile>  (343) 
pfpi4k_grid

>  <i_i_glide_lignum>  (343) 
34

>  <i_i_glide_rotatable_bonds>  (343) 
0

>  <r_i_docking_score>  (343) 
-4.53857

>  <r_i_glide_ligand_efficiency>  (343) 
-0.453857

>  <r_i_glide_ligand_efficiency_sa>  (343) 
-0.977806

>  <r_i_glide_ligand_efficiency_ln>  (343) 
-1.37425

>  <r_i_glide_gscore>  (343) 
-4.53857

>  <r_i_glide_lipo>  (343) 
-1.86114

>  <r_i_glide_hbond>  (343) 
0

>  <r_i_glide_metal>  (343) 
-0

>  <r_i_glide_rewards>  (343) 
-2.25

>  <r_i_glide_evdw>  (343) 
-9.48197

>  <r_i_glide_ecoul>  (343) 
0.311097

>  <r_i_glide_erotb>  (343) 
0

>  <r_i_glide_esite>  (343) 
0

>  <r_i_glide_emodel>  (343) 
-10.0059

>  <r_i_glide_energy>  (343) 
-9.17087

>  <r_i_glide_einternal>  (343) 
0

>  <r_i_glide_intrahb_reward>  (343) 
-0

>  <i_i_glide_confnum>  (343) 
2

>  <i_i_glide_posenum>  (343) 
34

>  <r_i_glide_eff_state_penalty>  (343) 
0

>  <ligand_id>  (343) 
111

>  <original_smiles>  (343) 
CC1(C)C=Cc2nnsc21

>  <smiles>  (343) 
[H]C1=C([H])C(C([H])([H])[H])(C([H])([H])[H])c2snnc21

$$$$
111:0:2
     RDKit          3D

 18 19  0  0  1  0  0  0  0  0999 V2000
   -8.9860   -4.6108   -5.1201 C   0  0  0  0  0  0  0  0  0  0  0  0
   -7.7331   -4.5241   -5.8832 C   0  0  0  0  0  0  0  0  0  0  0  0
   -8.0207   -3.7154   -7.1258 C   0  0  0  0  0  0  0  0  0  0  0  0
   -6.6316   -3.9186   -4.9883 C   0  0  0  0  0  0  0  0  0  0  0  0
   -5.5648   -4.7151   -4.8206 C   0  0  0  0  0  0  0  0  0  0  0  0
   -5.8608   -5.9290   -5.5158 C   0  0  0  0  0  0  0  0  0  0  0  0
   -5.1898   -7.1289   -5.6944 N   0  0  0  0  0  0  0  0  0  0  0  0
   -5.8438   -7.9155   -6.5306 N   0  0  0  0  0  0  0  0  0  0  0  0
   -7.3429   -7.2588   -7.0352 S   0  0  0  0  0  0  0  0  0  0  0  0
   -7.0529   -5.8251   -6.1162 C   0  0  0  0  0  0  0  0  0  0  0  0
   -8.6224   -5.1328   -4.2333 H   0  0  0  0  0  0  0  0  0  0  0  0
   -9.7089   -5.1749   -5.7296 H   0  0  0  0  0  0  0  0  0  0  0  0
   -9.3992   -3.6175   -4.8841 H   0  0  0  0  0  0  0  0  0  0  0  0
   -7.0631   -3.3855   -7.5277 H   0  0  0  0  0  0  0  0  0  0  0  0
   -8.5731   -2.8316   -6.7924 H   0  0  0  0  0  0  0  0  0  0  0  0
   -8.6311   -4.2231   -7.8898 H   0  0  0  0  0  0  0  0  0  0  0  0
   -6.6985   -2.9137   -4.6121 H   0  0  0  0  0  0  0  0  0  0  0  0
   -4.6261   -4.4661   -4.3526 H   0  0  0  0  0  0  0  0  0  0  0  0
  1  2  1  0
  1 11  1  0
  1 12  1  0
  1 13  1  0
  2 10  1  0
  2  3  1  0
  2  4  1  0
  3 14  1  0
  3 15  1  0
  3 16  1  0
  4  5  2  0
  4 17  1  0
  5  6  1  0
  5 18  1  0
  6 10  2  0
  6  7  1  0
  7  8  2  0
  8  9  1  0
  9 10  1  0
M  END
>  <i_m_ct_stereo_status>  (344) 
1

>  <s_m_source_file>  (344) 
/var/tmp/pbs.5076255.sched01/tmph7d3_0rd/117btfl79hs.sdf

>  <i_m_source_file_index>  (344) 
34

>  <i_lp_mmshare_version>  (344) 
48012

>  <i_f3d_flags>  (344) 
0

>  <s_epik_input>  (344) 
W0NIXTE9W0NIXUMoW0NIM10pKFtDSDNdKWMoYzEyKXNubjI=

>  <s_epik_cmdline>  (344) 
J2VwaWtfcHl0aG9uJywgJy1waHQnLCAnMi4wJywgJy1waCcsICc3LjAnLCAnLXRuJywgJzgnLCAnLW1hJywgJzIwMCcsICctaW1hZScsICc8aW5maWxlLm1hZT4nLCAnLW9tYWUnLCAnPG91dGZpbGUubWFlPic=

>  <r_lp_tautomer_probability>  (344) 
1

>  <r_epik_Ionization_Penalty>  (344) 
2.75996e-08

>  <r_epik_Ionization_Penalty_Charging>  (344) 
0

>  <r_epik_Ionization_Penalty_Neutral>  (344) 
2.75996e-08

>  <r_epik_State_Penalty>  (344) 
-0

>  <r_epik_Charging_Adjusted_Penalty>  (344) 
0

>  <i_epik_Tot_Q>  (344) 
0

>  <i_epik_Tot_abs_Q>  (344) 
0

>  <s_lp_Force_Field>  (344) 
OPLS3e

>  <r_lp_Energy>  (344) 
4.35441

>  <b_lp_Chiralities_Consistent>  (344) 
1

>  <s_lp_Variant>  (344) 
111:0-1

>  <s_i_glide_gridfile>  (344) 
pfpi4k_grid

>  <i_i_glide_lignum>  (344) 
34

>  <i_i_glide_rotatable_bonds>  (344) 
0

>  <r_i_docking_score>  (344) 
-4.27372

>  <r_i_glide_ligand_efficiency>  (344) 
-0.427372

>  <r_i_glide_ligand_efficiency_sa>  (344) 
-0.920745

>  <r_i_glide_ligand_efficiency_ln>  (344) 
-1.29405

>  <r_i_glide_gscore>  (344) 
-4.27372

>  <r_i_glide_lipo>  (344) 
-1.75178

>  <r_i_glide_hbond>  (344) 
0

>  <r_i_glide_metal>  (344) 
-0

>  <r_i_glide_rewards>  (344) 
-2.25

>  <r_i_glide_evdw>  (344) 
-5.53937

>  <r_i_glide_ecoul>  (344) 
0.0334811

>  <r_i_glide_erotb>  (344) 
0

>  <r_i_glide_esite>  (344) 
0

>  <r_i_glide_emodel>  (344) 
-5.47192

>  <r_i_glide_energy>  (344) 
-5.50589

>  <r_i_glide_einternal>  (344) 
0

>  <r_i_glide_intrahb_reward>  (344) 
-0

>  <i_i_glide_confnum>  (344) 
2

>  <i_i_glide_posenum>  (344) 
30

>  <r_i_glide_eff_state_penalty>  (344) 
0

>  <ligand_id>  (344) 
111

>  <original_smiles>  (344) 
CC1(C)C=Cc2nnsc21

>  <smiles>  (344) 
[H]C1=C([H])C(C([H])([H])[H])(C([H])([H])[H])c2snnc21

$$$$
113:0:0
     RDKit          3D

 86 90  0  0  1  0  0  0  0  0999 V2000
    7.0297  -11.0090    2.9909 C   0  0  0  0  0  0  0  0  0  0  0  0
    6.1980  -10.0270    2.1722 C   0  0  0  0  0  0  0  0  0  0  0  0
    6.4273   -9.8409    0.9790 O   0  0  0  0  0  0  0  0  0  0  0  0
    5.2365   -9.4357    2.9021 O   0  0  0  0  0  0  0  0  0  0  0  0
    4.2428   -8.6363    2.2720 C   0  0  0  0  0  0  0  0  0  0  0  0
    2.8510   -8.8336    2.9394 C   0  0  1  0  0  0  0  0  0  0  0  0
    1.8524   -8.0647    2.0310 C   0  0  0  0  0  0  0  0  0  0  0  0
    2.5147  -10.3316    2.7873 C   0  0  0  0  0  0  0  0  0  0  0  0
    1.1312  -10.6539    3.3309 C   0  0  0  0  0  0  0  0  0  0  0  0
    1.0698  -10.3155    4.8185 C   0  0  0  0  0  0  0  0  0  0  0  0
    1.5248   -8.8796    5.3158 C   0  0  1  0  0  0  0  0  0  0  0  0
    0.4014   -7.7939    5.1351 C   0  0  1  0  0  0  0  0  0  0  0  0
   -0.8871   -8.3087    4.8394 O   0  0  0  0  0  0  0  0  0  0  0  0
    0.2403   -6.7995    6.2910 C   0  0  0  0  0  0  0  0  0  0  0  0
    1.4719   -5.9085    6.6573 C   0  0  1  0  0  0  0  0  0  0  0  0
    2.7981   -6.6882    7.1839 C   0  0  1  0  0  0  0  0  0  0  0  0
    2.3505   -8.0314    7.8347 C   0  0  1  0  0  0  0  0  0  0  0  0
    1.5160   -7.7572    8.9579 O   0  0  0  0  0  0  0  0  0  0  0  0
    1.8029   -9.1500    6.8695 C   0  0  1  0  0  0  0  0  0  0  0  0
    0.7264   -9.8321    7.4995 O   0  0  0  0  0  0  0  0  0  0  0  0
    4.1224   -6.8878    6.2958 C   0  0  2  0  0  0  0  0  0  0  0  0
    4.9683   -8.1579    6.6854 C   0  0  0  0  0  0  0  0  0  0  0  0
    5.2283   -5.6932    6.4562 C   0  0  1  0  0  0  0  0  0  0  0  0
    6.3922   -6.0199    7.2027 O   0  0  0  0  0  0  0  0  0  0  0  0
    5.7457   -4.9193    5.1741 C   0  0  0  0  0  0  0  0  0  0  0  0
    5.1715   -3.4848    4.8941 C   0  0  0  0  0  0  0  0  0  0  0  0
    3.6683   -3.2911    4.4632 C   0  0  0  0  0  0  0  0  0  0  0  0
    3.2510   -1.8976    4.9883 C   0  0  0  0  0  0  0  0  0  0  0  0
    3.5589   -3.1673    2.9202 C   0  0  0  0  0  0  0  0  0  0  0  0
    2.8487   -4.5098    5.0396 C   0  0  2  0  0  0  0  0  0  0  0  0
    3.0210   -5.8111    4.1856 C   0  0  0  0  0  0  0  0  0  0  0  0
    3.5971   -7.0996    4.8448 C   0  0  2  0  0  0  0  0  0  0  0  0
    2.8439   -8.4636    4.4969 C   0  0  2  0  0  0  0  0  0  0  0  0
    1.5427   -4.5057    5.8739 C   0  0  0  0  0  0  0  0  0  0  0  0
    0.3634   -4.1979    4.9241 C   0  0  0  0  0  0  0  0  0  0  0  0
    1.4762   -3.3905    6.9642 C   0  0  0  0  0  0  0  0  0  0  0  0
    6.7630  -10.9647    4.0486 H   0  0  0  0  0  0  0  0  0  0  0  0
    8.0912  -10.7830    2.8950 H   0  0  0  0  0  0  0  0  0  0  0  0
    6.8604  -12.0227    2.6344 H   0  0  0  0  0  0  0  0  0  0  0  0
    4.5541   -7.5897    2.2821 H   0  0  0  0  0  0  0  0  0  0  0  0
    4.1545   -8.9026    1.2146 H   0  0  0  0  0  0  0  0  0  0  0  0
    0.8274   -8.0750    2.4015 H   0  0  0  0  0  0  0  0  0  0  0  0
    1.8049   -8.5437    1.0492 H   0  0  0  0  0  0  0  0  0  0  0  0
    2.1477   -7.0326    1.8408 H   0  0  0  0  0  0  0  0  0  0  0  0
    2.6069  -10.6447    1.7479 H   0  0  0  0  0  0  0  0  0  0  0  0
    3.2369  -10.9437    3.3319 H   0  0  0  0  0  0  0  0  0  0  0  0
    0.3394  -10.1673    2.7694 H   0  0  0  0  0  0  0  0  0  0  0  0
    0.9545  -11.7229    3.2075 H   0  0  0  0  0  0  0  0  0  0  0  0
    0.0665  -10.5555    5.1639 H   0  0  0  0  0  0  0  0  0  0  0  0
    1.6825  -11.0757    5.3026 H   0  0  0  0  0  0  0  0  0  0  0  0
    0.5996   -7.1978    4.2674 H   0  0  0  0  0  0  0  0  0  0  0  0
   -0.9855   -9.1674    5.2306 H   0  0  0  0  0  0  0  0  0  0  0  0
   -0.6228   -6.1711    6.0955 H   0  0  0  0  0  0  0  0  0  0  0  0
   -0.1119   -7.3401    7.1660 H   0  0  0  0  0  0  0  0  0  0  0  0
    1.0914   -5.5979    7.6301 H   0  0  0  0  0  0  0  0  0  0  0  0
    3.1547   -6.0885    8.0262 H   0  0  0  0  0  0  0  0  0  0  0  0
    3.1959   -8.4714    8.3627 H   0  0  0  0  0  0  0  0  0  0  0  0
    2.0352   -7.3055    9.6001 H   0  0  0  0  0  0  0  0  0  0  0  0
    2.5722   -9.9201    6.8978 H   0  0  0  0  0  0  0  0  0  0  0  0
    0.9679  -10.7737    7.5779 H   0  0  0  0  0  0  0  0  0  0  0  0
    5.8489   -8.2498    6.0463 H   0  0  0  0  0  0  0  0  0  0  0  0
    4.4756   -9.1188    6.6164 H   0  0  0  0  0  0  0  0  0  0  0  0
    5.3130   -8.1164    7.7196 H   0  0  0  0  0  0  0  0  0  0  0  0
    4.8541   -4.9552    7.1645 H   0  0  0  0  0  0  0  0  0  0  0  0
    6.8845   -6.6656    6.7244 H   0  0  0  0  0  0  0  0  0  0  0  0
    6.8152   -4.7427    5.3129 H   0  0  0  0  0  0  0  0  0  0  0  0
    5.7347   -5.5222    4.2691 H   0  0  0  0  0  0  0  0  0  0  0  0
    5.3606   -2.9105    5.8026 H   0  0  0  0  0  0  0  0  0  0  0  0
    5.8033   -3.0098    4.1420 H   0  0  0  0  0  0  0  0  0  0  0  0
    2.2248   -1.6529    4.7164 H   0  0  0  0  0  0  0  0  0  0  0  0
    3.8783   -1.1143    4.5605 H   0  0  0  0  0  0  0  0  0  0  0  0
    3.3721   -1.8063    6.0682 H   0  0  0  0  0  0  0  0  0  0  0  0
    2.5305   -3.2993    2.5829 H   0  0  0  0  0  0  0  0  0  0  0  0
    4.1897   -3.8724    2.3840 H   0  0  0  0  0  0  0  0  0  0  0  0
    3.8835   -2.1870    2.5728 H   0  0  0  0  0  0  0  0  0  0  0  0
    3.3590   -4.5283    5.9559 H   0  0  0  0  0  0  0  0  0  0  0  0
    2.0884   -5.9792    3.6731 H   0  0  0  0  0  0  0  0  0  0  0  0
    3.6862   -5.6408    3.3485 H   0  0  0  0  0  0  0  0  0  0  0  0
    4.5418   -7.2512    4.3385 H   0  0  0  0  0  0  0  0  0  0  0  0
    3.5367   -9.2278    4.8313 H   0  0  0  0  0  0  0  0  0  0  0  0
    0.5379   -3.2740    4.3717 H   0  0  0  0  0  0  0  0  0  0  0  0
   -0.5647   -4.0568    5.4756 H   0  0  0  0  0  0  0  0  0  0  0  0
    0.1961   -4.9739    4.1812 H   0  0  0  0  0  0  0  0  0  0  0  0
    1.2868   -2.4035    6.5504 H   0  0  0  0  0  0  0  0  0  0  0  0
    2.3813   -3.3446    7.5751 H   0  0  0  0  0  0  0  0  0  0  0  0
    0.6389   -3.5409    7.6491 H   0  0  0  0  0  0  0  0  0  0  0  0
  1  2  1  0
  1 37  1  0
  1 38  1  0
  1 39  1  0
  2  3  2  0
  2  4  1  0
  4  5  1  0
  6  5  1  6
  5 40  1  0
  5 41  1  0
  6 33  1  0
  6  7  1  0
  6  8  1  0
  7 42  1  0
  7 43  1  0
  7 44  1  0
  8  9  1  0
  8 45  1  0
  8 46  1  0
  9 10  1  0
  9 47  1  0
  9 48  1  0
 11 10  1  6
 10 49  1  0
 10 50  1  0
 11 19  1  0
 11 33  1  0
 11 12  1  0
 12 13  1  0
 12 14  1  0
 12 51  1  6
 13 52  1  0
 14 15  1  0
 14 53  1  0
 14 54  1  0
 15 34  1  0
 15 16  1  0
 15 55  1  1
 16 17  1  0
 16 21  1  0
 16 56  1  1
 17 18  1  0
 17 19  1  0
 17 57  1  1
 18 58  1  0
 19 20  1  0
 19 59  1  6
 20 60  1  0
 21 32  1  0
 21 22  1  1
 21 23  1  0
 22 61  1  0
 22 62  1  0
 22 63  1  0
 23 24  1  0
 23 25  1  0
 23 64  1  1
 24 65  1  0
 25 26  1  0
 25 66  1  0
 25 67  1  0
 26 27  1  0
 26 68  1  0
 26 69  1  0
 27 28  1  0
 27 29  1  0
 27 30  1  0
 28 70  1  0
 28 71  1  0
 28 72  1  0
 29 73  1  0
 29 74  1  0
 29 75  1  0
 30 31  1  0
 30 34  1  0
 30 76  1  1
 31 32  1  0
 31 77  1  0
 31 78  1  0
 32 33  1  0
 32 79  1  6
 33 80  1  1
 34 35  1  0
 34 36  1  0
 35 81  1  0
 35 82  1  0
 35 83  1  0
 36 84  1  0
 36 85  1  0
 36 86  1  0
M  END
>  <i_m_ct_stereo_status>  (345) 
1

>  <s_m_source_file>  (345) 
/var/tmp/pbs.5076255.sched01/tmph7d3_0rd/117btfl79hs.sdf

>  <i_m_source_file_index>  (345) 
36

>  <i_lp_mmshare_version>  (345) 
48012

>  <i_f3d_flags>  (345) 
0

>  <s_epik_input>  (345) 
W0NIM11DKD1PKU9bQ0gyXVtDQEBdKFtDSDNdKShbQ0gyXVtDSDJdW0NIMl0xKVtDQEhdKFtDQF0xMjMpW0NAQEhdNFtDQF01KFtDSDNdKVtDQEhdKFtDQEBIXShbT0hdKVtDQEhdM1tPSF0pW0NASF0oW0NIMl1bQ0BASF0yW09IXSlDKFtDSDNdKShbQ0gzXSlbQ0hdKFtDSDJdNClDKFtDSDNdKShbQ0gzXSlbQ0gyXVtDSDJdW0NAQEhdNVtPSF0=

>  <s_epik_cmdline>  (345) 
J2VwaWtfcHl0aG9uJywgJy1waHQnLCAnMi4wJywgJy1waCcsICc3LjAnLCAnLXRuJywgJzgnLCAnLW1hJywgJzIwMCcsICctaW1hZScsICc8aW5maWxlLm1hZT4nLCAnLW9tYWUnLCAnPG91dGZpbGUubWFlPic=

>  <r_lp_tautomer_probability>  (345) 
1

>  <r_epik_Ionization_Penalty>  (345) 
3.97482e-06

>  <r_epik_Ionization_Penalty_Charging>  (345) 
0

>  <r_epik_Ionization_Penalty_Neutral>  (345) 
3.97482e-06

>  <r_epik_State_Penalty>  (345) 
-0

>  <r_epik_Charging_Adjusted_Penalty>  (345) 
0

>  <i_epik_Tot_Q>  (345) 
0

>  <i_epik_Tot_abs_Q>  (345) 
0

>  <s_epik_Chemistry_Notes>  (345) 
This compound has an ester and may undergo hydrolysis at high or low pH.

>  <s_lp_Force_Field>  (345) 
OPLS3e

>  <r_lp_Energy>  (345) 
184.83

>  <b_lp_Chiralities_Consistent>  (345) 
1

>  <s_lp_Variant>  (345) 
113:0-1

>  <s_i_glide_gridfile>  (345) 
pfpi4k_grid

>  <i_i_glide_lignum>  (345) 
36

>  <i_i_glide_rotatable_bonds>  (345) 
7

>  <r_i_docking_score>  (345) 
-2.79368

>  <r_i_glide_ligand_efficiency>  (345) 
-0.0776021

>  <r_i_glide_ligand_efficiency_sa>  (345) 
-0.256237

>  <r_i_glide_ligand_efficiency_ln>  (345) 
-0.609505

>  <r_i_glide_gscore>  (345) 
-2.79368

>  <r_i_glide_lipo>  (345) 
-0.203078

>  <r_i_glide_hbond>  (345) 
0

>  <r_i_glide_metal>  (345) 
-0

>  <r_i_glide_rewards>  (345) 
0

>  <r_i_glide_evdw>  (345) 
-25.7003

>  <r_i_glide_ecoul>  (345) 
-9.5861

>  <r_i_glide_erotb>  (345) 
0.159385

>  <r_i_glide_esite>  (345) 
-0.027053

>  <r_i_glide_emodel>  (345) 
-38.8206

>  <r_i_glide_energy>  (345) 
-35.2864

>  <r_i_glide_einternal>  (345) 
4.05886

>  <r_i_glide_intrahb_reward>  (345) 
-0

>  <i_i_glide_confnum>  (345) 
6

>  <i_i_glide_posenum>  (345) 
34

>  <r_i_glide_eff_state_penalty>  (345) 
0

>  <ligand_id>  (345) 
113

>  <original_smiles>  (345) 
CC(=O)OCC1(C)CCCC23C(O)CC4C(C(O)C2O)C2(C)C(O)CCC(C)(C)C(CC2C13)C4(C)C

>  <smiles>  (345) 
[H]OC1([H])C([H])(O[H])C23C([H])([H])C([H])([H])C([H])([H])C(C([H])([H])[H])(C([H])([H])OC(=O)C([H])([H])[H])C2([H])C2([H])C([H])([H])C4([H])C(C([H])([H])[H])(C([H])([H])[H])C([H])([H])C([H])([H])C([H])(O[H])C2(C([H])([H])[H])C1([H])C([H])(C([H])([H])C3([H])O[H])C4(C([H])([H])[H])C([H])([H])[H]

$$$$
113:0:1
     RDKit          3D

 86 90  0  0  1  0  0  0  0  0999 V2000
    4.6783   -0.1376    3.9763 C   0  0  0  0  0  0  0  0  0  0  0  0
    4.2858   -1.5863    4.3454 C   0  0  0  0  0  0  0  0  0  0  0  0
    3.2493   -1.8881    4.9367 O   0  0  0  0  0  0  0  0  0  0  0  0
    5.1940   -2.4680    3.9354 O   0  0  0  0  0  0  0  0  0  0  0  0
    4.9855   -3.8616    4.1416 C   0  0  0  0  0  0  0  0  0  0  0  0
    4.1530   -4.5593    3.0189 C   0  0  1  0  0  0  0  0  0  0  0  0
    2.7479   -3.8943    2.9802 C   0  0  0  0  0  0  0  0  0  0  0  0
    4.8603   -4.2249    1.6779 C   0  0  0  0  0  0  0  0  0  0  0  0
    4.0869   -4.7797    0.4979 C   0  0  0  0  0  0  0  0  0  0  0  0
    4.0218   -6.3048    0.5992 C   0  0  0  0  0  0  0  0  0  0  0  0
    3.5349   -6.9981    1.9513 C   0  0  1  0  0  0  0  0  0  0  0  0
    1.9633   -7.0342    2.0792 C   0  0  1  0  0  0  0  0  0  0  0  0
    1.2423   -6.7351    0.8963 O   0  0  0  0  0  0  0  0  0  0  0  0
    1.3727   -8.3287    2.6304 C   0  0  0  0  0  0  0  0  0  0  0  0
    1.8119   -8.7539    4.0670 C   0  0  1  0  0  0  0  0  0  0  0  0
    3.3891   -9.0911    4.2756 C   0  0  1  0  0  0  0  0  0  0  0  0
    3.9834   -9.5599    2.9253 C   0  0  1  0  0  0  0  0  0  0  0  0
    3.2937  -10.7451    2.5350 O   0  0  0  0  0  0  0  0  0  0  0  0
    4.1389   -8.4712    1.7978 C   0  0  1  0  0  0  0  0  0  0  0  0
    3.8175   -9.0512    0.5356 O   0  0  0  0  0  0  0  0  0  0  0  0
    4.4098   -8.1200    5.0420 C   0  0  2  0  0  0  0  0  0  0  0  0
    5.9085   -8.2750    4.5811 C   0  0  0  0  0  0  0  0  0  0  0  0
    4.5272   -8.4072    6.6508 C   0  0  1  0  0  0  0  0  0  0  0  0
    5.7414   -9.0146    7.0732 O   0  0  0  0  0  0  0  0  0  0  0  0
    4.2750   -7.2366    7.6838 C   0  0  0  0  0  0  0  0  0  0  0  0
    2.9052   -7.2065    8.4401 C   0  0  0  0  0  0  0  0  0  0  0  0
    1.5672   -6.8855    7.6706 C   0  0  0  0  0  0  0  0  0  0  0  0
    0.4530   -7.6393    8.4305 C   0  0  0  0  0  0  0  0  0  0  0  0
    1.1965   -5.3860    7.8260 C   0  0  0  0  0  0  0  0  0  0  0  0
    1.7741   -7.3075    6.1637 C   0  0  2  0  0  0  0  0  0  0  0  0
    2.6108   -6.2604    5.3486 C   0  0  0  0  0  0  0  0  0  0  0  0
    3.9448   -6.6852    4.6640 C   0  0  2  0  0  0  0  0  0  0  0  0
    4.1710   -6.1676    3.1712 C   0  0  2  0  0  0  0  0  0  0  0  0
    0.8834   -8.1920    5.2545 C   0  0  0  0  0  0  0  0  0  0  0  0
   -0.3448   -7.3537    4.8134 C   0  0  0  0  0  0  0  0  0  0  0  0
    0.2797   -9.4403    5.9739 C   0  0  0  0  0  0  0  0  0  0  0  0
    5.7195   -0.0484    3.6372 H   0  0  0  0  0  0  0  0  0  0  0  0
    4.5336    0.5466    4.8159 H   0  0  0  0  0  0  0  0  0  0  0  0
    4.0355    0.2053    3.1637 H   0  0  0  0  0  0  0  0  0  0  0  0
    5.9647   -4.3218    4.1707 H   0  0  0  0  0  0  0  0  0  0  0  0
    4.5473   -4.0302    5.1244 H   0  0  0  0  0  0  0  0  0  0  0  0
    2.0531   -4.3815    2.2885 H   0  0  0  0  0  0  0  0  0  0  0  0
    2.8497   -2.8537    2.6889 H   0  0  0  0  0  0  0  0  0  0  0  0
    2.3112   -3.8190    3.9680 H   0  0  0  0  0  0  0  0  0  0  0  0
    4.9756   -3.1481    1.5416 H   0  0  0  0  0  0  0  0  0  0  0  0
    5.8709   -4.6337    1.6630 H   0  0  0  0  0  0  0  0  0  0  0  0
    3.0963   -4.3459    0.4094 H   0  0  0  0  0  0  0  0  0  0  0  0
    4.5929   -4.5109   -0.4229 H   0  0  0  0  0  0  0  0  0  0  0  0
    3.4192   -6.6380   -0.2425 H   0  0  0  0  0  0  0  0  0  0  0  0
    5.0448   -6.6490    0.3657 H   0  0  0  0  0  0  0  0  0  0  0  0
    1.6117   -6.2774    2.7536 H   0  0  0  0  0  0  0  0  0  0  0  0
    1.2566   -7.5226    0.3610 H   0  0  0  0  0  0  0  0  0  0  0  0
    0.2911   -8.2790    2.5838 H   0  0  0  0  0  0  0  0  0  0  0  0
    1.5525   -9.1302    1.9148 H   0  0  0  0  0  0  0  0  0  0  0  0
    1.4546   -9.7724    3.9919 H   0  0  0  0  0  0  0  0  0  0  0  0
    3.3948   -9.9983    4.8803 H   0  0  0  0  0  0  0  0  0  0  0  0
    4.9769   -9.9770    3.0798 H   0  0  0  0  0  0  0  0  0  0  0  0
    3.7995  -11.2052    1.8614 H   0  0  0  0  0  0  0  0  0  0  0  0
    5.2061   -8.3370    1.6910 H   0  0  0  0  0  0  0  0  0  0  0  0
    4.0692   -9.9798    0.5502 H   0  0  0  0  0  0  0  0  0  0  0  0
    6.5519   -7.5923    5.1367 H   0  0  0  0  0  0  0  0  0  0  0  0
    6.1226   -8.0792    3.5436 H   0  0  0  0  0  0  0  0  0  0  0  0
    6.2864   -9.2858    4.7412 H   0  0  0  0  0  0  0  0  0  0  0  0
    3.8798   -9.2446    6.9206 H   0  0  0  0  0  0  0  0  0  0  0  0
    5.7822   -9.8795    6.6787 H   0  0  0  0  0  0  0  0  0  0  0  0
    5.0085   -7.3555    8.4805 H   0  0  0  0  0  0  0  0  0  0  0  0
    4.5239   -6.2565    7.2899 H   0  0  0  0  0  0  0  0  0  0  0  0
    2.8088   -8.1804    8.9177 H   0  0  0  0  0  0  0  0  0  0  0  0
    2.9886   -6.5071    9.2742 H   0  0  0  0  0  0  0  0  0  0  0  0
   -0.5260   -7.4531    7.9978 H   0  0  0  0  0  0  0  0  0  0  0  0
    0.3945   -7.3069    9.4676 H   0  0  0  0  0  0  0  0  0  0  0  0
    0.6310   -8.7126    8.4751 H   0  0  0  0  0  0  0  0  0  0  0  0
    0.4467   -5.0865    7.0940 H   0  0  0  0  0  0  0  0  0  0  0  0
    2.0537   -4.7204    7.7354 H   0  0  0  0  0  0  0  0  0  0  0  0
    0.7856   -5.1782    8.8132 H   0  0  0  0  0  0  0  0  0  0  0  0
    2.2987   -8.1934    6.3943 H   0  0  0  0  0  0  0  0  0  0  0  0
    1.9187   -5.7950    4.6731 H   0  0  0  0  0  0  0  0  0  0  0  0
    2.8968   -5.4240    5.9745 H   0  0  0  0  0  0  0  0  0  0  0  0
    4.6986   -6.1216    5.1995 H   0  0  0  0  0  0  0  0  0  0  0  0
    5.2360   -6.3341    3.0138 H   0  0  0  0  0  0  0  0  0  0  0  0
   -0.8539   -6.9323    5.6820 H   0  0  0  0  0  0  0  0  0  0  0  0
   -1.0759   -7.9717    4.2833 H   0  0  0  0  0  0  0  0  0  0  0  0
   -0.0893   -6.5165    4.1638 H   0  0  0  0  0  0  0  0  0  0  0  0
   -0.5372   -9.1937    6.6437 H   0  0  0  0  0  0  0  0  0  0  0  0
    1.0280  -10.0099    6.5304 H   0  0  0  0  0  0  0  0  0  0  0  0
   -0.1948  -10.1249    5.2713 H   0  0  0  0  0  0  0  0  0  0  0  0
  1  2  1  0
  1 37  1  0
  1 38  1  0
  1 39  1  0
  2  3  2  0
  2  4  1  0
  4  5  1  0
  6  5  1  1
  5 40  1  0
  5 41  1  0
  6 33  1  0
  6  7  1  0
  6  8  1  0
  7 42  1  0
  7 43  1  0
  7 44  1  0
  8  9  1  0
  8 45  1  0
  8 46  1  0
  9 10  1  0
  9 47  1  0
  9 48  1  0
 11 10  1  6
 10 49  1  0
 10 50  1  0
 11 19  1  0
 11 33  1  0
 11 12  1  0
 12 13  1  0
 12 14  1  0
 12 51  1  1
 13 52  1  0
 14 15  1  0
 14 53  1  0
 14 54  1  0
 15 34  1  0
 15 16  1  0
 15 55  1  6
 16 17  1  0
 16 21  1  0
 16 56  1  1
 17 18  1  0
 17 19  1  0
 17 57  1  1
 18 58  1  0
 19 20  1  0
 19 59  1  6
 20 60  1  0
 21 32  1  0
 21 22  1  6
 21 23  1  0
 22 61  1  0
 22 62  1  0
 22 63  1  0
 23 24  1  0
 23 25  1  0
 23 64  1  1
 24 65  1  0
 25 26  1  0
 25 66  1  0
 25 67  1  0
 26 27  1  0
 26 68  1  0
 26 69  1  0
 27 28  1  0
 27 29  1  0
 27 30  1  0
 28 70  1  0
 28 71  1  0
 28 72  1  0
 29 73  1  0
 29 74  1  0
 29 75  1  0
 30 31  1  0
 30 34  1  0
 30 76  1  1
 31 32  1  0
 31 77  1  0
 31 78  1  0
 32 33  1  0
 32 79  1  1
 33 80  1  6
 34 35  1  0
 34 36  1  0
 35 81  1  0
 35 82  1  0
 35 83  1  0
 36 84  1  0
 36 85  1  0
 36 86  1  0
M  END
>  <i_m_ct_stereo_status>  (346) 
1

>  <s_m_source_file>  (346) 
/var/tmp/pbs.5076255.sched01/tmph7d3_0rd/117btfl79hs.sdf

>  <i_m_source_file_index>  (346) 
36

>  <i_lp_mmshare_version>  (346) 
48012

>  <i_f3d_flags>  (346) 
0

>  <s_epik_input>  (346) 
W0NIM11DKD1PKU9bQ0gyXVtDQEBdKFtDSDNdKShbQ0gyXVtDSDJdW0NIMl0xKVtDQEhdKFtDQF0xMjMpW0NAQEhdNFtDQF01KFtDSDNdKVtDQEhdKFtDQEBIXShbT0hdKVtDQEhdM1tPSF0pW0NASF0oW0NIMl1bQ0BASF0yW09IXSlDKFtDSDNdKShbQ0gzXSlbQ0hdKFtDSDJdNClDKFtDSDNdKShbQ0gzXSlbQ0gyXVtDSDJdW0NAQEhdNVtPSF0=

>  <s_epik_cmdline>  (346) 
J2VwaWtfcHl0aG9uJywgJy1waHQnLCAnMi4wJywgJy1waCcsICc3LjAnLCAnLXRuJywgJzgnLCAnLW1hJywgJzIwMCcsICctaW1hZScsICc8aW5maWxlLm1hZT4nLCAnLW9tYWUnLCAnPG91dGZpbGUubWFlPic=

>  <r_lp_tautomer_probability>  (346) 
1

>  <r_epik_Ionization_Penalty>  (346) 
3.97482e-06

>  <r_epik_Ionization_Penalty_Charging>  (346) 
0

>  <r_epik_Ionization_Penalty_Neutral>  (346) 
3.97482e-06

>  <r_epik_State_Penalty>  (346) 
-0

>  <r_epik_Charging_Adjusted_Penalty>  (346) 
0

>  <i_epik_Tot_Q>  (346) 
0

>  <i_epik_Tot_abs_Q>  (346) 
0

>  <s_epik_Chemistry_Notes>  (346) 
This compound has an ester and may undergo hydrolysis at high or low pH.

>  <s_lp_Force_Field>  (346) 
OPLS3e

>  <r_lp_Energy>  (346) 
184.83

>  <b_lp_Chiralities_Consistent>  (346) 
1

>  <s_lp_Variant>  (346) 
113:0-1

>  <s_i_glide_gridfile>  (346) 
pfpi4k_grid

>  <i_i_glide_lignum>  (346) 
36

>  <i_i_glide_rotatable_bonds>  (346) 
7

>  <r_i_docking_score>  (346) 
-2.32801

>  <r_i_glide_ligand_efficiency>  (346) 
-0.0646669

>  <r_i_glide_ligand_efficiency_sa>  (346) 
-0.213525

>  <r_i_glide_ligand_efficiency_ln>  (346) 
-0.507909

>  <r_i_glide_gscore>  (346) 
-2.32801

>  <r_i_glide_lipo>  (346) 
-0.280817

>  <r_i_glide_hbond>  (346) 
0

>  <r_i_glide_metal>  (346) 
-0

>  <r_i_glide_rewards>  (346) 
-0.0123871

>  <r_i_glide_evdw>  (346) 
-24.7654

>  <r_i_glide_ecoul>  (346) 
-6.37281

>  <r_i_glide_erotb>  (346) 
0.159385

>  <r_i_glide_esite>  (346) 
0

>  <r_i_glide_emodel>  (346) 
-34.1521

>  <r_i_glide_energy>  (346) 
-31.1382

>  <r_i_glide_einternal>  (346) 
2.01037

>  <r_i_glide_intrahb_reward>  (346) 
-0

>  <i_i_glide_confnum>  (346) 
3

>  <i_i_glide_posenum>  (346) 
39

>  <r_i_glide_eff_state_penalty>  (346) 
0

>  <ligand_id>  (346) 
113

>  <original_smiles>  (346) 
CC(=O)OCC1(C)CCCC23C(O)CC4C(C(O)C2O)C2(C)C(O)CCC(C)(C)C(CC2C13)C4(C)C

>  <smiles>  (346) 
[H]OC1([H])C([H])(O[H])C23C([H])([H])C([H])([H])C([H])([H])C(C([H])([H])[H])(C([H])([H])OC(=O)C([H])([H])[H])C2([H])C2([H])C([H])([H])C4([H])C(C([H])([H])[H])(C([H])([H])[H])C([H])([H])C([H])([H])C([H])(O[H])C2(C([H])([H])[H])C1([H])C([H])(C([H])([H])C3([H])O[H])C4(C([H])([H])[H])C([H])([H])[H]

$$$$
113:0:2
     RDKit          3D

 86 90  0  0  1  0  0  0  0  0999 V2000
    0.9581   -4.3278   10.7039 C   0  0  0  0  0  0  0  0  0  0  0  0
    0.4203   -3.8827    9.3491 C   0  0  0  0  0  0  0  0  0  0  0  0
   -0.7270   -3.4553    9.2196 O   0  0  0  0  0  0  0  0  0  0  0  0
    1.3243   -4.0036    8.3684 O   0  0  0  0  0  0  0  0  0  0  0  0
    0.9855   -3.6349    7.0395 C   0  0  0  0  0  0  0  0  0  0  0  0
    2.2401   -3.4739    6.1372 C   0  0  1  0  0  0  0  0  0  0  0  0
    1.6941   -2.9995    4.7627 C   0  0  0  0  0  0  0  0  0  0  0  0
    3.0468   -2.2941    6.7227 C   0  0  0  0  0  0  0  0  0  0  0  0
    4.2750   -1.9883    5.8832 C   0  0  0  0  0  0  0  0  0  0  0  0
    5.1925   -3.2076    5.8493 C   0  0  0  0  0  0  0  0  0  0  0  0
    4.6035   -4.6269    5.4462 C   0  0  1  0  0  0  0  0  0  0  0  0
    4.4859   -4.8122    3.8907 C   0  0  1  0  0  0  0  0  0  0  0  0
    5.2225   -3.8592    3.1522 O   0  0  0  0  0  0  0  0  0  0  0  0
    4.8979   -6.1793    3.3377 C   0  0  0  0  0  0  0  0  0  0  0  0
    4.1137   -7.4261    3.8499 C   0  0  1  0  0  0  0  0  0  0  0  0
    4.2258   -7.7479    5.4396 C   0  0  1  0  0  0  0  0  0  0  0  0
    5.5777   -7.1756    5.9625 C   0  0  1  0  0  0  0  0  0  0  0  0
    6.6710   -7.8167    5.3086 O   0  0  0  0  0  0  0  0  0  0  0  0
    5.7047   -5.6103    6.0543 C   0  0  1  0  0  0  0  0  0  0  0  0
    7.0224   -5.2289    5.6758 O   0  0  0  0  0  0  0  0  0  0  0  0
    3.0342   -7.4747    6.4892 C   0  0  2  0  0  0  0  0  0  0  0  0
    3.5244   -7.2240    7.9626 C   0  0  0  0  0  0  0  0  0  0  0  0
    2.0137   -8.7371    6.6952 C   0  0  1  0  0  0  0  0  0  0  0  0
    2.1253   -9.4602    7.9173 O   0  0  0  0  0  0  0  0  0  0  0  0
    0.4592   -8.5199    6.4795 C   0  0  0  0  0  0  0  0  0  0  0  0
   -0.1716   -9.0395    5.1448 C   0  0  0  0  0  0  0  0  0  0  0  0
    0.1598   -8.3493    3.7735 C   0  0  0  0  0  0  0  0  0  0  0  0
    0.0479   -9.4552    2.7079 C   0  0  0  0  0  0  0  0  0  0  0  0
   -0.9474   -7.3372    3.3887 C   0  0  0  0  0  0  0  0  0  0  0  0
    1.5832   -7.6817    3.9046 C   0  0  2  0  0  0  0  0  0  0  0  0
    1.5378   -6.3246    4.6803 C   0  0  0  0  0  0  0  0  0  0  0  0
    2.3638   -6.1565    5.9883 C   0  0  2  0  0  0  0  0  0  0  0  0
    3.1662   -4.7843    6.1374 C   0  0  2  0  0  0  0  0  0  0  0  0
    2.8162   -7.8066    2.9735 C   0  0  0  0  0  0  0  0  0  0  0  0
    2.5721   -6.9399    1.7142 C   0  0  0  0  0  0  0  0  0  0  0  0
    3.0724   -9.2460    2.4250 C   0  0  0  0  0  0  0  0  0  0  0  0
    1.9555   -4.7581   10.6043 H   0  0  0  0  0  0  0  0  0  0  0  0
    0.3050   -5.0804   11.1506 H   0  0  0  0  0  0  0  0  0  0  0  0
    1.0211   -3.4800   11.3870 H   0  0  0  0  0  0  0  0  0  0  0  0
    0.2945   -4.3725    6.6264 H   0  0  0  0  0  0  0  0  0  0  0  0
    0.4403   -2.6871    7.0518 H   0  0  0  0  0  0  0  0  0  0  0  0
    2.4653   -2.8944    4.0017 H   0  0  0  0  0  0  0  0  0  0  0  0
    1.2514   -2.0044    4.8601 H   0  0  0  0  0  0  0  0  0  0  0  0
    0.9018   -3.6356    4.3692 H   0  0  0  0  0  0  0  0  0  0  0  0
    2.4249   -1.4016    6.8176 H   0  0  0  0  0  0  0  0  0  0  0  0
    3.3773   -2.5301    7.7359 H   0  0  0  0  0  0  0  0  0  0  0  0
    4.0238   -1.6470    4.8841 H   0  0  0  0  0  0  0  0  0  0  0  0
    4.8123   -1.1592    6.3428 H   0  0  0  0  0  0  0  0  0  0  0  0
    6.0547   -2.9448    5.2405 H   0  0  0  0  0  0  0  0  0  0  0  0
    5.6171   -3.2671    6.8499 H   0  0  0  0  0  0  0  0  0  0  0  0
    3.4792   -4.6418    3.5563 H   0  0  0  0  0  0  0  0  0  0  0  0
    4.8436   -3.0081    3.3116 H   0  0  0  0  0  0  0  0  0  0  0  0
    4.8684   -6.1407    2.2530 H   0  0  0  0  0  0  0  0  0  0  0  0
    5.9669   -6.2980    3.4880 H   0  0  0  0  0  0  0  0  0  0  0  0
    4.8373   -8.1634    3.5061 H   0  0  0  0  0  0  0  0  0  0  0  0
    4.3608   -8.8316    5.4978 H   0  0  0  0  0  0  0  0  0  0  0  0
    5.7517   -7.5522    6.9664 H   0  0  0  0  0  0  0  0  0  0  0  0
    6.6072   -7.6436    4.3834 H   0  0  0  0  0  0  0  0  0  0  0  0
    5.7256   -5.4036    7.1215 H   0  0  0  0  0  0  0  0  0  0  0  0
    7.1709   -5.4742    4.7745 H   0  0  0  0  0  0  0  0  0  0  0  0
    2.6757   -7.0378    8.6266 H   0  0  0  0  0  0  0  0  0  0  0  0
    4.1946   -6.3931    8.1257 H   0  0  0  0  0  0  0  0  0  0  0  0
    4.0660   -8.0835    8.3606 H   0  0  0  0  0  0  0  0  0  0  0  0
    2.3360   -9.5617    6.0600 H   0  0  0  0  0  0  0  0  0  0  0  0
    1.8173  -10.3602    7.7801 H   0  0  0  0  0  0  0  0  0  0  0  0
   -0.0637   -9.0952    7.2470 H   0  0  0  0  0  0  0  0  0  0  0  0
    0.1310   -7.5075    6.6971 H   0  0  0  0  0  0  0  0  0  0  0  0
    0.1036  -10.0941    5.0887 H   0  0  0  0  0  0  0  0  0  0  0  0
   -1.2573   -9.0495    5.2646 H   0  0  0  0  0  0  0  0  0  0  0  0
    0.2447   -9.0557    1.7124 H   0  0  0  0  0  0  0  0  0  0  0  0
   -0.9588   -9.8788    2.6830 H   0  0  0  0  0  0  0  0  0  0  0  0
    0.7120  -10.2981    2.9013 H   0  0  0  0  0  0  0  0  0  0  0  0
   -0.6087   -6.6744    2.5934 H   0  0  0  0  0  0  0  0  0  0  0  0
   -1.2915   -6.7327    4.2245 H   0  0  0  0  0  0  0  0  0  0  0  0
   -1.8433   -7.8426    3.0248 H   0  0  0  0  0  0  0  0  0  0  0  0
    1.9953   -8.4767    4.4515 H   0  0  0  0  0  0  0  0  0  0  0  0
    1.7182   -5.5436    3.9595 H   0  0  0  0  0  0  0  0  0  0  0  0
    0.5287   -6.0877    4.9909 H   0  0  0  0  0  0  0  0  0  0  0  0
    1.6102   -6.0373    6.7577 H   0  0  0  0  0  0  0  0  0  0  0  0
    3.4480   -4.7638    7.1835 H   0  0  0  0  0  0  0  0  0  0  0  0
    1.6335   -7.2188    1.2353 H   0  0  0  0  0  0  0  0  0  0  0  0
    3.3530   -7.0854    0.9679 H   0  0  0  0  0  0  0  0  0  0  0  0
    2.5109   -5.8744    1.9231 H   0  0  0  0  0  0  0  0  0  0  0  0
    2.3772   -9.5319    1.6389 H   0  0  0  0  0  0  0  0  0  0  0  0
    3.0409  -10.0060    3.2091 H   0  0  0  0  0  0  0  0  0  0  0  0
    4.0465   -9.3336    1.9407 H   0  0  0  0  0  0  0  0  0  0  0  0
  1  2  1  0
  1 37  1  0
  1 38  1  0
  1 39  1  0
  2  3  2  0
  2  4  1  0
  4  5  1  0
  6  5  1  1
  5 40  1  0
  5 41  1  0
  6 33  1  0
  6  7  1  0
  6  8  1  0
  7 42  1  0
  7 43  1  0
  7 44  1  0
  8  9  1  0
  8 45  1  0
  8 46  1  0
  9 10  1  0
  9 47  1  0
  9 48  1  0
 11 10  1  6
 10 49  1  0
 10 50  1  0
 11 19  1  0
 11 33  1  0
 11 12  1  0
 12 13  1  0
 12 14  1  0
 12 51  1  6
 13 52  1  0
 14 15  1  0
 14 53  1  0
 14 54  1  0
 15 34  1  0
 15 16  1  0
 15 55  1  6
 16 17  1  0
 16 21  1  0
 16 56  1  6
 17 18  1  0
 17 19  1  0
 17 57  1  1
 18 58  1  0
 19 20  1  0
 19 59  1  1
 20 60  1  0
 21 32  1  0
 21 22  1  1
 21 23  1  0
 22 61  1  0
 22 62  1  0
 22 63  1  0
 23 24  1  0
 23 25  1  0
 23 64  1  6
 24 65  1  0
 25 26  1  0
 25 66  1  0
 25 67  1  0
 26 27  1  0
 26 68  1  0
 26 69  1  0
 27 28  1  0
 27 29  1  0
 27 30  1  0
 28 70  1  0
 28 71  1  0
 28 72  1  0
 29 73  1  0
 29 74  1  0
 29 75  1  0
 30 31  1  0
 30 34  1  0
 30 76  1  1
 31 32  1  0
 31 77  1  0
 31 78  1  0
 32 33  1  0
 32 79  1  1
 33 80  1  1
 34 35  1  0
 34 36  1  0
 35 81  1  0
 35 82  1  0
 35 83  1  0
 36 84  1  0
 36 85  1  0
 36 86  1  0
M  END
>  <i_m_ct_stereo_status>  (347) 
1

>  <s_m_source_file>  (347) 
/var/tmp/pbs.5076255.sched01/tmph7d3_0rd/117btfl79hs.sdf

>  <i_m_source_file_index>  (347) 
36

>  <i_lp_mmshare_version>  (347) 
48012

>  <i_f3d_flags>  (347) 
0

>  <s_epik_input>  (347) 
W0NIM11DKD1PKU9bQ0gyXVtDQEBdKFtDSDNdKShbQ0gyXVtDSDJdW0NIMl0xKVtDQEhdKFtDQF0xMjMpW0NAQEhdNFtDQF01KFtDSDNdKVtDQEhdKFtDQEBIXShbT0hdKVtDQEhdM1tPSF0pW0NASF0oW0NIMl1bQ0BASF0yW09IXSlDKFtDSDNdKShbQ0gzXSlbQ0hdKFtDSDJdNClDKFtDSDNdKShbQ0gzXSlbQ0gyXVtDSDJdW0NAQEhdNVtPSF0=

>  <s_epik_cmdline>  (347) 
J2VwaWtfcHl0aG9uJywgJy1waHQnLCAnMi4wJywgJy1waCcsICc3LjAnLCAnLXRuJywgJzgnLCAnLW1hJywgJzIwMCcsICctaW1hZScsICc8aW5maWxlLm1hZT4nLCAnLW9tYWUnLCAnPG91dGZpbGUubWFlPic=

>  <r_lp_tautomer_probability>  (347) 
1

>  <r_epik_Ionization_Penalty>  (347) 
3.97482e-06

>  <r_epik_Ionization_Penalty_Charging>  (347) 
0

>  <r_epik_Ionization_Penalty_Neutral>  (347) 
3.97482e-06

>  <r_epik_State_Penalty>  (347) 
-0

>  <r_epik_Charging_Adjusted_Penalty>  (347) 
0

>  <i_epik_Tot_Q>  (347) 
0

>  <i_epik_Tot_abs_Q>  (347) 
0

>  <s_epik_Chemistry_Notes>  (347) 
This compound has an ester and may undergo hydrolysis at high or low pH.

>  <s_lp_Force_Field>  (347) 
OPLS3e

>  <r_lp_Energy>  (347) 
184.83

>  <b_lp_Chiralities_Consistent>  (347) 
1

>  <s_lp_Variant>  (347) 
113:0-1

>  <s_i_glide_gridfile>  (347) 
pfpi4k_grid

>  <i_i_glide_lignum>  (347) 
36

>  <i_i_glide_rotatable_bonds>  (347) 
7

>  <r_i_docking_score>  (347) 
-2.16819

>  <r_i_glide_ligand_efficiency>  (347) 
-0.0602276

>  <r_i_glide_ligand_efficiency_sa>  (347) 
-0.198867

>  <r_i_glide_ligand_efficiency_ln>  (347) 
-0.473041

>  <r_i_glide_gscore>  (347) 
-2.16819

>  <r_i_glide_lipo>  (347) 
-0.0179674

>  <r_i_glide_hbond>  (347) 
-0.318298

>  <r_i_glide_metal>  (347) 
-0

>  <r_i_glide_rewards>  (347) 
0

>  <r_i_glide_evdw>  (347) 
-23.0055

>  <r_i_glide_ecoul>  (347) 
-5.53162

>  <r_i_glide_erotb>  (347) 
0.159385

>  <r_i_glide_esite>  (347) 
-0.0112931

>  <r_i_glide_emodel>  (347) 
-32.3298

>  <r_i_glide_energy>  (347) 
-28.5372

>  <r_i_glide_einternal>  (347) 
1.73914

>  <r_i_glide_intrahb_reward>  (347) 
-0

>  <i_i_glide_confnum>  (347) 
6

>  <i_i_glide_posenum>  (347) 
2

>  <r_i_glide_eff_state_penalty>  (347) 
0

>  <ligand_id>  (347) 
113

>  <original_smiles>  (347) 
CC(=O)OCC1(C)CCCC23C(O)CC4C(C(O)C2O)C2(C)C(O)CCC(C)(C)C(CC2C13)C4(C)C

>  <smiles>  (347) 
[H]OC1([H])C([H])(O[H])C23C([H])([H])C([H])([H])C([H])([H])C(C([H])([H])[H])(C([H])([H])OC(=O)C([H])([H])[H])C2([H])C2([H])C([H])([H])C4([H])C(C([H])([H])[H])(C([H])([H])[H])C([H])([H])C([H])([H])C([H])(O[H])C2(C([H])([H])[H])C1([H])C([H])(C([H])([H])C3([H])O[H])C4(C([H])([H])[H])C([H])([H])[H]

$$$$
114:0:0
     RDKit          3D

 36 38  0  0  1  0  0  0  0  0999 V2000
    5.5328   -5.6718    0.8146 C   0  0  0  0  0  0  0  0  0  0  0  0
    5.3967   -4.2653    0.2080 C   0  0  2  0  0  0  0  0  0  0  0  0
    4.3380   -3.3941    0.8984 C   0  0  0  0  0  0  0  0  0  0  0  0
    4.8862   -1.9900    0.6691 C   0  0  2  0  0  0  0  0  0  0  0  0
    4.4997   -1.0493    1.8297 C   0  0  0  0  0  0  0  0  0  0  0  0
    4.3473   -1.4179   -0.6754 C   0  0  0  0  0  0  0  0  0  0  0  0
    4.8362   -2.0870   -1.9694 C   0  0  1  0  0  0  0  0  0  0  0  0
    5.4830   -3.4801   -2.0671 C   0  0  2  0  0  0  0  0  0  0  0  0
    4.7804   -3.6657   -3.4063 C   0  0  0  0  0  0  0  0  0  0  0  0
    3.8472   -2.4844   -3.1036 C   0  0  0  0  0  0  0  0  0  0  0  0
    2.4516   -2.9210   -2.6594 C   0  0  0  0  0  0  0  0  0  0  0  0
    3.6818   -1.4822   -4.2361 C   0  0  0  0  0  0  0  0  0  0  0  0
    5.0208   -4.4416   -1.1268 O   0  0  0  0  0  0  0  0  0  0  0  0
    6.3905   -2.2987    0.6377 C   0  0  0  0  0  0  0  0  0  0  0  0
    7.2438   -1.4265    0.7902 O   0  0  0  0  0  0  0  0  0  0  0  0
    6.6096   -3.5954    0.3778 O   0  0  0  0  0  0  0  0  0  0  0  0
    6.3104   -6.2227    0.2824 H   0  0  0  0  0  0  0  0  0  0  0  0
    4.5918   -6.2110    0.7122 H   0  0  0  0  0  0  0  0  0  0  0  0
    5.8018   -5.6119    1.8675 H   0  0  0  0  0  0  0  0  0  0  0  0
    3.3471   -3.5810    0.4932 H   0  0  0  0  0  0  0  0  0  0  0  0
    4.3311   -3.6332    1.9666 H   0  0  0  0  0  0  0  0  0  0  0  0
    3.4239   -1.0432    1.9928 H   0  0  0  0  0  0  0  0  0  0  0  0
    4.8043   -0.0245    1.6248 H   0  0  0  0  0  0  0  0  0  0  0  0
    4.9735   -1.3448    2.7673 H   0  0  0  0  0  0  0  0  0  0  0  0
    3.2623   -1.4415   -0.6184 H   0  0  0  0  0  0  0  0  0  0  0  0
    4.5854   -0.3580   -0.7148 H   0  0  0  0  0  0  0  0  0  0  0  0
    5.5755   -1.4214   -2.4383 H   0  0  0  0  0  0  0  0  0  0  0  0
    6.5644   -3.4524   -2.1766 H   0  0  0  0  0  0  0  0  0  0  0  0
    5.4206   -3.4816   -4.2597 H   0  0  0  0  0  0  0  0  0  0  0  0
    4.2675   -4.6163   -3.5188 H   0  0  0  0  0  0  0  0  0  0  0  0
    1.9182   -3.4493   -3.4507 H   0  0  0  0  0  0  0  0  0  0  0  0
    1.8431   -2.0680   -2.3696 H   0  0  0  0  0  0  0  0  0  0  0  0
    2.4988   -3.5920   -1.7991 H   0  0  0  0  0  0  0  0  0  0  0  0
    3.1286   -1.9251   -5.0578 H   0  0  0  0  0  0  0  0  0  0  0  0
    4.6436   -1.1625   -4.6452 H   0  0  0  0  0  0  0  0  0  0  0  0
    3.1505   -0.5820   -3.9212 H   0  0  0  0  0  0  0  0  0  0  0  0
  2  1  1  1
  1 17  1  0
  1 18  1  0
  1 19  1  0
  2 13  1  0
  2 16  1  0
  2  3  1  0
  3  4  1  0
  3 20  1  0
  3 21  1  0
  4  5  1  1
  4  6  1  0
  4 14  1  0
  5 22  1  0
  5 23  1  0
  5 24  1  0
  6  7  1  0
  6 25  1  0
  6 26  1  0
  7 10  1  0
  7  8  1  0
  7 27  1  6
  8  9  1  0
  8 13  1  0
  8 28  1  6
  9 10  1  0
  9 29  1  0
  9 30  1  0
 10 11  1  0
 10 12  1  0
 11 31  1  0
 11 32  1  0
 11 33  1  0
 12 34  1  0
 12 35  1  0
 12 36  1  0
 14 15  2  0
 14 16  1  0
M  END
>  <i_m_ct_stereo_status>  (348) 
1

>  <s_m_source_file>  (348) 
/var/tmp/pbs.5076255.sched01/tmph7d3_0rd/117btfl79hs.sdf

>  <i_m_source_file_index>  (348) 
37

>  <i_lp_mmshare_version>  (348) 
48012

>  <i_f3d_flags>  (348) 
0

>  <s_epik_input>  (348) 
W0NIM11bQ0BdMTJbQ0gyXVtDQEBdKFtDSDNdKShDKD1PKU8yKVtDSDJdW0NASF0zW0NAQEhdKE8xKVtDSDJdQzMoW0NIM10pW0NIM10=

>  <s_epik_cmdline>  (348) 
J2VwaWtfcHl0aG9uJywgJy1waHQnLCAnMi4wJywgJy1waCcsICc3LjAnLCAnLXRuJywgJzgnLCAnLW1hJywgJzIwMCcsICctaW1hZScsICc8aW5maWxlLm1hZT4nLCAnLW9tYWUnLCAnPG91dGZpbGUubWFlPic=

>  <r_lp_tautomer_probability>  (348) 
1

>  <r_epik_Ionization_Penalty>  (348) 
9.91949e-14

>  <r_epik_Ionization_Penalty_Charging>  (348) 
0

>  <r_epik_Ionization_Penalty_Neutral>  (348) 
9.91949e-14

>  <r_epik_State_Penalty>  (348) 
-0

>  <r_epik_Charging_Adjusted_Penalty>  (348) 
0

>  <i_epik_Tot_Q>  (348) 
0

>  <i_epik_Tot_abs_Q>  (348) 
0

>  <s_epik_Chemistry_Notes>  (348) 
This compound has an ester and may undergo hydrolysis at high or low pH.

>  <s_lp_Force_Field>  (348) 
OPLS3e

>  <r_lp_Energy>  (348) 
16.9145

>  <b_lp_Chiralities_Consistent>  (348) 
1

>  <s_lp_Variant>  (348) 
114:0-1

>  <s_i_glide_gridfile>  (348) 
pfpi4k_grid

>  <i_i_glide_lignum>  (348) 
37

>  <i_i_glide_rotatable_bonds>  (348) 
0

>  <r_i_docking_score>  (348) 
-3.52247

>  <r_i_glide_ligand_efficiency>  (348) 
-0.220155

>  <r_i_glide_ligand_efficiency_sa>  (348) 
-0.554755

>  <r_i_glide_ligand_efficiency_ln>  (348) 
-0.933702

>  <r_i_glide_gscore>  (348) 
-3.52247

>  <r_i_glide_lipo>  (348) 
-0.583788

>  <r_i_glide_hbond>  (348) 
0

>  <r_i_glide_metal>  (348) 
-0

>  <r_i_glide_rewards>  (348) 
-2.07473

>  <r_i_glide_evdw>  (348) 
-18.3366

>  <r_i_glide_ecoul>  (348) 
0.352458

>  <r_i_glide_erotb>  (348) 
0

>  <r_i_glide_esite>  (348) 
0

>  <r_i_glide_emodel>  (348) 
-21.8606

>  <r_i_glide_energy>  (348) 
-17.9841

>  <r_i_glide_einternal>  (348) 
0

>  <r_i_glide_intrahb_reward>  (348) 
-0

>  <i_i_glide_confnum>  (348) 
1

>  <i_i_glide_posenum>  (348) 
1

>  <r_i_glide_eff_state_penalty>  (348) 
0

>  <ligand_id>  (348) 
114

>  <original_smiles>  (348) 
CC12CC(C)(CC3C(CC3(C)C)O1)C(=O)O2

>  <smiles>  (348) 
[H]C([H])([H])C12OC(=O)C(C([H])([H])[H])(C1([H])[H])C([H])([H])C1([H])C([H])(O2)C([H])([H])C1(C([H])([H])[H])C([H])([H])[H]

$$$$
114:0:1
     RDKit          3D

 36 38  0  0  1  0  0  0  0  0999 V2000
    2.8427   -2.9978    2.2431 C   0  0  0  0  0  0  0  0  0  0  0  0
    3.7765   -2.9421    1.0185 C   0  0  2  0  0  0  0  0  0  0  0  0
    4.6557   -1.6908    0.9507 C   0  0  0  0  0  0  0  0  0  0  0  0
    5.8685   -2.2002    0.1815 C   0  0  2  0  0  0  0  0  0  0  0  0
    7.1292   -1.4240    0.5815 C   0  0  0  0  0  0  0  0  0  0  0  0
    5.6690   -2.0057   -1.3296 C   0  0  0  0  0  0  0  0  0  0  0  0
    4.5784   -2.8655   -1.9890 C   0  0  1  0  0  0  0  0  0  0  0  0
    3.4396   -3.5907   -1.2531 C   0  0  2  0  0  0  0  0  0  0  0  0
    2.5361   -3.2865   -2.4505 C   0  0  0  0  0  0  0  0  0  0  0  0
    3.5392   -2.2391   -2.9476 C   0  0  0  0  0  0  0  0  0  0  0  0
    3.1445   -0.7950   -2.6823 C   0  0  0  0  0  0  0  0  0  0  0  0
    3.8604   -2.3239   -4.4145 C   0  0  0  0  0  0  0  0  0  0  0  0
    2.9388   -2.9555   -0.0965 O   0  0  0  0  0  0  0  0  0  0  0  0
    5.8859   -3.6566    0.6438 C   0  0  0  0  0  0  0  0  0  0  0  0
    6.9012   -4.3365    0.5646 O   0  0  0  0  0  0  0  0  0  0  0  0
    4.6677   -4.0263    1.0887 O   0  0  0  0  0  0  0  0  0  0  0  0
    2.2599   -3.9206    2.2162 H   0  0  0  0  0  0  0  0  0  0  0  0
    2.1540   -2.1512    2.2136 H   0  0  0  0  0  0  0  0  0  0  0  0
    3.4183   -2.9646    3.1704 H   0  0  0  0  0  0  0  0  0  0  0  0
    4.1128   -0.8566    0.4967 H   0  0  0  0  0  0  0  0  0  0  0  0
    4.9289   -1.4068    1.9742 H   0  0  0  0  0  0  0  0  0  0  0  0
    6.9917   -0.3516    0.4756 H   0  0  0  0  0  0  0  0  0  0  0  0
    8.0059   -1.7271    0.0227 H   0  0  0  0  0  0  0  0  0  0  0  0
    7.3488   -1.6069    1.6208 H   0  0  0  0  0  0  0  0  0  0  0  0
    5.4659   -0.9505   -1.4976 H   0  0  0  0  0  0  0  0  0  0  0  0
    6.6129   -2.1904   -1.8376 H   0  0  0  0  0  0  0  0  0  0  0  0
    5.0518   -3.6653   -2.5696 H   0  0  0  0  0  0  0  0  0  0  0  0
    3.6350   -4.6565   -1.1205 H   0  0  0  0  0  0  0  0  0  0  0  0
    2.4359   -4.1082   -3.1657 H   0  0  0  0  0  0  0  0  0  0  0  0
    1.5611   -2.8756   -2.1869 H   0  0  0  0  0  0  0  0  0  0  0  0
    2.2366   -0.5081   -3.2130 H   0  0  0  0  0  0  0  0  0  0  0  0
    3.9228   -0.0886   -2.9843 H   0  0  0  0  0  0  0  0  0  0  0  0
    2.9653   -0.6485   -1.6162 H   0  0  0  0  0  0  0  0  0  0  0  0
    3.0119   -2.0373   -5.0026 H   0  0  0  0  0  0  0  0  0  0  0  0
    4.1423   -3.3363   -4.7024 H   0  0  0  0  0  0  0  0  0  0  0  0
    4.6402   -1.6208   -4.6791 H   0  0  0  0  0  0  0  0  0  0  0  0
  2  1  1  1
  1 17  1  0
  1 18  1  0
  1 19  1  0
  2 13  1  0
  2 16  1  0
  2  3  1  0
  3  4  1  0
  3 20  1  0
  3 21  1  0
  4  5  1  1
  4  6  1  0
  4 14  1  0
  5 22  1  0
  5 23  1  0
  5 24  1  0
  6  7  1  0
  6 25  1  0
  6 26  1  0
  7 10  1  0
  7  8  1  0
  7 27  1  6
  8  9  1  0
  8 13  1  0
  8 28  1  1
  9 10  1  0
  9 29  1  0
  9 30  1  0
 10 11  1  0
 10 12  1  0
 11 31  1  0
 11 32  1  0
 11 33  1  0
 12 34  1  0
 12 35  1  0
 12 36  1  0
 14 15  2  0
 14 16  1  0
M  END
>  <i_m_ct_stereo_status>  (349) 
1

>  <s_m_source_file>  (349) 
/var/tmp/pbs.5076255.sched01/tmph7d3_0rd/117btfl79hs.sdf

>  <i_m_source_file_index>  (349) 
37

>  <i_lp_mmshare_version>  (349) 
48012

>  <i_f3d_flags>  (349) 
0

>  <s_epik_input>  (349) 
W0NIM11bQ0BdMTJbQ0gyXVtDQEBdKFtDSDNdKShDKD1PKU8yKVtDSDJdW0NASF0zW0NAQEhdKE8xKVtDSDJdQzMoW0NIM10pW0NIM10=

>  <s_epik_cmdline>  (349) 
J2VwaWtfcHl0aG9uJywgJy1waHQnLCAnMi4wJywgJy1waCcsICc3LjAnLCAnLXRuJywgJzgnLCAnLW1hJywgJzIwMCcsICctaW1hZScsICc8aW5maWxlLm1hZT4nLCAnLW9tYWUnLCAnPG91dGZpbGUubWFlPic=

>  <r_lp_tautomer_probability>  (349) 
1

>  <r_epik_Ionization_Penalty>  (349) 
9.91949e-14

>  <r_epik_Ionization_Penalty_Charging>  (349) 
0

>  <r_epik_Ionization_Penalty_Neutral>  (349) 
9.91949e-14

>  <r_epik_State_Penalty>  (349) 
-0

>  <r_epik_Charging_Adjusted_Penalty>  (349) 
0

>  <i_epik_Tot_Q>  (349) 
0

>  <i_epik_Tot_abs_Q>  (349) 
0

>  <s_epik_Chemistry_Notes>  (349) 
This compound has an ester and may undergo hydrolysis at high or low pH.

>  <s_lp_Force_Field>  (349) 
OPLS3e

>  <r_lp_Energy>  (349) 
16.9145

>  <b_lp_Chiralities_Consistent>  (349) 
1

>  <s_lp_Variant>  (349) 
114:0-1

>  <s_i_glide_gridfile>  (349) 
pfpi4k_grid

>  <i_i_glide_lignum>  (349) 
37

>  <i_i_glide_rotatable_bonds>  (349) 
0

>  <r_i_docking_score>  (349) 
-2.92017

>  <r_i_glide_ligand_efficiency>  (349) 
-0.182511

>  <r_i_glide_ligand_efficiency_sa>  (349) 
-0.459898

>  <r_i_glide_ligand_efficiency_ln>  (349) 
-0.77405

>  <r_i_glide_gscore>  (349) 
-2.92017

>  <r_i_glide_lipo>  (349) 
-0.225152

>  <r_i_glide_hbond>  (349) 
0

>  <r_i_glide_metal>  (349) 
-0

>  <r_i_glide_rewards>  (349) 
-1.9785

>  <r_i_glide_evdw>  (349) 
-13.3571

>  <r_i_glide_ecoul>  (349) 
-0.297927

>  <r_i_glide_erotb>  (349) 
0

>  <r_i_glide_esite>  (349) 
-0.0039735

>  <r_i_glide_emodel>  (349) 
-16.7613

>  <r_i_glide_energy>  (349) 
-13.655

>  <r_i_glide_einternal>  (349) 
0

>  <r_i_glide_intrahb_reward>  (349) 
-0

>  <i_i_glide_confnum>  (349) 
1

>  <i_i_glide_posenum>  (349) 
9

>  <r_i_glide_eff_state_penalty>  (349) 
0

>  <ligand_id>  (349) 
114

>  <original_smiles>  (349) 
CC12CC(C)(CC3C(CC3(C)C)O1)C(=O)O2

>  <smiles>  (349) 
[H]C([H])([H])C12OC(=O)C(C([H])([H])[H])(C1([H])[H])C([H])([H])C1([H])C([H])(O2)C([H])([H])C1(C([H])([H])[H])C([H])([H])[H]

$$$$
114:0:2
     RDKit          3D

 36 38  0  0  1  0  0  0  0  0999 V2000
    3.1063   -4.0512    1.4482 C   0  0  0  0  0  0  0  0  0  0  0  0
    4.0483   -3.4887    0.3809 C   0  0  2  0  0  0  0  0  0  0  0  0
    4.7006   -2.1632    0.7666 C   0  0  0  0  0  0  0  0  0  0  0  0
    5.9964   -2.2097   -0.0241 C   0  0  2  0  0  0  0  0  0  0  0  0
    7.1237   -1.4571    0.7009 C   0  0  0  0  0  0  0  0  0  0  0  0
    5.8001   -1.6082   -1.4343 C   0  0  0  0  0  0  0  0  0  0  0  0
    4.8982   -2.3661   -2.4313 C   0  0  1  0  0  0  0  0  0  0  0  0
    3.8868   -3.4390   -2.0208 C   0  0  2  0  0  0  0  0  0  0  0  0
    2.9845   -2.9394   -3.1425 C   0  0  0  0  0  0  0  0  0  0  0  0
    3.8003   -1.6468   -3.2348 C   0  0  0  0  0  0  0  0  0  0  0  0
    3.1847   -0.4533   -2.5837 C   0  0  0  0  0  0  0  0  0  0  0  0
    4.1517   -1.1877   -4.6238 C   0  0  0  0  0  0  0  0  0  0  0  0
    3.2607   -3.2736   -0.7572 O   0  0  0  0  0  0  0  0  0  0  0  0
    6.2577   -3.7094   -0.0179 C   0  0  0  0  0  0  0  0  0  0  0  0
    7.3829   -4.1865   -0.1619 O   0  0  0  0  0  0  0  0  0  0  0  0
    5.1086   -4.3884    0.1824 O   0  0  0  0  0  0  0  0  0  0  0  0
    2.6893   -4.9976    1.1007 H   0  0  0  0  0  0  0  0  0  0  0  0
    2.2936   -3.3469    1.6284 H   0  0  0  0  0  0  0  0  0  0  0  0
    3.6465   -4.2228    2.3816 H   0  0  0  0  0  0  0  0  0  0  0  0
    4.0564   -1.3142    0.5392 H   0  0  0  0  0  0  0  0  0  0  0  0
    4.9071   -2.1639    1.8391 H   0  0  0  0  0  0  0  0  0  0  0  0
    6.8124   -0.4436    0.9259 H   0  0  0  0  0  0  0  0  0  0  0  0
    8.0484   -1.4217    0.1235 H   0  0  0  0  0  0  0  0  0  0  0  0
    7.3427   -1.9556    1.6407 H   0  0  0  0  0  0  0  0  0  0  0  0
    5.4471   -0.5891   -1.2964 H   0  0  0  0  0  0  0  0  0  0  0  0
    6.7738   -1.5052   -1.8968 H   0  0  0  0  0  0  0  0  0  0  0  0
    5.5376   -2.8638   -3.1537 H   0  0  0  0  0  0  0  0  0  0  0  0
    4.2817   -4.4400   -2.1992 H   0  0  0  0  0  0  0  0  0  0  0  0
    3.0507   -3.5502   -4.0450 H   0  0  0  0  0  0  0  0  0  0  0  0
    1.9475   -2.7829   -2.8381 H   0  0  0  0  0  0  0  0  0  0  0  0
    2.2500   -0.1442   -3.0528 H   0  0  0  0  0  0  0  0  0  0  0  0
    3.8786    0.3878   -2.6400 H   0  0  0  0  0  0  0  0  0  0  0  0
    2.9719   -0.6545   -1.5349 H   0  0  0  0  0  0  0  0  0  0  0  0
    3.2823   -0.8858   -5.2054 H   0  0  0  0  0  0  0  0  0  0  0  0
    4.6026   -2.0319   -5.1084 H   0  0  0  0  0  0  0  0  0  0  0  0
    4.8681   -0.3760   -4.6569 H   0  0  0  0  0  0  0  0  0  0  0  0
  2  1  1  1
  1 17  1  0
  1 18  1  0
  1 19  1  0
  2 13  1  0
  2 16  1  0
  2  3  1  0
  3  4  1  0
  3 20  1  0
  3 21  1  0
  4  5  1  1
  4  6  1  0
  4 14  1  0
  5 22  1  0
  5 23  1  0
  5 24  1  0
  6  7  1  0
  6 25  1  0
  6 26  1  0
  7 10  1  0
  7  8  1  0
  7 27  1  6
  8  9  1  0
  8 13  1  0
  8 28  1  6
  9 10  1  0
  9 29  1  0
  9 30  1  0
 10 11  1  0
 10 12  1  0
 11 31  1  0
 11 32  1  0
 11 33  1  0
 12 34  1  0
 12 35  1  0
 12 36  1  0
 14 15  2  0
 14 16  1  0
M  END
>  <i_m_ct_stereo_status>  (350) 
1

>  <s_m_source_file>  (350) 
/var/tmp/pbs.5076255.sched01/tmph7d3_0rd/117btfl79hs.sdf

>  <i_m_source_file_index>  (350) 
37

>  <i_lp_mmshare_version>  (350) 
48012

>  <i_f3d_flags>  (350) 
0

>  <s_epik_input>  (350) 
W0NIM11bQ0BdMTJbQ0gyXVtDQEBdKFtDSDNdKShDKD1PKU8yKVtDSDJdW0NASF0zW0NAQEhdKE8xKVtDSDJdQzMoW0NIM10pW0NIM10=

>  <s_epik_cmdline>  (350) 
J2VwaWtfcHl0aG9uJywgJy1waHQnLCAnMi4wJywgJy1waCcsICc3LjAnLCAnLXRuJywgJzgnLCAnLW1hJywgJzIwMCcsICctaW1hZScsICc8aW5maWxlLm1hZT4nLCAnLW9tYWUnLCAnPG91dGZpbGUubWFlPic=

>  <r_lp_tautomer_probability>  (350) 
1

>  <r_epik_Ionization_Penalty>  (350) 
9.91949e-14

>  <r_epik_Ionization_Penalty_Charging>  (350) 
0

>  <r_epik_Ionization_Penalty_Neutral>  (350) 
9.91949e-14

>  <r_epik_State_Penalty>  (350) 
-0

>  <r_epik_Charging_Adjusted_Penalty>  (350) 
0

>  <i_epik_Tot_Q>  (350) 
0

>  <i_epik_Tot_abs_Q>  (350) 
0

>  <s_epik_Chemistry_Notes>  (350) 
This compound has an ester and may undergo hydrolysis at high or low pH.

>  <s_lp_Force_Field>  (350) 
OPLS3e

>  <r_lp_Energy>  (350) 
16.9145

>  <b_lp_Chiralities_Consistent>  (350) 
1

>  <s_lp_Variant>  (350) 
114:0-1

>  <s_i_glide_gridfile>  (350) 
pfpi4k_grid

>  <i_i_glide_lignum>  (350) 
37

>  <i_i_glide_rotatable_bonds>  (350) 
0

>  <r_i_docking_score>  (350) 
-2.67297

>  <r_i_glide_ligand_efficiency>  (350) 
-0.167061

>  <r_i_glide_ligand_efficiency_sa>  (350) 
-0.420967

>  <r_i_glide_ligand_efficiency_ln>  (350) 
-0.708525

>  <r_i_glide_gscore>  (350) 
-2.67297

>  <r_i_glide_lipo>  (350) 
-0.310848

>  <r_i_glide_hbond>  (350) 
0

>  <r_i_glide_metal>  (350) 
-0

>  <r_i_glide_rewards>  (350) 
-2.01383

>  <r_i_glide_evdw>  (350) 
-9.62303

>  <r_i_glide_ecoul>  (350) 
0.885707

>  <r_i_glide_erotb>  (350) 
0

>  <r_i_glide_esite>  (350) 
0

>  <r_i_glide_emodel>  (350) 
-11.4433

>  <r_i_glide_energy>  (350) 
-8.73733

>  <r_i_glide_einternal>  (350) 
0

>  <r_i_glide_intrahb_reward>  (350) 
-0

>  <i_i_glide_confnum>  (350) 
2

>  <i_i_glide_posenum>  (350) 
33

>  <r_i_glide_eff_state_penalty>  (350) 
0

>  <ligand_id>  (350) 
114

>  <original_smiles>  (350) 
CC12CC(C)(CC3C(CC3(C)C)O1)C(=O)O2

>  <smiles>  (350) 
[H]C([H])([H])C12OC(=O)C(C([H])([H])[H])(C1([H])[H])C([H])([H])C1([H])C([H])(O2)C([H])([H])C1(C([H])([H])[H])C([H])([H])[H]

$$$$
115:0:0
     RDKit          3D

 40 44  0  0  1  0  0  0  0  0999 V2000
    6.5864   -4.0553    0.3185 C   0  0  0  0  0  0  0  0  0  0  0  0
    5.4906   -4.8240    0.7522 C   0  0  0  0  0  0  0  0  0  0  0  0
    4.2529   -4.6718    0.0896 C   0  0  0  0  0  0  0  0  0  0  0  0
    3.0869   -5.4476    0.4897 C   0  0  0  0  0  0  0  0  0  0  0  0
    1.8224   -5.3327    0.0659 N   0  0  0  0  0  0  0  0  0  0  0  0
    1.0898   -6.2565    0.7601 N   0  0  0  0  0  0  0  0  0  0  0  0
    1.9565   -6.8714    1.5715 C   0  0  0  0  0  0  0  0  0  0  0  0
    1.6837   -7.9951    2.5190 C   0  0  1  0  0  0  0  0  0  0  0  0
    2.3953   -9.2913    2.0438 C   0  0  0  0  0  0  0  0  0  0  0  0
    2.1354  -10.4365    3.0393 C   0  0  2  0  0  0  0  0  0  0  0  0
    0.6202  -10.7095    3.1179 C   0  0  0  0  0  0  0  0  0  0  0  0
   -0.0942   -9.4402    3.6188 C   0  0  1  0  0  0  0  0  0  0  0  0
    0.4297   -9.0582    5.0149 C   0  0  0  0  0  0  0  0  0  0  0  0
    1.9412   -8.7773    4.9220 C   0  0  1  0  0  0  0  0  0  0  0  0
    2.6742  -10.0411    4.4299 C   0  0  0  0  0  0  0  0  0  0  0  0
    2.1922   -7.6206    3.9363 C   0  0  0  0  0  0  0  0  0  0  0  0
    0.1578   -8.2861    2.6372 C   0  0  0  0  0  0  0  0  0  0  0  0
    3.2304   -6.4128    1.4355 O   0  0  0  0  0  0  0  0  0  0  0  0
    4.1787   -3.7458   -0.9743 C   0  0  0  0  0  0  0  0  0  0  0  0
    5.3374   -3.0345   -1.3338 C   0  0  0  0  0  0  0  0  0  0  0  0
    6.5204   -3.1770   -0.7048 N   0  0  0  0  0  0  0  0  0  0  0  0
    7.5460   -4.1565    0.8020 H   0  0  0  0  0  0  0  0  0  0  0  0
    5.6024   -5.5150    1.5755 H   0  0  0  0  0  0  0  0  0  0  0  0
    2.0522   -9.5786    1.0478 H   0  0  0  0  0  0  0  0  0  0  0  0
    3.4698   -9.1239    1.9566 H   0  0  0  0  0  0  0  0  0  0  0  0
    2.6473  -11.3356    2.6972 H   0  0  0  0  0  0  0  0  0  0  0  0
    0.2347  -10.9872    2.1357 H   0  0  0  0  0  0  0  0  0  0  0  0
    0.4190  -11.5507    3.7822 H   0  0  0  0  0  0  0  0  0  0  0  0
   -1.1641   -9.6282    3.6748 H   0  0  0  0  0  0  0  0  0  0  0  0
   -0.0974   -8.1804    5.3863 H   0  0  0  0  0  0  0  0  0  0  0  0
    0.2348   -9.8634    5.7239 H   0  0  0  0  0  0  0  0  0  0  0  0
    2.3176   -8.5024    5.9060 H   0  0  0  0  0  0  0  0  0  0  0  0
    2.5402  -10.8558    5.1423 H   0  0  0  0  0  0  0  0  0  0  0  0
    3.7464   -9.8522    4.3724 H   0  0  0  0  0  0  0  0  0  0  0  0
    3.2599   -7.3989    3.9034 H   0  0  0  0  0  0  0  0  0  0  0  0
    1.6976   -6.7121    4.2839 H   0  0  0  0  0  0  0  0  0  0  0  0
   -0.3842   -7.3986    2.9677 H   0  0  0  0  0  0  0  0  0  0  0  0
   -0.2658   -8.5583    1.6715 H   0  0  0  0  0  0  0  0  0  0  0  0
    3.2562   -3.5953   -1.5176 H   0  0  0  0  0  0  0  0  0  0  0  0
    5.3209   -2.3299   -2.1537 H   0  0  0  0  0  0  0  0  0  0  0  0
  1 21  2  0
  1  2  1  0
  1 22  1  0
  2  3  2  0
  2 23  1  0
  3  4  1  0
  3 19  1  0
  4 18  1  0
  4  5  2  0
  5  6  1  0
  6  7  2  0
  8  7  1  6
  7 18  1  0
  8 16  1  0
  8 17  1  0
  8  9  1  0
  9 10  1  0
  9 24  1  0
  9 25  1  0
 10 15  1  0
 10 11  1  0
 10 26  1  6
 11 12  1  0
 11 27  1  0
 11 28  1  0
 12 13  1  0
 12 17  1  0
 12 29  1  1
 13 14  1  0
 13 30  1  0
 13 31  1  0
 14 15  1  0
 14 16  1  0
 14 32  1  1
 15 33  1  0
 15 34  1  0
 16 35  1  0
 16 36  1  0
 17 37  1  0
 17 38  1  0
 19 20  2  0
 19 39  1  0
 20 21  1  0
 20 40  1  0
M  END
>  <i_m_ct_stereo_status>  (351) 
1

>  <s_m_source_file>  (351) 
/var/tmp/pbs.5076255.sched01/tmph7d3_0rd/117btfl79hs.sdf

>  <i_m_source_file_index>  (351) 
38

>  <i_lp_mmshare_version>  (351) 
48012

>  <i_f3d_flags>  (351) 
0

>  <s_epik_input>  (351) 
W2NIXTFbY0hdbltjSF1bY0hdYzEtYzJubmMobzIpQzM0W0NIMl1bQ0BASF01W0NIMl1bQ0BIXShbQ0gyXTQpW0NIMl1bQ0BASF0oW0NIMl01KVtDSDJdMw==

>  <s_epik_cmdline>  (351) 
J2VwaWtfcHl0aG9uJywgJy1waHQnLCAnMi4wJywgJy1waCcsICc3LjAnLCAnLXRuJywgJzgnLCAnLW1hJywgJzIwMCcsICctaW1hZScsICc8aW5maWxlLm1hZT4nLCAnLW9tYWUnLCAnPG91dGZpbGUubWFlPic=

>  <r_lp_tautomer_probability>  (351) 
1

>  <r_epik_Ionization_Penalty>  (351) 
0.000283514

>  <r_epik_Ionization_Penalty_Charging>  (351) 
0

>  <r_epik_Ionization_Penalty_Neutral>  (351) 
0.000283514

>  <r_epik_State_Penalty>  (351) 
-0

>  <r_epik_Charging_Adjusted_Penalty>  (351) 
0

>  <i_epik_Tot_Q>  (351) 
0

>  <i_epik_Tot_abs_Q>  (351) 
0

>  <s_lp_Force_Field>  (351) 
OPLS3e

>  <r_lp_Energy>  (351) 
17.593

>  <b_lp_Chiralities_Consistent>  (351) 
1

>  <s_lp_Variant>  (351) 
115:0-1

>  <s_i_glide_gridfile>  (351) 
pfpi4k_grid

>  <i_i_glide_lignum>  (351) 
38

>  <i_i_glide_rotatable_bonds>  (351) 
2

>  <r_i_docking_score>  (351) 
-3.58771

>  <r_i_glide_ligand_efficiency>  (351) 
-0.170843

>  <r_i_glide_ligand_efficiency_sa>  (351) 
-0.471343

>  <r_i_glide_ligand_efficiency_ln>  (351) 
-0.887053

>  <r_i_glide_gscore>  (351) 
-3.58771

>  <r_i_glide_lipo>  (351) 
-0.387506

>  <r_i_glide_hbond>  (351) 
0

>  <r_i_glide_metal>  (351) 
-0

>  <r_i_glide_rewards>  (351) 
-1.49078

>  <r_i_glide_evdw>  (351) 
-25.3769

>  <r_i_glide_ecoul>  (351) 
-4.66367

>  <r_i_glide_erotb>  (351) 
0.456688

>  <r_i_glide_esite>  (351) 
-0.197713

>  <r_i_glide_emodel>  (351) 
-37.3968

>  <r_i_glide_energy>  (351) 
-30.0406

>  <r_i_glide_einternal>  (351) 
0.0941004

>  <r_i_glide_intrahb_reward>  (351) 
-0

>  <i_i_glide_confnum>  (351) 
6

>  <i_i_glide_posenum>  (351) 
34

>  <r_i_glide_eff_state_penalty>  (351) 
0

>  <ligand_id>  (351) 
115

>  <original_smiles>  (351) 
c1cc(-c2nnc(C34CC5CC(CC(C5)C3)C4)o2)ccn1

>  <smiles>  (351) 
[H]c1nc([H])c([H])c(-c2nnc(C34C([H])([H])C5([H])C([H])([H])C([H])(C([H])([H])C([H])(C5([H])[H])C3([H])[H])C4([H])[H])o2)c1[H]

$$$$
115:0:1
     RDKit          3D

 40 44  0  0  1  0  0  0  0  0999 V2000
    4.1097   -2.6780   -1.1585 C   0  0  0  0  0  0  0  0  0  0  0  0
    3.1689   -3.5931   -0.6555 C   0  0  0  0  0  0  0  0  0  0  0  0
    3.6361   -4.7103    0.0736 C   0  0  0  0  0  0  0  0  0  0  0  0
    2.7027   -5.7053    0.5922 C   0  0  0  0  0  0  0  0  0  0  0  0
    1.4036   -5.8560    0.3096 N   0  0  0  0  0  0  0  0  0  0  0  0
    0.9534   -6.8871    1.0907 N   0  0  0  0  0  0  0  0  0  0  0  0
    2.0243   -7.3212    1.7684 C   0  0  0  0  0  0  0  0  0  0  0  0
    2.1101   -8.4710    2.7381 C   0  0  1  0  0  0  0  0  0  0  0  0
    3.0206   -9.5938    2.1732 C   0  0  0  0  0  0  0  0  0  0  0  0
    3.1241  -10.7548    3.1861 C   0  0  2  0  0  0  0  0  0  0  0  0
    1.7207  -11.3412    3.4408 C   0  0  0  0  0  0  0  0  0  0  0  0
    0.8143  -10.2447    4.0237 C   0  0  1  0  0  0  0  0  0  0  0  0
    1.4056   -9.7366    5.3525 C   0  0  0  0  0  0  0  0  0  0  0  0
    2.8035   -9.1450    5.0895 C   0  0  1  0  0  0  0  0  0  0  0  0
    3.7273  -10.2335    4.5083 C   0  0  0  0  0  0  0  0  0  0  0  0
    2.6917   -7.9762    4.0882 C   0  0  0  0  0  0  0  0  0  0  0  0
    0.7067   -9.0797    3.0184 C   0  0  0  0  0  0  0  0  0  0  0  0
    3.1563   -6.6226    1.4846 O   0  0  0  0  0  0  0  0  0  0  0  0
    5.0261   -4.8448    0.2749 C   0  0  0  0  0  0  0  0  0  0  0  0
    5.8781   -3.8682   -0.2698 C   0  0  0  0  0  0  0  0  0  0  0  0
    5.4415   -2.8044   -0.9759 N   0  0  0  0  0  0  0  0  0  0  0  0
    3.7874   -1.8198   -1.7281 H   0  0  0  0  0  0  0  0  0  0  0  0
    2.1189   -3.4403   -0.8520 H   0  0  0  0  0  0  0  0  0  0  0  0
    2.6327   -9.9648    1.2233 H   0  0  0  0  0  0  0  0  0  0  0  0
    4.0197   -9.2088    1.9670 H   0  0  0  0  0  0  0  0  0  0  0  0
    3.7690  -11.5323    2.7802 H   0  0  0  0  0  0  0  0  0  0  0  0
    1.2879  -11.7017    2.5108 H   0  0  0  0  0  0  0  0  0  0  0  0
    1.7752  -12.1986    4.1125 H   0  0  0  0  0  0  0  0  0  0  0  0
   -0.1756  -10.6564    4.2009 H   0  0  0  0  0  0  0  0  0  0  0  0
    0.7525   -8.9835    5.7908 H   0  0  0  0  0  0  0  0  0  0  0  0
    1.4676  -10.5529    6.0718 H   0  0  0  0  0  0  0  0  0  0  0  0
    3.2233   -8.7819    6.0272 H   0  0  0  0  0  0  0  0  0  0  0  0
    3.8491  -11.0474    5.2232 H   0  0  0  0  0  0  0  0  0  0  0  0
    4.7218   -9.8261    4.3296 H   0  0  0  0  0  0  0  0  0  0  0  0
    3.6792   -7.5381    3.9384 H   0  0  0  0  0  0  0  0  0  0  0  0
    2.0630   -7.1869    4.5043 H   0  0  0  0  0  0  0  0  0  0  0  0
    0.0335   -8.3215    3.4195 H   0  0  0  0  0  0  0  0  0  0  0  0
    0.2516   -9.4423    2.0953 H   0  0  0  0  0  0  0  0  0  0  0  0
    5.4365   -5.6849    0.8154 H   0  0  0  0  0  0  0  0  0  0  0  0
    6.9466   -3.9458   -0.1445 H   0  0  0  0  0  0  0  0  0  0  0  0
  1 21  2  0
  1  2  1  0
  1 22  1  0
  2  3  2  0
  2 23  1  0
  3  4  1  0
  3 19  1  0
  4 18  1  0
  4  5  2  0
  5  6  1  0
  6  7  2  0
  8  7  1  6
  7 18  1  0
  8 16  1  0
  8 17  1  0
  8  9  1  0
  9 10  1  0
  9 24  1  0
  9 25  1  0
 10 15  1  0
 10 11  1  0
 10 26  1  6
 11 12  1  0
 11 27  1  0
 11 28  1  0
 12 13  1  0
 12 17  1  0
 12 29  1  1
 13 14  1  0
 13 30  1  0
 13 31  1  0
 14 15  1  0
 14 16  1  0
 14 32  1  1
 15 33  1  0
 15 34  1  0
 16 35  1  0
 16 36  1  0
 17 37  1  0
 17 38  1  0
 19 20  2  0
 19 39  1  0
 20 21  1  0
 20 40  1  0
M  END
>  <i_m_ct_stereo_status>  (352) 
1

>  <s_m_source_file>  (352) 
/var/tmp/pbs.5076255.sched01/tmph7d3_0rd/117btfl79hs.sdf

>  <i_m_source_file_index>  (352) 
38

>  <i_lp_mmshare_version>  (352) 
48012

>  <i_f3d_flags>  (352) 
0

>  <s_epik_input>  (352) 
W2NIXTFbY0hdbltjSF1bY0hdYzEtYzJubmMobzIpQzM0W0NIMl1bQ0BASF01W0NIMl1bQ0BIXShbQ0gyXTQpW0NIMl1bQ0BASF0oW0NIMl01KVtDSDJdMw==

>  <s_epik_cmdline>  (352) 
J2VwaWtfcHl0aG9uJywgJy1waHQnLCAnMi4wJywgJy1waCcsICc3LjAnLCAnLXRuJywgJzgnLCAnLW1hJywgJzIwMCcsICctaW1hZScsICc8aW5maWxlLm1hZT4nLCAnLW9tYWUnLCAnPG91dGZpbGUubWFlPic=

>  <r_lp_tautomer_probability>  (352) 
1

>  <r_epik_Ionization_Penalty>  (352) 
0.000283514

>  <r_epik_Ionization_Penalty_Charging>  (352) 
0

>  <r_epik_Ionization_Penalty_Neutral>  (352) 
0.000283514

>  <r_epik_State_Penalty>  (352) 
-0

>  <r_epik_Charging_Adjusted_Penalty>  (352) 
0

>  <i_epik_Tot_Q>  (352) 
0

>  <i_epik_Tot_abs_Q>  (352) 
0

>  <s_lp_Force_Field>  (352) 
OPLS3e

>  <r_lp_Energy>  (352) 
17.593

>  <b_lp_Chiralities_Consistent>  (352) 
1

>  <s_lp_Variant>  (352) 
115:0-1

>  <s_i_glide_gridfile>  (352) 
pfpi4k_grid

>  <i_i_glide_lignum>  (352) 
38

>  <i_i_glide_rotatable_bonds>  (352) 
2

>  <r_i_docking_score>  (352) 
-3.46332

>  <r_i_glide_ligand_efficiency>  (352) 
-0.16492

>  <r_i_glide_ligand_efficiency_sa>  (352) 
-0.455002

>  <r_i_glide_ligand_efficiency_ln>  (352) 
-0.8563

>  <r_i_glide_gscore>  (352) 
-3.46332

>  <r_i_glide_lipo>  (352) 
-0.316657

>  <r_i_glide_hbond>  (352) 
0

>  <r_i_glide_metal>  (352) 
-0

>  <r_i_glide_rewards>  (352) 
-1.49078

>  <r_i_glide_evdw>  (352) 
-24.456

>  <r_i_glide_ecoul>  (352) 
-4.75743

>  <r_i_glide_erotb>  (352) 
0.456688

>  <r_i_glide_esite>  (352) 
-0.176159

>  <r_i_glide_emodel>  (352) 
-36.3022

>  <r_i_glide_energy>  (352) 
-29.2134

>  <r_i_glide_einternal>  (352) 
0.172316

>  <r_i_glide_intrahb_reward>  (352) 
-0

>  <i_i_glide_confnum>  (352) 
4

>  <i_i_glide_posenum>  (352) 
15

>  <r_i_glide_eff_state_penalty>  (352) 
0

>  <ligand_id>  (352) 
115

>  <original_smiles>  (352) 
c1cc(-c2nnc(C34CC5CC(CC(C5)C3)C4)o2)ccn1

>  <smiles>  (352) 
[H]c1nc([H])c([H])c(-c2nnc(C34C([H])([H])C5([H])C([H])([H])C([H])(C([H])([H])C([H])(C5([H])[H])C3([H])[H])C4([H])[H])o2)c1[H]

$$$$
115:0:2
     RDKit          3D

 40 44  0  0  1  0  0  0  0  0999 V2000
    1.2221  -10.7195    3.5768 C   0  0  0  0  0  0  0  0  0  0  0  0
    1.0427   -9.5104    2.8772 C   0  0  0  0  0  0  0  0  0  0  0  0
    2.1834   -8.8301    2.4040 C   0  0  0  0  0  0  0  0  0  0  0  0
    2.0558   -7.5599    1.6949 C   0  0  0  0  0  0  0  0  0  0  0  0
    0.9794   -7.0432    1.0902 N   0  0  0  0  0  0  0  0  0  0  0  0
    1.3902   -5.8580    0.5367 N   0  0  0  0  0  0  0  0  0  0  0  0
    2.6807   -5.7226    0.8554 C   0  0  0  0  0  0  0  0  0  0  0  0
    3.5749   -4.5453    0.5789 C   0  0  1  0  0  0  0  0  0  0  0  0
    4.9465   -5.0539    0.0587 C   0  0  0  0  0  0  0  0  0  0  0  0
    5.8804   -3.8670   -0.2384 C   0  0  2  0  0  0  0  0  0  0  0  0
    6.0999   -3.0592    1.0560 C   0  0  0  0  0  0  0  0  0  0  0  0
    4.7452   -2.5130    1.5506 C   0  0  1  0  0  0  0  0  0  0  0  0
    4.1251   -1.6088    0.4649 C   0  0  0  0  0  0  0  0  0  0  0  0
    3.9032   -2.4361   -0.8173 C   0  0  1  0  0  0  0  0  0  0  0  0
    5.2492   -2.9811   -1.3299 C   0  0  0  0  0  0  0  0  0  0  0  0
    2.9619   -3.6165   -0.5100 C   0  0  0  0  0  0  0  0  0  0  0  0
    3.7965   -3.6937    1.8573 C   0  0  0  0  0  0  0  0  0  0  0  0
    3.1453   -6.7515    1.6129 O   0  0  0  0  0  0  0  0  0  0  0  0
    3.4555   -9.3894    2.6599 C   0  0  0  0  0  0  0  0  0  0  0  0
    3.5216  -10.6087    3.3626 C   0  0  0  0  0  0  0  0  0  0  0  0
    2.4338  -11.2552    3.8188 N   0  0  0  0  0  0  0  0  0  0  0  0
    0.3716  -11.2659    3.9569 H   0  0  0  0  0  0  0  0  0  0  0  0
    0.0484   -9.1212    2.7052 H   0  0  0  0  0  0  0  0  0  0  0  0
    5.4158   -5.7074    0.7971 H   0  0  0  0  0  0  0  0  0  0  0  0
    4.8025   -5.6558   -0.8405 H   0  0  0  0  0  0  0  0  0  0  0  0
    6.8380   -4.2488   -0.5894 H   0  0  0  0  0  0  0  0  0  0  0  0
    6.5447   -3.6966    1.8202 H   0  0  0  0  0  0  0  0  0  0  0  0
    6.8025   -2.2462    0.8809 H   0  0  0  0  0  0  0  0  0  0  0  0
    4.9015   -1.9305    2.4577 H   0  0  0  0  0  0  0  0  0  0  0  0
    3.1772   -1.1952    0.8103 H   0  0  0  0  0  0  0  0  0  0  0  0
    4.7746   -0.7589    0.2566 H   0  0  0  0  0  0  0  0  0  0  0  0
    3.4494   -1.8032   -1.5792 H   0  0  0  0  0  0  0  0  0  0  0  0
    5.9149   -2.1620   -1.5933 H   0  0  0  0  0  0  0  0  0  0  0  0
    5.0929   -3.5664   -2.2373 H   0  0  0  0  0  0  0  0  0  0  0  0
    2.7619   -4.1789   -1.4235 H   0  0  0  0  0  0  0  0  0  0  0  0
    1.9979   -3.2229   -0.1819 H   0  0  0  0  0  0  0  0  0  0  0  0
    2.8426   -3.3183    2.2343 H   0  0  0  0  0  0  0  0  0  0  0  0
    4.2178   -4.3088    2.6544 H   0  0  0  0  0  0  0  0  0  0  0  0
    4.3646   -8.9123    2.3266 H   0  0  0  0  0  0  0  0  0  0  0  0
    4.4730  -11.0710    3.5751 H   0  0  0  0  0  0  0  0  0  0  0  0
  1 21  2  0
  1  2  1  0
  1 22  1  0
  2  3  2  0
  2 23  1  0
  3  4  1  0
  3 19  1  0
  4 18  1  0
  4  5  2  0
  5  6  1  0
  6  7  2  0
  8  7  1  1
  7 18  1  0
  8 16  1  0
  8 17  1  0
  8  9  1  0
  9 10  1  0
  9 24  1  0
  9 25  1  0
 10 15  1  0
 10 11  1  0
 10 26  1  6
 11 12  1  0
 11 27  1  0
 11 28  1  0
 12 13  1  0
 12 17  1  0
 12 29  1  1
 13 14  1  0
 13 30  1  0
 13 31  1  0
 14 15  1  0
 14 16  1  0
 14 32  1  6
 15 33  1  0
 15 34  1  0
 16 35  1  0
 16 36  1  0
 17 37  1  0
 17 38  1  0
 19 20  2  0
 19 39  1  0
 20 21  1  0
 20 40  1  0
M  END
>  <i_m_ct_stereo_status>  (353) 
1

>  <s_m_source_file>  (353) 
/var/tmp/pbs.5076255.sched01/tmph7d3_0rd/117btfl79hs.sdf

>  <i_m_source_file_index>  (353) 
38

>  <i_lp_mmshare_version>  (353) 
48012

>  <i_f3d_flags>  (353) 
0

>  <s_epik_input>  (353) 
W2NIXTFbY0hdbltjSF1bY0hdYzEtYzJubmMobzIpQzM0W0NIMl1bQ0BASF01W0NIMl1bQ0BIXShbQ0gyXTQpW0NIMl1bQ0BASF0oW0NIMl01KVtDSDJdMw==

>  <s_epik_cmdline>  (353) 
J2VwaWtfcHl0aG9uJywgJy1waHQnLCAnMi4wJywgJy1waCcsICc3LjAnLCAnLXRuJywgJzgnLCAnLW1hJywgJzIwMCcsICctaW1hZScsICc8aW5maWxlLm1hZT4nLCAnLW9tYWUnLCAnPG91dGZpbGUubWFlPic=

>  <r_lp_tautomer_probability>  (353) 
1

>  <r_epik_Ionization_Penalty>  (353) 
0.000283514

>  <r_epik_Ionization_Penalty_Charging>  (353) 
0

>  <r_epik_Ionization_Penalty_Neutral>  (353) 
0.000283514

>  <r_epik_State_Penalty>  (353) 
-0

>  <r_epik_Charging_Adjusted_Penalty>  (353) 
0

>  <i_epik_Tot_Q>  (353) 
0

>  <i_epik_Tot_abs_Q>  (353) 
0

>  <s_lp_Force_Field>  (353) 
OPLS3e

>  <r_lp_Energy>  (353) 
17.593

>  <b_lp_Chiralities_Consistent>  (353) 
1

>  <s_lp_Variant>  (353) 
115:0-1

>  <s_i_glide_gridfile>  (353) 
pfpi4k_grid

>  <i_i_glide_lignum>  (353) 
38

>  <i_i_glide_rotatable_bonds>  (353) 
2

>  <r_i_docking_score>  (353) 
-3.39955

>  <r_i_glide_ligand_efficiency>  (353) 
-0.161883

>  <r_i_glide_ligand_efficiency_sa>  (353) 
-0.446624

>  <r_i_glide_ligand_efficiency_ln>  (353) 
-0.840532

>  <r_i_glide_gscore>  (353) 
-3.39955

>  <r_i_glide_lipo>  (353) 
-0.424336

>  <r_i_glide_hbond>  (353) 
0

>  <r_i_glide_metal>  (353) 
-0

>  <r_i_glide_rewards>  (353) 
-1.49078

>  <r_i_glide_evdw>  (353) 
-26.1943

>  <r_i_glide_ecoul>  (353) 
-3.08417

>  <r_i_glide_erotb>  (353) 
0.456688

>  <r_i_glide_esite>  (353) 
-0.168786

>  <r_i_glide_emodel>  (353) 
-35.9718

>  <r_i_glide_energy>  (353) 
-29.2784

>  <r_i_glide_einternal>  (353) 
0.514427

>  <r_i_glide_intrahb_reward>  (353) 
-0

>  <i_i_glide_confnum>  (353) 
1

>  <i_i_glide_posenum>  (353) 
2

>  <r_i_glide_eff_state_penalty>  (353) 
0

>  <ligand_id>  (353) 
115

>  <original_smiles>  (353) 
c1cc(-c2nnc(C34CC5CC(CC(C5)C3)C4)o2)ccn1

>  <smiles>  (353) 
[H]c1nc([H])c([H])c(-c2nnc(C34C([H])([H])C5([H])C([H])([H])C([H])(C([H])([H])C([H])(C5([H])[H])C3([H])[H])C4([H])[H])o2)c1[H]

$$$$
