0:0:0
     RDKit          3D

 45 47  0  0  1  0  0  0  0  0999 V2000
    5.6410   -1.2404    2.7303 C   0  0  0  0  0  0  0  0  0  0  0  0
    5.3173   -1.4262    1.4353 C   0  0  0  0  0  0  0  0  0  0  0  0
    4.4909   -0.3907    0.7462 C   0  0  0  0  0  0  0  0  0  0  0  0
    3.1720   -1.0231    0.3687 C   0  0  0  0  0  0  0  0  0  0  0  0
    3.3213   -2.2316   -0.5649 C   0  0  1  0  0  0  0  0  0  0  0  0
    3.6048   -1.9540   -2.0433 C   0  0  0  0  0  0  0  0  0  0  0  0
    3.8418   -0.8355   -2.7081 C   0  0  0  0  0  0  0  0  0  0  0  0
    4.0970   -1.1441   -4.1527 C   0  0  0  0  0  0  0  0  0  0  0  0
    4.2497   -2.5658   -4.2086 O   0  0  0  0  0  0  0  0  0  0  0  0
    3.7181   -3.1052   -2.9941 C   0  0  2  0  0  0  0  0  0  0  0  0
    2.3384   -3.6291   -3.4017 C   0  0  0  0  0  0  0  0  0  0  0  0
    4.6704   -4.1568   -2.3990 C   0  0  0  0  0  0  0  0  0  0  0  0
    4.3289   -4.5025   -0.9197 C   0  0  1  0  0  0  0  0  0  0  0  0
    5.1567   -5.5679   -0.4784 O   0  0  0  0  0  0  0  0  0  0  0  0
    4.6300   -6.3793    0.5578 C   0  0  0  0  0  0  0  0  0  0  0  0
    4.2882   -3.2773    0.0379 C   0  0  1  0  0  0  0  0  0  0  0  0
    5.6400   -2.6776    0.5993 C   0  0  0  0  0  0  0  0  0  0  0  0
    6.6367   -2.2521   -0.5000 C   0  0  0  0  0  0  0  0  0  0  0  0
    6.3638   -3.7346    1.4664 C   0  0  0  0  0  0  0  0  0  0  0  0
    6.1912   -1.9742    3.2855 H   0  0  0  0  0  0  0  0  0  0  0  0
    5.3373   -0.3421    3.2479 H   0  0  0  0  0  0  0  0  0  0  0  0
    4.3024    0.4718    1.3868 H   0  0  0  0  0  0  0  0  0  0  0  0
    5.0073   -0.0198   -0.1362 H   0  0  0  0  0  0  0  0  0  0  0  0
    2.6272   -1.3288    1.2703 H   0  0  0  0  0  0  0  0  0  0  0  0
    2.6004   -0.2626   -0.0851 H   0  0  0  0  0  0  0  0  0  0  0  0
    2.3321   -2.6920   -0.5886 H   0  0  0  0  0  0  0  0  0  0  0  0
    3.8419    0.1614   -2.3230 H   0  0  0  0  0  0  0  0  0  0  0  0
    3.2452   -0.8310   -4.7629 H   0  0  0  0  0  0  0  0  0  0  0  0
    5.0025   -0.6619   -4.5214 H   0  0  0  0  0  0  0  0  0  0  0  0
    1.8134   -4.0511   -2.5453 H   0  0  0  0  0  0  0  0  0  0  0  0
    2.4299   -4.3988   -4.1705 H   0  0  0  0  0  0  0  0  0  0  0  0
    1.7172   -2.8364   -3.8238 H   0  0  0  0  0  0  0  0  0  0  0  0
    4.6322   -5.0441   -3.0336 H   0  0  0  0  0  0  0  0  0  0  0  0
    5.6936   -3.8012   -2.4703 H   0  0  0  0  0  0  0  0  0  0  0  0
    3.3054   -4.8678   -0.8900 H   0  0  0  0  0  0  0  0  0  0  0  0
    5.3641   -7.1457    0.8015 H   0  0  0  0  0  0  0  0  0  0  0  0
    3.7122   -6.8791    0.2635 H   0  0  0  0  0  0  0  0  0  0  0  0
    4.4391   -5.8122    1.4642 H   0  0  0  0  0  0  0  0  0  0  0  0
    3.7720   -3.6354    0.9268 H   0  0  0  0  0  0  0  0  0  0  0  0
    7.1029   -3.1102   -0.9830 H   0  0  0  0  0  0  0  0  0  0  0  0
    7.4440   -1.6646   -0.0596 H   0  0  0  0  0  0  0  0  0  0  0  0
    6.1640   -1.6434   -1.2679 H   0  0  0  0  0  0  0  0  0  0  0  0
    6.7260   -4.5813    0.8885 H   0  0  0  0  0  0  0  0  0  0  0  0
    5.7232   -4.1026    2.2688 H   0  0  0  0  0  0  0  0  0  0  0  0
    7.2613   -3.3197    1.9068 H   0  0  0  0  0  0  0  0  0  0  0  0
  1  2  2  0
  1 20  1  0
  1 21  1  0
  2 17  1  0
  2  3  1  0
  3  4  1  0
  3 22  1  0
  3 23  1  0
  4  5  1  0
  4 24  1  0
  4 25  1  0
  5 16  1  0
  5  6  1  0
  5 26  1  6
  6 10  1  0
  6  7  2  0
  7  8  1  0
  7 27  1  0
  8  9  1  0
  8 28  1  0
  8 29  1  0
  9 10  1  0
 10 11  1  6
 10 12  1  0
 11 30  1  0
 11 31  1  0
 11 32  1  0
 12 13  1  0
 12 33  1  0
 12 34  1  0
 13 14  1  0
 13 16  1  0
 13 35  1  6
 14 15  1  0
 15 36  1  0
 15 37  1  0
 15 38  1  0
 16 17  1  0
 16 39  1  1
 17 18  1  0
 17 19  1  0
 18 40  1  0
 18 41  1  0
 18 42  1  0
 19 43  1  0
 19 44  1  0
 19 45  1  0
M  END
>  <i_m_ct_stereo_status>  (1) 
1

>  <s_m_source_file>  (1) 
/var/tmp/pbs.5076255.sched01/tmp4ovtozgc/0905bh7x9.sdf

>  <i_m_source_file_index>  (1) 
1

>  <i_lp_mmshare_version>  (1) 
48012

>  <i_f3d_flags>  (1) 
0

>  <s_epik_input>  (1) 
W0NIMl0xW0NIMl1DKD1bQ0gyXSlDKFtDSDNdKShbQ0gzXSlbQ0BIXShbQ0BASF0oW0NIMl0yKU9bQ0gzXSlbQ0BASF0xQyg9W0NIXVtDSDJdTzMpW0NAXTIzW0NIM10=

>  <s_epik_cmdline>  (1) 
J2VwaWtfcHl0aG9uJywgJy1waHQnLCAnMi4wJywgJy1waCcsICc3LjAnLCAnLXRuJywgJzgnLCAnLW1hJywgJzIwMCcsICctaW1hZScsICc8aW5maWxlLm1hZT4nLCAnLW9tYWUnLCAnPG91dGZpbGUubWFlPic=

>  <r_lp_tautomer_probability>  (1) 
1

>  <r_epik_Ionization_Penalty>  (1) 
1.29152e-11

>  <r_epik_Ionization_Penalty_Charging>  (1) 
0

>  <r_epik_Ionization_Penalty_Neutral>  (1) 
1.29152e-11

>  <r_epik_State_Penalty>  (1) 
-0

>  <r_epik_Charging_Adjusted_Penalty>  (1) 
0

>  <i_epik_Tot_Q>  (1) 
0

>  <i_epik_Tot_abs_Q>  (1) 
0

>  <s_lp_Force_Field>  (1) 
OPLS3e

>  <r_lp_Energy>  (1) 
18.6666

>  <b_lp_Chiralities_Consistent>  (1) 
1

>  <s_lp_Variant>  (1) 
0:0-1

>  <s_i_glide_gridfile>  (1) 
pfpi4k_grid

>  <i_i_glide_lignum>  (1) 
1

>  <i_i_glide_rotatable_bonds>  (1) 
1

>  <r_i_docking_score>  (1) 
-3.89616

>  <r_i_glide_ligand_efficiency>  (1) 
-0.205061

>  <r_i_glide_ligand_efficiency_sa>  (1) 
-0.547185

>  <r_i_glide_ligand_efficiency_ln>  (1) 
-0.98776

>  <r_i_glide_gscore>  (1) 
-3.89616

>  <r_i_glide_lipo>  (1) 
-0.857126

>  <r_i_glide_hbond>  (1) 
-0.304346

>  <r_i_glide_metal>  (1) 
-0

>  <r_i_glide_rewards>  (1) 
-1.62009

>  <r_i_glide_evdw>  (1) 
-14.5279

>  <r_i_glide_ecoul>  (1) 
-2.58803

>  <r_i_glide_erotb>  (1) 
0

>  <r_i_glide_esite>  (1) 
0

>  <r_i_glide_emodel>  (1) 
-19.1452

>  <r_i_glide_energy>  (1) 
-17.1159

>  <r_i_glide_einternal>  (1) 
0.012079

>  <r_i_glide_intrahb_reward>  (1) 
-0

>  <i_i_glide_confnum>  (1) 
2

>  <i_i_glide_posenum>  (1) 
27

>  <r_i_glide_eff_state_penalty>  (1) 
0

>  <ligand_id>  (1) 
0

>  <original_smiles>  (1) 
C=C1CCC2C3=CCOC3(C)CC(OC)C2C1(C)C

>  <smiles>  (1) 
[H]C([H])=C1C([H])([H])C([H])([H])C2([H])C3=C([H])C([H])([H])OC3(C([H])([H])[H])C([H])([H])C([H])(OC([H])([H])[H])C2([H])C1(C([H])([H])[H])C([H])([H])[H]

$$$$
1:0:0
     RDKit          3D

 36 37  0  0  1  0  0  0  0  0999 V2000
    3.7208   -0.0519   -4.6106 C   0  0  0  0  0  0  0  0  0  0  0  0
    3.9254   -0.0462   -3.0939 C   0  0  0  0  0  0  0  0  0  0  0  0
    4.7969   -1.1062   -2.6975 O   0  0  0  0  0  0  0  0  0  0  0  0
    4.8364   -1.5783   -1.3615 C   0  0  1  0  0  0  0  0  0  0  0  0
    5.5196   -0.6422   -0.5698 O   0  0  0  0  0  0  0  0  0  0  0  0
    5.4124   -0.6821    0.8535 C   0  0  0  0  0  0  0  0  0  0  0  0
    3.3707   -1.8052   -0.8722 C   0  0  0  0  0  0  0  0  0  0  0  0
    2.7866   -3.1115   -1.4894 C   0  0  1  0  0  0  0  0  0  0  0  0
    2.8869   -3.1982   -3.0247 C   0  0  0  0  0  0  0  0  0  0  0  0
    4.2912   -3.8152   -3.3003 C   0  0  0  0  0  0  0  0  0  0  0  0
    4.8519   -4.0770   -1.8881 C   0  0  1  0  0  0  0  0  0  0  0  0
    5.6829   -2.8770   -1.3681 C   0  0  0  0  0  0  0  0  0  0  0  0
    3.6296   -4.2406   -1.0865 N   0  0  1  0  0  0  0  0  0  0  0  0
    3.7686   -4.5322    0.3642 C   0  0  0  0  0  0  0  0  0  0  0  0
    2.9997    0.7077   -4.9203 H   0  0  0  0  0  0  0  0  0  0  0  0
    3.3732   -1.0167   -4.9894 H   0  0  0  0  0  0  0  0  0  0  0  0
    4.6608    0.1829   -5.0976 H   0  0  0  0  0  0  0  0  0  0  0  0
    4.3442    0.9030   -2.7735 H   0  0  0  0  0  0  0  0  0  0  0  0
    2.9377   -0.1352   -2.7140 H   0  0  0  0  0  0  0  0  0  0  0  0
    6.0969    0.0521    1.2783 H   0  0  0  0  0  0  0  0  0  0  0  0
    5.6811   -1.6516    1.2733 H   0  0  0  0  0  0  0  0  0  0  0  0
    4.4175   -0.4024    1.1999 H   0  0  0  0  0  0  0  0  0  0  0  0
    3.3308   -1.9434    0.2092 H   0  0  0  0  0  0  0  0  0  0  0  0
    2.7774   -0.9312   -1.0486 H   0  0  0  0  0  0  0  0  0  0  0  0
    1.7570   -3.2595   -1.1617 H   0  0  0  0  0  0  0  0  0  0  0  0
    2.1153   -3.8555   -3.4361 H   0  0  0  0  0  0  0  0  0  0  0  0
    2.7243   -2.2203   -3.4756 H   0  0  0  0  0  0  0  0  0  0  0  0
    4.2105   -4.7357   -3.8792 H   0  0  0  0  0  0  0  0  0  0  0  0
    4.9511   -3.1753   -3.8923 H   0  0  0  0  0  0  0  0  0  0  0  0
    5.4071   -5.0113   -1.8420 H   0  0  0  0  0  0  0  0  0  0  0  0
    6.5888   -2.7194   -1.9555 H   0  0  0  0  0  0  0  0  0  0  0  0
    6.0335   -3.0943   -0.3607 H   0  0  0  0  0  0  0  0  0  0  0  0
    4.2829   -3.7516    0.9307 H   0  0  0  0  0  0  0  0  0  0  0  0
    4.3270   -5.4575    0.5267 H   0  0  0  0  0  0  0  0  0  0  0  0
    2.7819   -4.6551    0.8187 H   0  0  0  0  0  0  0  0  0  0  0  0
    3.2047   -5.0611   -1.5087 H   0  0  0  0  0  0  0  0  0  0  0  0
  1  2  1  0
  1 15  1  0
  1 16  1  0
  1 17  1  0
  2  3  1  0
  2 18  1  0
  2 19  1  0
  4  3  1  6
  4 12  1  0
  4  5  1  0
  4  7  1  0
  5  6  1  0
  6 20  1  0
  6 21  1  0
  6 22  1  0
  7  8  1  0
  7 23  1  0
  7 24  1  0
  8 13  1  0
  8  9  1  0
  8 25  1  6
  9 10  1  0
  9 26  1  0
  9 27  1  0
 10 11  1  0
 10 28  1  0
 10 29  1  0
 11 12  1  0
 11 13  1  0
 11 30  1  6
 12 31  1  0
 12 32  1  0
 13 14  1  0
 13 36  1  6
 14 33  1  0
 14 34  1  0
 14 35  1  0
M  CHG  1  13   1
M  END
>  <i_m_ct_stereo_status>  (2) 
1

>  <s_m_source_file>  (2) 
/var/tmp/pbs.5076255.sched01/tmp4ovtozgc/0905bh7x9.sdf

>  <i_m_source_file_index>  (2) 
2

>  <i_lp_mmshare_version>  (2) 
48012

>  <i_f3d_flags>  (2) 
0

>  <s_epik_input>  (2) 
W0NIM11bQ0gyXU9bQ0BAXShPW0NIM10pKFtDSDJdW0NAQEhdMTIpW0NIMl1bQ0BIXShbQ0gyXVtDSDJdMSlOMltDSDNd

>  <s_epik_cmdline>  (2) 
J2VwaWtfcHl0aG9uJywgJy1waHQnLCAnMi4wJywgJy1waCcsICc3LjAnLCAnLXRuJywgJzgnLCAnLW1hJywgJzIwMCcsICctaW1hZScsICc8aW5maWxlLm1hZT4nLCAnLW9tYWUnLCAnPG91dGZpbGUubWFlPic=

>  <r_epik_Ionization_Penalty>  (2) 
0.0119161

>  <r_epik_Ionization_Penalty_Charging>  (2) 
0.0119161

>  <r_epik_Ionization_Penalty_Neutral>  (2) 
7.03837e-14

>  <r_epik_State_Penalty>  (2) 
0.00919649

>  <r_epik_Charging_Adjusted_Penalty>  (2) 
0.0211126

>  <i_epik_Tot_Q>  (2) 
1

>  <i_epik_Tot_abs_Q>  (2) 
1

>  <s_lp_Force_Field>  (2) 
OPLS3e

>  <r_lp_Energy>  (2) 
33.4856

>  <b_lp_Chiralities_Consistent>  (2) 
1

>  <s_lp_Variant>  (2) 
1:0-1

>  <s_i_glide_gridfile>  (2) 
pfpi4k_grid

>  <i_i_glide_lignum>  (2) 
2

>  <i_i_glide_rotatable_bonds>  (2) 
3

>  <r_i_docking_score>  (2) 
-4.15863

>  <r_i_glide_ligand_efficiency>  (2) 
-0.297045

>  <r_i_glide_ligand_efficiency_sa>  (2) 
-0.715921

>  <r_i_glide_ligand_efficiency_ln>  (2) 
-1.14278

>  <r_i_glide_gscore>  (2) 
-4.15863

>  <r_i_glide_lipo>  (2) 
-0.605849

>  <r_i_glide_hbond>  (2) 
0

>  <r_i_glide_metal>  (2) 
-0

>  <r_i_glide_rewards>  (2) 
-2.04342

>  <r_i_glide_evdw>  (2) 
-13.9445

>  <r_i_glide_ecoul>  (2) 
-7.62249

>  <r_i_glide_erotb>  (2) 
0.407322

>  <r_i_glide_esite>  (2) 
-0.0760835

>  <r_i_glide_emodel>  (2) 
-21.6071

>  <r_i_glide_energy>  (2) 
-21.567

>  <r_i_glide_einternal>  (2) 
6.75962

>  <r_i_glide_intrahb_reward>  (2) 
-0

>  <i_i_glide_confnum>  (2) 
1

>  <i_i_glide_posenum>  (2) 
36

>  <r_i_glide_eff_state_penalty>  (2) 
0

>  <ligand_id>  (2) 
1

>  <original_smiles>  (2) 
CCOC1(OC)CC2CCC(C1)N2C

>  <smiles>  (2) 
[H]C([H])([H])OC1(OC([H])([H])C([H])([H])[H])C([H])([H])C2([H])C([H])([H])C([H])([H])C([H])(C1([H])[H])[N+]2([H])C([H])([H])[H]

$$$$
1:0:1
     RDKit          3D

 36 37  0  0  1  0  0  0  0  0999 V2000
    4.0567    1.2060   -4.5298 C   0  0  0  0  0  0  0  0  0  0  0  0
    3.3022   -0.0469   -4.1217 C   0  0  0  0  0  0  0  0  0  0  0  0
    4.2320   -0.9933   -3.5846 O   0  0  0  0  0  0  0  0  0  0  0  0
    3.7287   -2.2387   -3.1720 C   0  0  1  0  0  0  0  0  0  0  0  0
    2.9232   -2.6782   -4.2148 O   0  0  0  0  0  0  0  0  0  0  0  0
    2.2990   -3.9272   -4.1720 C   0  0  0  0  0  0  0  0  0  0  0  0
    4.9579   -3.1825   -2.9743 C   0  0  0  0  0  0  0  0  0  0  0  0
    5.6196   -2.9641   -1.5846 C   0  0  1  0  0  0  0  0  0  0  0  0
    6.0305   -1.5056   -1.3581 C   0  0  0  0  0  0  0  0  0  0  0  0
    4.8210   -0.8354   -0.6822 C   0  0  0  0  0  0  0  0  0  0  0  0
    3.7957   -1.9727   -0.5914 C   0  0  1  0  0  0  0  0  0  0  0  0
    2.9022   -2.0494   -1.8573 C   0  0  0  0  0  0  0  0  0  0  0  0
    4.6614   -3.1598   -0.4822 N   0  0  1  0  0  0  0  0  0  0  0  0
    4.0077   -4.4872   -0.3340 C   0  0  0  0  0  0  0  0  0  0  0  0
    3.3899    1.9455   -4.9668 H   0  0  0  0  0  0  0  0  0  0  0  0
    4.7825    0.9471   -5.2986 H   0  0  0  0  0  0  0  0  0  0  0  0
    4.5807    1.6594   -3.6862 H   0  0  0  0  0  0  0  0  0  0  0  0
    2.5409    0.2275   -3.3997 H   0  0  0  0  0  0  0  0  0  0  0  0
    2.7860   -0.4160   -5.0075 H   0  0  0  0  0  0  0  0  0  0  0  0
    1.5705   -3.9125   -4.9837 H   0  0  0  0  0  0  0  0  0  0  0  0
    1.8118   -4.1811   -3.2438 H   0  0  0  0  0  0  0  0  0  0  0  0
    3.0518   -4.6906   -4.3311 H   0  0  0  0  0  0  0  0  0  0  0  0
    4.6738   -4.2308   -3.0113 H   0  0  0  0  0  0  0  0  0  0  0  0
    5.6490   -3.0360   -3.8052 H   0  0  0  0  0  0  0  0  0  0  0  0
    6.4699   -3.6431   -1.4857 H   0  0  0  0  0  0  0  0  0  0  0  0
    6.8928   -1.4781   -0.6934 H   0  0  0  0  0  0  0  0  0  0  0  0
    6.2314   -1.0434   -2.3163 H   0  0  0  0  0  0  0  0  0  0  0  0
    5.0903   -0.4690    0.3109 H   0  0  0  0  0  0  0  0  0  0  0  0
    4.4294    0.0099   -1.2491 H   0  0  0  0  0  0  0  0  0  0  0  0
    3.1748   -1.8674    0.3019 H   0  0  0  0  0  0  0  0  0  0  0  0
    2.2896   -1.1735   -1.9841 H   0  0  0  0  0  0  0  0  0  0  0  0
    2.1868   -2.8443   -1.6745 H   0  0  0  0  0  0  0  0  0  0  0  0
    3.3257   -4.6413   -1.1445 H   0  0  0  0  0  0  0  0  0  0  0  0
    3.3936   -4.5612    0.5596 H   0  0  0  0  0  0  0  0  0  0  0  0
    4.7152   -5.3157   -0.3161 H   0  0  0  0  0  0  0  0  0  0  0  0
    5.2194   -2.9823    0.3431 H   0  0  0  0  0  0  0  0  0  0  0  0
  1  2  1  0
  1 15  1  0
  1 16  1  0
  1 17  1  0
  2  3  1  0
  2 18  1  0
  2 19  1  0
  4  3  1  6
  4 12  1  0
  4  5  1  0
  4  7  1  0
  5  6  1  0
  6 20  1  0
  6 21  1  0
  6 22  1  0
  7  8  1  0
  7 23  1  0
  7 24  1  0
  8 13  1  0
  8  9  1  0
  8 25  1  1
  9 10  1  0
  9 26  1  0
  9 27  1  0
 10 11  1  0
 10 28  1  0
 10 29  1  0
 11 12  1  0
 11 13  1  0
 11 30  1  1
 12 31  1  0
 12 32  1  0
 13 14  1  0
 13 36  1  1
 14 33  1  0
 14 34  1  0
 14 35  1  0
M  CHG  1  13   1
M  END
>  <i_m_ct_stereo_status>  (3) 
1

>  <s_m_source_file>  (3) 
/var/tmp/pbs.5076255.sched01/tmp4ovtozgc/0905bh7x9.sdf

>  <i_m_source_file_index>  (3) 
2

>  <i_lp_mmshare_version>  (3) 
48012

>  <i_f3d_flags>  (3) 
0

>  <s_epik_input>  (3) 
W0NIM11bQ0gyXU9bQ0BAXShPW0NIM10pKFtDSDJdW0NAQEhdMTIpW0NIMl1bQ0BIXShbQ0gyXVtDSDJdMSlOMltDSDNd

>  <s_epik_cmdline>  (3) 
J2VwaWtfcHl0aG9uJywgJy1waHQnLCAnMi4wJywgJy1waCcsICc3LjAnLCAnLXRuJywgJzgnLCAnLW1hJywgJzIwMCcsICctaW1hZScsICc8aW5maWxlLm1hZT4nLCAnLW9tYWUnLCAnPG91dGZpbGUubWFlPic=

>  <r_epik_Ionization_Penalty>  (3) 
0.0119161

>  <r_epik_Ionization_Penalty_Charging>  (3) 
0.0119161

>  <r_epik_Ionization_Penalty_Neutral>  (3) 
7.03837e-14

>  <r_epik_State_Penalty>  (3) 
0.00919649

>  <r_epik_Charging_Adjusted_Penalty>  (3) 
0.0211126

>  <i_epik_Tot_Q>  (3) 
1

>  <i_epik_Tot_abs_Q>  (3) 
1

>  <s_lp_Force_Field>  (3) 
OPLS3e

>  <r_lp_Energy>  (3) 
33.4856

>  <b_lp_Chiralities_Consistent>  (3) 
1

>  <s_lp_Variant>  (3) 
1:0-1

>  <s_i_glide_gridfile>  (3) 
pfpi4k_grid

>  <i_i_glide_lignum>  (3) 
2

>  <i_i_glide_rotatable_bonds>  (3) 
3

>  <r_i_docking_score>  (3) 
-3.49136

>  <r_i_glide_ligand_efficiency>  (3) 
-0.249383

>  <r_i_glide_ligand_efficiency_sa>  (3) 
-0.601048

>  <r_i_glide_ligand_efficiency_ln>  (3) 
-0.959413

>  <r_i_glide_gscore>  (3) 
-3.49136

>  <r_i_glide_lipo>  (3) 
-0.384455

>  <r_i_glide_hbond>  (3) 
-0.0882561

>  <r_i_glide_metal>  (3) 
-0

>  <r_i_glide_rewards>  (3) 
-2.21458

>  <r_i_glide_evdw>  (3) 
-8.59308

>  <r_i_glide_ecoul>  (3) 
-5.21159

>  <r_i_glide_erotb>  (3) 
0.407322

>  <r_i_glide_esite>  (3) 
0

>  <r_i_glide_emodel>  (3) 
-15.4804

>  <r_i_glide_energy>  (3) 
-13.8047

>  <r_i_glide_einternal>  (3) 
4.7169

>  <r_i_glide_intrahb_reward>  (3) 
-0

>  <i_i_glide_confnum>  (3) 
2

>  <i_i_glide_posenum>  (3) 
23

>  <r_i_glide_eff_state_penalty>  (3) 
0

>  <ligand_id>  (3) 
1

>  <original_smiles>  (3) 
CCOC1(OC)CC2CCC(C1)N2C

>  <smiles>  (3) 
[H]C([H])([H])OC1(OC([H])([H])C([H])([H])[H])C([H])([H])C2([H])C([H])([H])C([H])([H])C([H])(C1([H])[H])[N+]2([H])C([H])([H])[H]

$$$$
1:0:2
     RDKit          3D

 36 37  0  0  1  0  0  0  0  0999 V2000
    3.9696    0.3151   -3.8445 C   0  0  0  0  0  0  0  0  0  0  0  0
    3.2434   -0.7636   -3.0475 C   0  0  0  0  0  0  0  0  0  0  0  0
    4.2600   -1.6837   -2.6076 O   0  0  0  0  0  0  0  0  0  0  0  0
    3.8563   -2.8212   -1.8847 C   0  0  1  0  0  0  0  0  0  0  0  0
    2.7842   -3.4437   -2.5558 O   0  0  0  0  0  0  0  0  0  0  0  0
    2.9659   -3.7334   -3.9562 C   0  0  0  0  0  0  0  0  0  0  0  0
    5.0556   -3.8208   -1.8050 C   0  0  0  0  0  0  0  0  0  0  0  0
    6.0985   -3.4315   -0.7082 C   0  0  1  0  0  0  0  0  0  0  0  0
    6.6149   -1.9966   -0.8940 C   0  0  0  0  0  0  0  0  0  0  0  0
    5.6285   -1.1337   -0.0685 C   0  0  0  0  0  0  0  0  0  0  0  0
    4.6388   -2.1635    0.5142 C   0  0  1  0  0  0  0  0  0  0  0  0
    3.4179   -2.4117   -0.4340 C   0  0  0  0  0  0  0  0  0  0  0  0
    5.4769   -3.3698    0.6235 N   0  0  1  0  0  0  0  0  0  0  0  0
    4.8655   -4.6059    1.1695 C   0  0  0  0  0  0  0  0  0  0  0  0
    3.2498    0.9636   -4.3194 H   0  0  0  0  0  0  0  0  0  0  0  0
    4.5743   -0.1409   -4.6254 H   0  0  0  0  0  0  0  0  0  0  0  0
    4.6067    0.9202   -3.1994 H   0  0  0  0  0  0  0  0  0  0  0  0
    2.6935   -0.3152   -2.2094 H   0  0  0  0  0  0  0  0  0  0  0  0
    2.5109   -1.1903   -3.6880 H   0  0  0  0  0  0  0  0  0  0  0  0
    2.1080   -4.3192   -4.2987 H   0  0  0  0  0  0  0  0  0  0  0  0
    3.8637   -4.3389   -4.1383 H   0  0  0  0  0  0  0  0  0  0  0  0
    3.0243   -2.8736   -4.5869 H   0  0  0  0  0  0  0  0  0  0  0  0
    4.6651   -4.8178   -1.5904 H   0  0  0  0  0  0  0  0  0  0  0  0
    5.5544   -3.8916   -2.7747 H   0  0  0  0  0  0  0  0  0  0  0  0
    6.9260   -4.1462   -0.6959 H   0  0  0  0  0  0  0  0  0  0  0  0
    7.6272   -1.9013   -0.5038 H   0  0  0  0  0  0  0  0  0  0  0  0
    6.6441   -1.7330   -1.9497 H   0  0  0  0  0  0  0  0  0  0  0  0
    6.1605   -0.6102    0.7260 H   0  0  0  0  0  0  0  0  0  0  0  0
    5.1160   -0.3683   -0.6544 H   0  0  0  0  0  0  0  0  0  0  0  0
    4.3032   -1.8567    1.5120 H   0  0  0  0  0  0  0  0  0  0  0  0
    2.7895   -1.5254   -0.4340 H   0  0  0  0  0  0  0  0  0  0  0  0
    2.7836   -3.1956   -0.0143 H   0  0  0  0  0  0  0  0  0  0  0  0
    4.0202   -4.9727    0.5885 H   0  0  0  0  0  0  0  0  0  0  0  0
    4.5149   -4.4335    2.1863 H   0  0  0  0  0  0  0  0  0  0  0  0
    5.6013   -5.4079    1.2101 H   0  0  0  0  0  0  0  0  0  0  0  0
    6.2300   -3.1167    1.2518 H   0  0  0  0  0  0  0  0  0  0  0  0
  1  2  1  0
  1 15  1  0
  1 16  1  0
  1 17  1  0
  2  3  1  0
  2 18  1  0
  2 19  1  0
  4  3  1  6
  4 12  1  0
  4  5  1  0
  4  7  1  0
  5  6  1  0
  6 20  1  0
  6 21  1  0
  6 22  1  0
  7  8  1  0
  7 23  1  0
  7 24  1  0
  8 13  1  0
  8  9  1  0
  8 25  1  1
  9 10  1  0
  9 26  1  0
  9 27  1  0
 10 11  1  0
 10 28  1  0
 10 29  1  0
 11 12  1  0
 11 13  1  0
 11 30  1  1
 12 31  1  0
 12 32  1  0
 13 14  1  0
 13 36  1  1
 14 33  1  0
 14 34  1  0
 14 35  1  0
M  CHG  1  13   1
M  END
>  <i_m_ct_stereo_status>  (4) 
1

>  <s_m_source_file>  (4) 
/var/tmp/pbs.5076255.sched01/tmp4ovtozgc/0905bh7x9.sdf

>  <i_m_source_file_index>  (4) 
2

>  <i_lp_mmshare_version>  (4) 
48012

>  <i_f3d_flags>  (4) 
0

>  <s_epik_input>  (4) 
W0NIM11bQ0gyXU9bQ0BAXShPW0NIM10pKFtDSDJdW0NAQEhdMTIpW0NIMl1bQ0BIXShbQ0gyXVtDSDJdMSlOMltDSDNd

>  <s_epik_cmdline>  (4) 
J2VwaWtfcHl0aG9uJywgJy1waHQnLCAnMi4wJywgJy1waCcsICc3LjAnLCAnLXRuJywgJzgnLCAnLW1hJywgJzIwMCcsICctaW1hZScsICc8aW5maWxlLm1hZT4nLCAnLW9tYWUnLCAnPG91dGZpbGUubWFlPic=

>  <r_epik_Ionization_Penalty>  (4) 
0.0119161

>  <r_epik_Ionization_Penalty_Charging>  (4) 
0.0119161

>  <r_epik_Ionization_Penalty_Neutral>  (4) 
7.03837e-14

>  <r_epik_State_Penalty>  (4) 
0.00919649

>  <r_epik_Charging_Adjusted_Penalty>  (4) 
0.0211126

>  <i_epik_Tot_Q>  (4) 
1

>  <i_epik_Tot_abs_Q>  (4) 
1

>  <s_lp_Force_Field>  (4) 
OPLS3e

>  <r_lp_Energy>  (4) 
33.4856

>  <b_lp_Chiralities_Consistent>  (4) 
1

>  <s_lp_Variant>  (4) 
1:0-1

>  <s_i_glide_gridfile>  (4) 
pfpi4k_grid

>  <i_i_glide_lignum>  (4) 
2

>  <i_i_glide_rotatable_bonds>  (4) 
3

>  <r_i_docking_score>  (4) 
-2.78913

>  <r_i_glide_ligand_efficiency>  (4) 
-0.199224

>  <r_i_glide_ligand_efficiency_sa>  (4) 
-0.480157

>  <r_i_glide_ligand_efficiency_ln>  (4) 
-0.766443

>  <r_i_glide_gscore>  (4) 
-2.78913

>  <r_i_glide_lipo>  (4) 
-0.177852

>  <r_i_glide_hbond>  (4) 
0

>  <r_i_glide_metal>  (4) 
-0

>  <r_i_glide_rewards>  (4) 
-2.04342

>  <r_i_glide_evdw>  (4) 
-15.6461

>  <r_i_glide_ecoul>  (4) 
-1.16089

>  <r_i_glide_erotb>  (4) 
0.407322

>  <r_i_glide_esite>  (4) 
-0.0187345

>  <r_i_glide_emodel>  (4) 
-19.2205

>  <r_i_glide_energy>  (4) 
-16.807

>  <r_i_glide_einternal>  (4) 
0.928757

>  <r_i_glide_intrahb_reward>  (4) 
-0

>  <i_i_glide_confnum>  (4) 
2

>  <i_i_glide_posenum>  (4) 
4

>  <r_i_glide_eff_state_penalty>  (4) 
0

>  <ligand_id>  (4) 
1

>  <original_smiles>  (4) 
CCOC1(OC)CC2CCC(C1)N2C

>  <smiles>  (4) 
[H]C([H])([H])OC1(OC([H])([H])C([H])([H])[H])C([H])([H])C2([H])C([H])([H])C([H])([H])C([H])(C1([H])[H])[N+]2([H])C([H])([H])[H]

$$$$
1:1:0
     RDKit          3D

 36 37  0  0  1  0  0  0  0  0999 V2000
    8.6769   -3.0022   -0.1064 C   0  0  0  0  0  0  0  0  0  0  0  0
    7.3170   -2.6435    0.4932 C   0  0  0  0  0  0  0  0  0  0  0  0
    6.4781   -2.1272   -0.5387 O   0  0  0  0  0  0  0  0  0  0  0  0
    5.2034   -1.6765   -0.1643 C   0  0  1  0  0  0  0  0  0  0  0  0
    5.3689   -0.8026    0.9240 O   0  0  0  0  0  0  0  0  0  0  0  0
    4.2666   -0.1516    1.5413 C   0  0  0  0  0  0  0  0  0  0  0  0
    4.6537   -0.8960   -1.4005 C   0  0  0  0  0  0  0  0  0  0  0  0
    4.0946   -1.8464   -2.4887 C   0  0  1  0  0  0  0  0  0  0  0  0
    5.1311   -2.8832   -2.9685 C   0  0  0  0  0  0  0  0  0  0  0  0
    4.9298   -4.0707   -2.0129 C   0  0  0  0  0  0  0  0  0  0  0  0
    3.7812   -3.6229   -1.0867 C   0  0  1  0  0  0  0  0  0  0  0  0
    4.2868   -2.9044    0.1942 C   0  0  0  0  0  0  0  0  0  0  0  0
    3.0180   -2.6527   -1.8914 N   0  0  2  0  0  0  0  0  0  0  0  0
    2.1074   -3.2780   -2.8788 C   0  0  0  0  0  0  0  0  0  0  0  0
    9.3486   -3.3720    0.6704 H   0  0  0  0  0  0  0  0  0  0  0  0
    9.1421   -2.1291   -0.5631 H   0  0  0  0  0  0  0  0  0  0  0  0
    8.5867   -3.7753   -0.8711 H   0  0  0  0  0  0  0  0  0  0  0  0
    6.8977   -3.5372    0.9519 H   0  0  0  0  0  0  0  0  0  0  0  0
    7.4573   -1.9020    1.2808 H   0  0  0  0  0  0  0  0  0  0  0  0
    4.6557    0.4304    2.3795 H   0  0  0  0  0  0  0  0  0  0  0  0
    3.5415   -0.8429    1.9632 H   0  0  0  0  0  0  0  0  0  0  0  0
    3.7612    0.5526    0.8835 H   0  0  0  0  0  0  0  0  0  0  0  0
    3.8422   -0.2535   -1.0880 H   0  0  0  0  0  0  0  0  0  0  0  0
    5.4314   -0.2558   -1.8027 H   0  0  0  0  0  0  0  0  0  0  0  0
    3.7145   -1.2486   -3.3188 H   0  0  0  0  0  0  0  0  0  0  0  0
    4.9149   -3.1923   -3.9910 H   0  0  0  0  0  0  0  0  0  0  0  0
    6.1575   -2.5168   -2.9576 H   0  0  0  0  0  0  0  0  0  0  0  0
    4.6519   -4.9401   -2.5974 H   0  0  0  0  0  0  0  0  0  0  0  0
    5.8220   -4.3416   -1.4536 H   0  0  0  0  0  0  0  0  0  0  0  0
    3.1595   -4.4679   -0.7838 H   0  0  0  0  0  0  0  0  0  0  0  0
    4.7900   -3.5948    0.8701 H   0  0  0  0  0  0  0  0  0  0  0  0
    3.4059   -2.5654    0.7346 H   0  0  0  0  0  0  0  0  0  0  0  0
    2.6348   -3.9220   -3.5831 H   0  0  0  0  0  0  0  0  0  0  0  0
    1.5764   -2.5309   -3.4652 H   0  0  0  0  0  0  0  0  0  0  0  0
    1.3753   -3.8840   -2.3479 H   0  0  0  0  0  0  0  0  0  0  0  0
    2.4424   -2.0617   -1.2970 H   0  0  0  0  0  0  0  0  0  0  0  0
  1  2  1  0
  1 15  1  0
  1 16  1  0
  1 17  1  0
  2  3  1  0
  2 18  1  0
  2 19  1  0
  4  3  1  6
  4 12  1  0
  4  5  1  0
  4  7  1  0
  5  6  1  0
  6 20  1  0
  6 21  1  0
  6 22  1  0
  7  8  1  0
  7 23  1  0
  7 24  1  0
  8 13  1  0
  8  9  1  0
  8 25  1  6
  9 10  1  0
  9 26  1  0
  9 27  1  0
 10 11  1  0
 10 28  1  0
 10 29  1  0
 11 12  1  0
 11 13  1  0
 11 30  1  1
 12 31  1  0
 12 32  1  0
 13 14  1  0
 13 36  1  1
 14 33  1  0
 14 34  1  0
 14 35  1  0
M  CHG  1  13   1
M  END
>  <i_m_ct_stereo_status>  (5) 
1

>  <s_m_source_file>  (5) 
/var/tmp/pbs.5076255.sched01/tmp4ovtozgc/0905bh7x9.sdf

>  <i_m_source_file_index>  (5) 
3

>  <i_lp_mmshare_version>  (5) 
48012

>  <i_f3d_flags>  (5) 
0

>  <s_epik_input>  (5) 
W0NIM11bQ0gyXU9bQ0BAXShPW0NIM10pKFtDSDJdW0NAQEhdMTIpW0NIMl1bQ0BIXShbQ0gyXVtDSDJdMSlOMltDSDNd

>  <s_epik_cmdline>  (5) 
J2VwaWtfcHl0aG9uJywgJy1waHQnLCAnMi4wJywgJy1waCcsICc3LjAnLCAnLXRuJywgJzgnLCAnLW1hJywgJzIwMCcsICctaW1hZScsICc8aW5maWxlLm1hZT4nLCAnLW9tYWUnLCAnPG91dGZpbGUubWFlPic=

>  <r_epik_Ionization_Penalty>  (5) 
0.0119161

>  <r_epik_Ionization_Penalty_Charging>  (5) 
0.0119161

>  <r_epik_Ionization_Penalty_Neutral>  (5) 
7.03837e-14

>  <r_epik_State_Penalty>  (5) 
0.00919649

>  <r_epik_Charging_Adjusted_Penalty>  (5) 
0.0211126

>  <i_epik_Tot_Q>  (5) 
1

>  <i_epik_Tot_abs_Q>  (5) 
1

>  <s_lp_Force_Field>  (5) 
OPLS3e

>  <r_lp_Energy>  (5) 
41.1866

>  <b_lp_Chiralities_Consistent>  (5) 
1

>  <s_lp_Variant>  (5) 
1:0-2

>  <s_i_glide_gridfile>  (5) 
pfpi4k_grid

>  <i_i_glide_lignum>  (5) 
3

>  <i_i_glide_rotatable_bonds>  (5) 
3

>  <r_i_docking_score>  (5) 
-4.2435

>  <r_i_glide_ligand_efficiency>  (5) 
-0.303107

>  <r_i_glide_ligand_efficiency_sa>  (5) 
-0.730531

>  <r_i_glide_ligand_efficiency_ln>  (5) 
-1.1661

>  <r_i_glide_gscore>  (5) 
-4.2435

>  <r_i_glide_lipo>  (5) 
-0.64639

>  <r_i_glide_hbond>  (5) 
-0.237932

>  <r_i_glide_metal>  (5) 
-0

>  <r_i_glide_rewards>  (5) 
-2.04342

>  <r_i_glide_evdw>  (5) 
-15.2625

>  <r_i_glide_ecoul>  (5) 
-6.09059

>  <r_i_glide_erotb>  (5) 
0.407322

>  <r_i_glide_esite>  (5) 
-0.0463611

>  <r_i_glide_emodel>  (5) 
-27.0392

>  <r_i_glide_energy>  (5) 
-21.3531

>  <r_i_glide_einternal>  (5) 
2.9092

>  <r_i_glide_intrahb_reward>  (5) 
-0

>  <i_i_glide_confnum>  (5) 
2

>  <i_i_glide_posenum>  (5) 
22

>  <r_i_glide_eff_state_penalty>  (5) 
0

>  <ligand_id>  (5) 
1

>  <original_smiles>  (5) 
CCOC1(OC)CC2CCC(C1)N2C

>  <smiles>  (5) 
[H]C([H])([H])OC1(OC([H])([H])C([H])([H])[H])C([H])([H])C2([H])C([H])([H])C([H])([H])C([H])(C1([H])[H])[N+]2([H])C([H])([H])[H]

$$$$
1:1:1
     RDKit          3D

 36 37  0  0  1  0  0  0  0  0999 V2000
    6.5807   -1.1431    1.1359 C   0  0  0  0  0  0  0  0  0  0  0  0
    5.9931   -2.5466    0.9650 C   0  0  0  0  0  0  0  0  0  0  0  0
    5.7757   -2.7654   -0.4264 O   0  0  0  0  0  0  0  0  0  0  0  0
    5.0693   -3.9125   -0.7990 C   0  0  1  0  0  0  0  0  0  0  0  0
    5.6561   -5.0129   -0.1517 O   0  0  0  0  0  0  0  0  0  0  0  0
    4.9338   -6.2163    0.0633 C   0  0  0  0  0  0  0  0  0  0  0  0
    3.5385   -3.7185   -0.4662 C   0  0  0  0  0  0  0  0  0  0  0  0
    2.8694   -2.7627   -1.4807 C   0  0  1  0  0  0  0  0  0  0  0  0
    3.5518   -1.3955   -1.6323 C   0  0  0  0  0  0  0  0  0  0  0  0
    4.5786   -1.6122   -2.7649 C   0  0  0  0  0  0  0  0  0  0  0  0
    4.3860   -3.0930   -3.1515 C   0  0  1  0  0  0  0  0  0  0  0  0
    5.2896   -4.0528   -2.3424 C   0  0  0  0  0  0  0  0  0  0  0  0
    2.9902   -3.3814   -2.8077 N   0  0  2  0  0  0  0  0  0  0  0  0
    2.0093   -2.8826   -3.7892 C   0  0  0  0  0  0  0  0  0  0  0  0
    6.7037   -0.9285    2.1972 H   0  0  0  0  0  0  0  0  0  0  0  0
    5.9145   -0.3806    0.7292 H   0  0  0  0  0  0  0  0  0  0  0  0
    7.5543   -1.0410    0.6517 H   0  0  0  0  0  0  0  0  0  0  0  0
    6.6862   -3.2925    1.3627 H   0  0  0  0  0  0  0  0  0  0  0  0
    5.0622   -2.5932    1.5271 H   0  0  0  0  0  0  0  0  0  0  0  0
    5.5727   -6.9418    0.5672 H   0  0  0  0  0  0  0  0  0  0  0  0
    4.6122   -6.6649   -0.8730 H   0  0  0  0  0  0  0  0  0  0  0  0
    4.0747   -6.0522    0.7109 H   0  0  0  0  0  0  0  0  0  0  0  0
    3.0047   -4.6677   -0.5617 H   0  0  0  0  0  0  0  0  0  0  0  0
    3.3919   -3.3942    0.5610 H   0  0  0  0  0  0  0  0  0  0  0  0
    1.8256   -2.6604   -1.2123 H   0  0  0  0  0  0  0  0  0  0  0  0
    2.8112   -0.6515   -1.9386 H   0  0  0  0  0  0  0  0  0  0  0  0
    3.9866   -1.0355   -0.7032 H   0  0  0  0  0  0  0  0  0  0  0  0
    4.3393   -0.9620   -3.6055 H   0  0  0  0  0  0  0  0  0  0  0  0
    5.6007   -1.3861   -2.4620 H   0  0  0  0  0  0  0  0  0  0  0  0
    4.5619   -3.2556   -4.2226 H   0  0  0  0  0  0  0  0  0  0  0  0
    6.3381   -3.8723   -2.5839 H   0  0  0  0  0  0  0  0  0  0  0  0
    5.0199   -5.0597   -2.6485 H   0  0  0  0  0  0  0  0  0  0  0  0
    2.1060   -1.8153   -3.9847 H   0  0  0  0  0  0  0  0  0  0  0  0
    1.0112   -3.0426   -3.4061 H   0  0  0  0  0  0  0  0  0  0  0  0
    2.0908   -3.4080   -4.7375 H   0  0  0  0  0  0  0  0  0  0  0  0
    2.8886   -4.3917   -2.7160 H   0  0  0  0  0  0  0  0  0  0  0  0
  1  2  1  0
  1 15  1  0
  1 16  1  0
  1 17  1  0
  2  3  1  0
  2 18  1  0
  2 19  1  0
  4  3  1  1
  4 12  1  0
  4  5  1  0
  4  7  1  0
  5  6  1  0
  6 20  1  0
  6 21  1  0
  6 22  1  0
  7  8  1  0
  7 23  1  0
  7 24  1  0
  8 13  1  0
  8  9  1  0
  8 25  1  1
  9 10  1  0
  9 26  1  0
  9 27  1  0
 10 11  1  0
 10 28  1  0
 10 29  1  0
 11 12  1  0
 11 13  1  0
 11 30  1  6
 12 31  1  0
 12 32  1  0
 13 14  1  0
 13 36  1  1
 14 33  1  0
 14 34  1  0
 14 35  1  0
M  CHG  1  13   1
M  END
>  <i_m_ct_stereo_status>  (6) 
1

>  <s_m_source_file>  (6) 
/var/tmp/pbs.5076255.sched01/tmp4ovtozgc/0905bh7x9.sdf

>  <i_m_source_file_index>  (6) 
3

>  <i_lp_mmshare_version>  (6) 
48012

>  <i_f3d_flags>  (6) 
0

>  <s_epik_input>  (6) 
W0NIM11bQ0gyXU9bQ0BAXShPW0NIM10pKFtDSDJdW0NAQEhdMTIpW0NIMl1bQ0BIXShbQ0gyXVtDSDJdMSlOMltDSDNd

>  <s_epik_cmdline>  (6) 
J2VwaWtfcHl0aG9uJywgJy1waHQnLCAnMi4wJywgJy1waCcsICc3LjAnLCAnLXRuJywgJzgnLCAnLW1hJywgJzIwMCcsICctaW1hZScsICc8aW5maWxlLm1hZT4nLCAnLW9tYWUnLCAnPG91dGZpbGUubWFlPic=

>  <r_epik_Ionization_Penalty>  (6) 
0.0119161

>  <r_epik_Ionization_Penalty_Charging>  (6) 
0.0119161

>  <r_epik_Ionization_Penalty_Neutral>  (6) 
7.03837e-14

>  <r_epik_State_Penalty>  (6) 
0.00919649

>  <r_epik_Charging_Adjusted_Penalty>  (6) 
0.0211126

>  <i_epik_Tot_Q>  (6) 
1

>  <i_epik_Tot_abs_Q>  (6) 
1

>  <s_lp_Force_Field>  (6) 
OPLS3e

>  <r_lp_Energy>  (6) 
41.1866

>  <b_lp_Chiralities_Consistent>  (6) 
1

>  <s_lp_Variant>  (6) 
1:0-2

>  <s_i_glide_gridfile>  (6) 
pfpi4k_grid

>  <i_i_glide_lignum>  (6) 
3

>  <i_i_glide_rotatable_bonds>  (6) 
3

>  <r_i_docking_score>  (6) 
-4.08742

>  <r_i_glide_ligand_efficiency>  (6) 
-0.291958

>  <r_i_glide_ligand_efficiency_sa>  (6) 
-0.703661

>  <r_i_glide_ligand_efficiency_ln>  (6) 
-1.12321

>  <r_i_glide_gscore>  (6) 
-4.08742

>  <r_i_glide_lipo>  (6) 
-0.534752

>  <r_i_glide_hbond>  (6) 
0

>  <r_i_glide_metal>  (6) 
-0

>  <r_i_glide_rewards>  (6) 
-2.10189

>  <r_i_glide_evdw>  (6) 
-15.1096

>  <r_i_glide_ecoul>  (6) 
-7.29794

>  <r_i_glide_erotb>  (6) 
0.407322

>  <r_i_glide_esite>  (6) 
-0.00792819

>  <r_i_glide_emodel>  (6) 
-27.0229

>  <r_i_glide_energy>  (6) 
-22.4075

>  <r_i_glide_einternal>  (6) 
4.059

>  <r_i_glide_intrahb_reward>  (6) 
-0

>  <i_i_glide_confnum>  (6) 
2

>  <i_i_glide_posenum>  (6) 
21

>  <r_i_glide_eff_state_penalty>  (6) 
0

>  <ligand_id>  (6) 
1

>  <original_smiles>  (6) 
CCOC1(OC)CC2CCC(C1)N2C

>  <smiles>  (6) 
[H]C([H])([H])OC1(OC([H])([H])C([H])([H])[H])C([H])([H])C2([H])C([H])([H])C([H])([H])C([H])(C1([H])[H])[N+]2([H])C([H])([H])[H]

$$$$
1:1:2
     RDKit          3D

 36 37  0  0  1  0  0  0  0  0999 V2000
    8.4621   -1.9208    0.2342 C   0  0  0  0  0  0  0  0  0  0  0  0
    7.0842   -1.4465    0.6565 C   0  0  0  0  0  0  0  0  0  0  0  0
    6.0561   -2.3801    0.3526 O   0  0  0  0  0  0  0  0  0  0  0  0
    4.7329   -2.0148    0.5998 C   0  0  1  0  0  0  0  0  0  0  0  0
    4.5548   -1.5675    1.9327 O   0  0  0  0  0  0  0  0  0  0  0  0
    4.9829   -0.2381    2.3509 C   0  0  0  0  0  0  0  0  0  0  0  0
    4.2258   -0.9717   -0.4435 C   0  0  0  0  0  0  0  0  0  0  0  0
    3.9779   -1.6184   -1.8362 C   0  0  1  0  0  0  0  0  0  0  0  0
    5.1895   -2.4012   -2.3807 C   0  0  0  0  0  0  0  0  0  0  0  0
    4.9827   -3.8343   -1.8440 C   0  0  0  0  0  0  0  0  0  0  0  0
    3.6731   -3.7408   -1.0349 C   0  0  1  0  0  0  0  0  0  0  0  0
    3.9098   -3.3401    0.4583 C   0  0  0  0  0  0  0  0  0  0  0  0
    2.9318   -2.6390   -1.6806 N   0  0  2  0  0  0  0  0  0  0  0  0
    2.2816   -3.0347   -2.9536 C   0  0  0  0  0  0  0  0  0  0  0  0
    9.1700   -1.1479    0.5275 H   0  0  0  0  0  0  0  0  0  0  0  0
    8.5387   -2.1228   -0.8245 H   0  0  0  0  0  0  0  0  0  0  0  0
    8.6730   -2.8069    0.8162 H   0  0  0  0  0  0  0  0  0  0  0  0
    7.1528   -1.3735    1.6984 H   0  0  0  0  0  0  0  0  0  0  0  0
    6.8882   -0.4525    0.2177 H   0  0  0  0  0  0  0  0  0  0  0  0
    4.7072   -0.1195    3.4038 H   0  0  0  0  0  0  0  0  0  0  0  0
    4.4847    0.5146    1.7591 H   0  0  0  0  0  0  0  0  0  0  0  0
    6.0256   -0.0361    2.3401 H   0  0  0  0  0  0  0  0  0  0  0  0
    3.2886   -0.5616   -0.0777 H   0  0  0  0  0  0  0  0  0  0  0  0
    4.9161   -0.1547   -0.5438 H   0  0  0  0  0  0  0  0  0  0  0  0
    3.6491   -0.8430   -2.5350 H   0  0  0  0  0  0  0  0  0  0  0  0
    5.1889   -2.4080   -3.4714 H   0  0  0  0  0  0  0  0  0  0  0  0
    6.1376   -1.9623   -2.0730 H   0  0  0  0  0  0  0  0  0  0  0  0
    4.8795   -4.5362   -2.6733 H   0  0  0  0  0  0  0  0  0  0  0  0
    5.8170   -4.2027   -1.2412 H   0  0  0  0  0  0  0  0  0  0  0  0
    3.0922   -4.6626   -1.0797 H   0  0  0  0  0  0  0  0  0  0  0  0
    4.4052   -4.1738    0.9938 H   0  0  0  0  0  0  0  0  0  0  0  0
    2.9233   -3.2230    0.9324 H   0  0  0  0  0  0  0  0  0  0  0  0
    2.9900   -3.4274   -3.6862 H   0  0  0  0  0  0  0  0  0  0  0  0
    1.8128   -2.1756   -3.4027 H   0  0  0  0  0  0  0  0  0  0  0  0
    1.5331   -3.7997   -2.7532 H   0  0  0  0  0  0  0  0  0  0  0  0
    2.1902   -2.2803   -1.0888 H   0  0  0  0  0  0  0  0  0  0  0  0
  1  2  1  0
  1 15  1  0
  1 16  1  0
  1 17  1  0
  2  3  1  0
  2 18  1  0
  2 19  1  0
  4  3  1  6
  4 12  1  0
  4  5  1  0
  4  7  1  0
  5  6  1  0
  6 20  1  0
  6 21  1  0
  6 22  1  0
  7  8  1  0
  7 23  1  0
  7 24  1  0
  8 13  1  0
  8  9  1  0
  8 25  1  6
  9 10  1  0
  9 26  1  0
  9 27  1  0
 10 11  1  0
 10 28  1  0
 10 29  1  0
 11 12  1  0
 11 13  1  0
 11 30  1  1
 12 31  1  0
 12 32  1  0
 13 14  1  0
 13 36  1  1
 14 33  1  0
 14 34  1  0
 14 35  1  0
M  CHG  1  13   1
M  END
>  <i_m_ct_stereo_status>  (7) 
1

>  <s_m_source_file>  (7) 
/var/tmp/pbs.5076255.sched01/tmp4ovtozgc/0905bh7x9.sdf

>  <i_m_source_file_index>  (7) 
3

>  <i_lp_mmshare_version>  (7) 
48012

>  <i_f3d_flags>  (7) 
0

>  <s_epik_input>  (7) 
W0NIM11bQ0gyXU9bQ0BAXShPW0NIM10pKFtDSDJdW0NAQEhdMTIpW0NIMl1bQ0BIXShbQ0gyXVtDSDJdMSlOMltDSDNd

>  <s_epik_cmdline>  (7) 
J2VwaWtfcHl0aG9uJywgJy1waHQnLCAnMi4wJywgJy1waCcsICc3LjAnLCAnLXRuJywgJzgnLCAnLW1hJywgJzIwMCcsICctaW1hZScsICc8aW5maWxlLm1hZT4nLCAnLW9tYWUnLCAnPG91dGZpbGUubWFlPic=

>  <r_epik_Ionization_Penalty>  (7) 
0.0119161

>  <r_epik_Ionization_Penalty_Charging>  (7) 
0.0119161

>  <r_epik_Ionization_Penalty_Neutral>  (7) 
7.03837e-14

>  <r_epik_State_Penalty>  (7) 
0.00919649

>  <r_epik_Charging_Adjusted_Penalty>  (7) 
0.0211126

>  <i_epik_Tot_Q>  (7) 
1

>  <i_epik_Tot_abs_Q>  (7) 
1

>  <s_lp_Force_Field>  (7) 
OPLS3e

>  <r_lp_Energy>  (7) 
41.1866

>  <b_lp_Chiralities_Consistent>  (7) 
1

>  <s_lp_Variant>  (7) 
1:0-2

>  <s_i_glide_gridfile>  (7) 
pfpi4k_grid

>  <i_i_glide_lignum>  (7) 
3

>  <i_i_glide_rotatable_bonds>  (7) 
3

>  <r_i_docking_score>  (7) 
-3.83658

>  <r_i_glide_ligand_efficiency>  (7) 
-0.274041

>  <r_i_glide_ligand_efficiency_sa>  (7) 
-0.660478

>  <r_i_glide_ligand_efficiency_ln>  (7) 
-1.05428

>  <r_i_glide_gscore>  (7) 
-3.83658

>  <r_i_glide_lipo>  (7) 
-0.378088

>  <r_i_glide_hbond>  (7) 
-0.195166

>  <r_i_glide_metal>  (7) 
-0

>  <r_i_glide_rewards>  (7) 
-2.05804

>  <r_i_glide_evdw>  (7) 
-15.2923

>  <r_i_glide_ecoul>  (7) 
-5.37185

>  <r_i_glide_erotb>  (7) 
0.407322

>  <r_i_glide_esite>  (7) 
-0.0422156

>  <r_i_glide_emodel>  (7) 
-25.5102

>  <r_i_glide_energy>  (7) 
-20.6641

>  <r_i_glide_einternal>  (7) 
0.115638

>  <r_i_glide_intrahb_reward>  (7) 
-0

>  <i_i_glide_confnum>  (7) 
2

>  <i_i_glide_posenum>  (7) 
16

>  <r_i_glide_eff_state_penalty>  (7) 
0

>  <ligand_id>  (7) 
1

>  <original_smiles>  (7) 
CCOC1(OC)CC2CCC(C1)N2C

>  <smiles>  (7) 
[H]C([H])([H])OC1(OC([H])([H])C([H])([H])[H])C([H])([H])C2([H])C([H])([H])C([H])([H])C([H])(C1([H])[H])[N+]2([H])C([H])([H])[H]

$$$$
1:2:0
     RDKit          3D

 35 36  0  0  1  0  0  0  0  0999 V2000
    3.2187   -5.1887    0.3886 C   0  0  0  0  0  0  0  0  0  0  0  0
    4.5437   -4.8952   -0.3042 C   0  0  0  0  0  0  0  0  0  0  0  0
    4.5488   -3.5174   -0.6323 O   0  0  0  0  0  0  0  0  0  0  0  0
    5.5494   -3.0421   -1.5012 C   0  0  1  0  0  0  0  0  0  0  0  0
    6.8422   -3.4228   -1.0925 O   0  0  0  0  0  0  0  0  0  0  0  0
    7.2221   -3.0420    0.2278 C   0  0  0  0  0  0  0  0  0  0  0  0
    5.3065   -3.5688   -2.9546 C   0  0  0  0  0  0  0  0  0  0  0  0
    4.1580   -2.8084   -3.6727 C   0  0  1  0  0  0  0  0  0  0  0  0
    2.8452   -2.7459   -2.8836 C   0  0  0  0  0  0  0  0  0  0  0  0
    3.0036   -1.4731   -2.0478 C   0  0  0  0  0  0  0  0  0  0  0  0
    4.3777   -0.9313   -2.4237 C   0  0  1  0  0  0  0  0  0  0  0  0
    5.4820   -1.4940   -1.5011 C   0  0  0  0  0  0  0  0  0  0  0  0
    4.5895   -1.4216   -3.7774 N   0  0  0  0  0  0  0  0  0  0  0  0
    3.8115   -0.6461   -4.7465 C   0  0  0  0  0  0  0  0  0  0  0  0
    3.1488   -6.2462    0.6327 H   0  0  0  0  0  0  0  0  0  0  0  0
    2.3850   -4.9445   -0.2634 H   0  0  0  0  0  0  0  0  0  0  0  0
    3.1153   -4.6112    1.3026 H   0  0  0  0  0  0  0  0  0  0  0  0
    5.3828   -5.1483    0.3449 H   0  0  0  0  0  0  0  0  0  0  0  0
    4.6261   -5.5615   -1.1607 H   0  0  0  0  0  0  0  0  0  0  0  0
    8.0953   -3.6162    0.5367 H   0  0  0  0  0  0  0  0  0  0  0  0
    6.4418   -3.2396    0.9626 H   0  0  0  0  0  0  0  0  0  0  0  0
    7.4801   -1.9854    0.3052 H   0  0  0  0  0  0  0  0  0  0  0  0
    6.2315   -3.4131   -3.5136 H   0  0  0  0  0  0  0  0  0  0  0  0
    5.1174   -4.6387   -3.0043 H   0  0  0  0  0  0  0  0  0  0  0  0
    3.9987   -3.2395   -4.6577 H   0  0  0  0  0  0  0  0  0  0  0  0
    1.9851   -2.6507   -3.5486 H   0  0  0  0  0  0  0  0  0  0  0  0
    2.6758   -3.6358   -2.2805 H   0  0  0  0  0  0  0  0  0  0  0  0
    2.2281   -0.7508   -2.3274 H   0  0  0  0  0  0  0  0  0  0  0  0
    2.9201   -1.6295   -0.9752 H   0  0  0  0  0  0  0  0  0  0  0  0
    4.3949    0.1552   -2.3882 H   0  0  0  0  0  0  0  0  0  0  0  0
    5.4008   -1.0990   -0.4851 H   0  0  0  0  0  0  0  0  0  0  0  0
    6.4284   -1.1615   -1.9097 H   0  0  0  0  0  0  0  0  0  0  0  0
    4.1502    0.3921   -4.7599 H   0  0  0  0  0  0  0  0  0  0  0  0
    2.7390   -0.6445   -4.5518 H   0  0  0  0  0  0  0  0  0  0  0  0
    3.9511   -1.0497   -5.7461 H   0  0  0  0  0  0  0  0  0  0  0  0
  1  2  1  0
  1 15  1  0
  1 16  1  0
  1 17  1  0
  2  3  1  0
  2 18  1  0
  2 19  1  0
  4  3  1  1
  4 12  1  0
  4  5  1  0
  4  7  1  0
  5  6  1  0
  6 20  1  0
  6 21  1  0
  6 22  1  0
  7  8  1  0
  7 23  1  0
  7 24  1  0
  8 13  1  0
  8  9  1  0
  8 25  1  6
  9 10  1  0
  9 26  1  0
  9 27  1  0
 10 11  1  0
 10 28  1  0
 10 29  1  0
 11 12  1  0
 11 13  1  0
 11 30  1  6
 12 31  1  0
 12 32  1  0
 13 14  1  0
 14 33  1  0
 14 34  1  0
 14 35  1  0
M  END
>  <i_m_ct_stereo_status>  (8) 
1

>  <s_m_source_file>  (8) 
/var/tmp/pbs.5076255.sched01/tmp4ovtozgc/0905bh7x9.sdf

>  <i_m_source_file_index>  (8) 
4

>  <i_lp_mmshare_version>  (8) 
48012

>  <i_f3d_flags>  (8) 
0

>  <s_epik_input>  (8) 
W0NIM11bQ0gyXU9bQ0BAXShPW0NIM10pKFtDSDJdW0NAQEhdMTIpW0NIMl1bQ0BIXShbQ0gyXVtDSDJdMSlOMltDSDNd

>  <s_epik_cmdline>  (8) 
J2VwaWtfcHl0aG9uJywgJy1waHQnLCAnMi4wJywgJy1waCcsICc3LjAnLCAnLXRuJywgJzgnLCAnLW1hJywgJzIwMCcsICctaW1hZScsICc8aW5maWxlLm1hZT4nLCAnLW9tYWUnLCAnPG91dGZpbGUubWFlPic=

>  <r_epik_Ionization_Penalty>  (8) 
2.32046

>  <r_epik_Ionization_Penalty_Charging>  (8) 
0

>  <r_epik_Ionization_Penalty_Neutral>  (8) 
2.32046

>  <r_epik_State_Penalty>  (8) 
2.47259

>  <r_epik_Charging_Adjusted_Penalty>  (8) 
2.47259

>  <i_epik_Tot_Q>  (8) 
0

>  <i_epik_Tot_abs_Q>  (8) 
0

>  <s_lp_Force_Field>  (8) 
OPLS3e

>  <r_lp_Energy>  (8) 
29.4324

>  <b_lp_Chiralities_Consistent>  (8) 
1

>  <s_lp_Variant>  (8) 
1:0-3

>  <s_i_glide_gridfile>  (8) 
pfpi4k_grid

>  <i_i_glide_lignum>  (8) 
4

>  <i_i_glide_rotatable_bonds>  (8) 
3

>  <r_i_docking_score>  (8) 
-3.37758

>  <r_i_glide_ligand_efficiency>  (8) 
-0.241256

>  <r_i_glide_ligand_efficiency_sa>  (8) 
-0.581461

>  <r_i_glide_ligand_efficiency_ln>  (8) 
-0.928148

>  <r_i_glide_gscore>  (8) 
-3.37758

>  <r_i_glide_lipo>  (8) 
-0.621201

>  <r_i_glide_hbond>  (8) 
0

>  <r_i_glide_metal>  (8) 
-0

>  <r_i_glide_rewards>  (8) 
-2.12141

>  <r_i_glide_evdw>  (8) 
-17.4192

>  <r_i_glide_ecoul>  (8) 
-1.16512

>  <r_i_glide_erotb>  (8) 
0.41076

>  <r_i_glide_esite>  (8) 
0

>  <r_i_glide_emodel>  (8) 
-21.4705

>  <r_i_glide_energy>  (8) 
-18.5844

>  <r_i_glide_einternal>  (8) 
0.411817

>  <r_i_glide_intrahb_reward>  (8) 
-0

>  <i_i_glide_confnum>  (8) 
1

>  <i_i_glide_posenum>  (8) 
2

>  <r_i_glide_eff_state_penalty>  (8) 
0

>  <ligand_id>  (8) 
1

>  <original_smiles>  (8) 
CCOC1(OC)CC2CCC(C1)N2C

>  <smiles>  (8) 
[H]C([H])([H])OC1(OC([H])([H])C([H])([H])[H])C([H])([H])C2([H])N(C([H])([H])[H])C([H])(C([H])([H])C2([H])[H])C1([H])[H]

$$$$
1:2:1
     RDKit          3D

 35 36  0  0  1  0  0  0  0  0999 V2000
    3.3636   -0.0244   -4.9839 C   0  0  0  0  0  0  0  0  0  0  0  0
    3.8816    0.1864   -3.5522 C   0  0  0  0  0  0  0  0  0  0  0  0
    4.5820   -0.9550   -3.0257 O   0  0  0  0  0  0  0  0  0  0  0  0
    3.8245   -2.0054   -2.5102 C   0  0  1  0  0  0  0  0  0  0  0  0
    2.6839   -2.1308   -3.3293 O   0  0  0  0  0  0  0  0  0  0  0  0
    1.8469   -3.2701   -3.1945 C   0  0  0  0  0  0  0  0  0  0  0  0
    4.7594   -3.2637   -2.5951 C   0  0  0  0  0  0  0  0  0  0  0  0
    5.7501   -3.3482   -1.4053 C   0  0  1  0  0  0  0  0  0  0  0  0
    6.6548   -2.1230   -1.2756 C   0  0  0  0  0  0  0  0  0  0  0  0
    5.8675   -1.1820   -0.3486 C   0  0  0  0  0  0  0  0  0  0  0  0
    4.5866   -1.9558   -0.0132 C   0  0  1  0  0  0  0  0  0  0  0  0
    3.4341   -1.6952   -1.0168 C   0  0  0  0  0  0  0  0  0  0  0  0
    5.0663   -3.3262   -0.1217 N   0  0  0  0  0  0  0  0  0  0  0  0
    4.0910   -4.3959    0.1107 C   0  0  0  0  0  0  0  0  0  0  0  0
    2.9463    0.9112   -5.3974 H   0  0  0  0  0  0  0  0  0  0  0  0
    2.6280   -0.8257   -5.0111 H   0  0  0  0  0  0  0  0  0  0  0  0
    4.2146   -0.3098   -5.6161 H   0  0  0  0  0  0  0  0  0  0  0  0
    4.5768    1.0205   -3.5115 H   0  0  0  0  0  0  0  0  0  0  0  0
    3.0531    0.4434   -2.9086 H   0  0  0  0  0  0  0  0  0  0  0  0
    0.9845   -3.0404   -3.8161 H   0  0  0  0  0  0  0  0  0  0  0  0
    1.4564   -3.5163   -2.1869 H   0  0  0  0  0  0  0  0  0  0  0  0
    2.2934   -4.1764   -3.6224 H   0  0  0  0  0  0  0  0  0  0  0  0
    4.2049   -4.1949   -2.5818 H   0  0  0  0  0  0  0  0  0  0  0  0
    5.2882   -3.2239   -3.5501 H   0  0  0  0  0  0  0  0  0  0  0  0
    6.3271   -4.2572   -1.4762 H   0  0  0  0  0  0  0  0  0  0  0  0
    7.6152   -2.3769   -0.8281 H   0  0  0  0  0  0  0  0  0  0  0  0
    6.8429   -1.7283   -2.2740 H   0  0  0  0  0  0  0  0  0  0  0  0
    6.4369   -0.9549    0.5532 H   0  0  0  0  0  0  0  0  0  0  0  0
    5.6076   -0.2457   -0.8347 H   0  0  0  0  0  0  0  0  0  0  0  0
    4.2516   -1.7412    1.0033 H   0  0  0  0  0  0  0  0  0  0  0  0
    3.0673   -0.6873   -0.9265 H   0  0  0  0  0  0  0  0  0  0  0  0
    2.5981   -2.3147   -0.6948 H   0  0  0  0  0  0  0  0  0  0  0  0
    3.2653   -4.4050   -0.6024 H   0  0  0  0  0  0  0  0  0  0  0  0
    3.6733   -4.2879    1.1087 H   0  0  0  0  0  0  0  0  0  0  0  0
    4.5879   -5.3630    0.0501 H   0  0  0  0  0  0  0  0  0  0  0  0
  1  2  1  0
  1 15  1  0
  1 16  1  0
  1 17  1  0
  2  3  1  0
  2 18  1  0
  2 19  1  0
  4  3  1  6
  4 12  1  0
  4  5  1  0
  4  7  1  0
  5  6  1  0
  6 20  1  0
  6 21  1  0
  6 22  1  0
  7  8  1  0
  7 23  1  0
  7 24  1  0
  8 13  1  0
  8  9  1  0
  8 25  1  6
  9 10  1  0
  9 26  1  0
  9 27  1  0
 10 11  1  0
 10 28  1  0
 10 29  1  0
 11 12  1  0
 11 13  1  0
 11 30  1  1
 12 31  1  0
 12 32  1  0
 13 14  1  0
 14 33  1  0
 14 34  1  0
 14 35  1  0
M  END
>  <i_m_ct_stereo_status>  (9) 
1

>  <s_m_source_file>  (9) 
/var/tmp/pbs.5076255.sched01/tmp4ovtozgc/0905bh7x9.sdf

>  <i_m_source_file_index>  (9) 
4

>  <i_lp_mmshare_version>  (9) 
48012

>  <i_f3d_flags>  (9) 
0

>  <s_epik_input>  (9) 
W0NIM11bQ0gyXU9bQ0BAXShPW0NIM10pKFtDSDJdW0NAQEhdMTIpW0NIMl1bQ0BIXShbQ0gyXVtDSDJdMSlOMltDSDNd

>  <s_epik_cmdline>  (9) 
J2VwaWtfcHl0aG9uJywgJy1waHQnLCAnMi4wJywgJy1waCcsICc3LjAnLCAnLXRuJywgJzgnLCAnLW1hJywgJzIwMCcsICctaW1hZScsICc8aW5maWxlLm1hZT4nLCAnLW9tYWUnLCAnPG91dGZpbGUubWFlPic=

>  <r_epik_Ionization_Penalty>  (9) 
2.32046

>  <r_epik_Ionization_Penalty_Charging>  (9) 
0

>  <r_epik_Ionization_Penalty_Neutral>  (9) 
2.32046

>  <r_epik_State_Penalty>  (9) 
2.47259

>  <r_epik_Charging_Adjusted_Penalty>  (9) 
2.47259

>  <i_epik_Tot_Q>  (9) 
0

>  <i_epik_Tot_abs_Q>  (9) 
0

>  <s_lp_Force_Field>  (9) 
OPLS3e

>  <r_lp_Energy>  (9) 
29.4324

>  <b_lp_Chiralities_Consistent>  (9) 
1

>  <s_lp_Variant>  (9) 
1:0-3

>  <s_i_glide_gridfile>  (9) 
pfpi4k_grid

>  <i_i_glide_lignum>  (9) 
4

>  <i_i_glide_rotatable_bonds>  (9) 
3

>  <r_i_docking_score>  (9) 
-3.34264

>  <r_i_glide_ligand_efficiency>  (9) 
-0.23876

>  <r_i_glide_ligand_efficiency_sa>  (9) 
-0.575446

>  <r_i_glide_ligand_efficiency_ln>  (9) 
-0.918546

>  <r_i_glide_gscore>  (9) 
-3.34264

>  <r_i_glide_lipo>  (9) 
-0.540232

>  <r_i_glide_hbond>  (9) 
0

>  <r_i_glide_metal>  (9) 
-0

>  <r_i_glide_rewards>  (9) 
-2.0503

>  <r_i_glide_evdw>  (9) 
-14.3349

>  <r_i_glide_ecoul>  (9) 
-2.88339

>  <r_i_glide_erotb>  (9) 
0.41076

>  <r_i_glide_esite>  (9) 
-0.0136209

>  <r_i_glide_emodel>  (9) 
-17.1225

>  <r_i_glide_energy>  (9) 
-17.2183

>  <r_i_glide_einternal>  (9) 
5.78905

>  <r_i_glide_intrahb_reward>  (9) 
-0

>  <i_i_glide_confnum>  (9) 
4

>  <i_i_glide_posenum>  (9) 
11

>  <r_i_glide_eff_state_penalty>  (9) 
0

>  <ligand_id>  (9) 
1

>  <original_smiles>  (9) 
CCOC1(OC)CC2CCC(C1)N2C

>  <smiles>  (9) 
[H]C([H])([H])OC1(OC([H])([H])C([H])([H])[H])C([H])([H])C2([H])N(C([H])([H])[H])C([H])(C([H])([H])C2([H])[H])C1([H])[H]

$$$$
1:2:2
     RDKit          3D

 35 36  0  0  1  0  0  0  0  0999 V2000
    5.9921   -4.9322    2.0212 C   0  0  0  0  0  0  0  0  0  0  0  0
    4.9211   -3.8379    1.9520 C   0  0  0  0  0  0  0  0  0  0  0  0
    5.2412   -2.9596    0.8703 O   0  0  0  0  0  0  0  0  0  0  0  0
    4.2363   -2.1087    0.3969 C   0  0  1  0  0  0  0  0  0  0  0  0
    3.5680   -1.5469    1.4996 O   0  0  0  0  0  0  0  0  0  0  0  0
    2.8818   -0.3026    1.3670 C   0  0  0  0  0  0  0  0  0  0  0  0
    4.9589   -1.0145   -0.4597 C   0  0  0  0  0  0  0  0  0  0  0  0
    5.3312   -1.5355   -1.8665 C   0  0  1  0  0  0  0  0  0  0  0  0
    6.2125   -2.7963   -1.8544 C   0  0  0  0  0  0  0  0  0  0  0  0
    5.1888   -3.9505   -1.8596 C   0  0  0  0  0  0  0  0  0  0  0  0
    3.8194   -3.2474   -1.8842 C   0  0  1  0  0  0  0  0  0  0  0  0
    3.2406   -2.9467   -0.4735 C   0  0  0  0  0  0  0  0  0  0  0  0
    4.1626   -2.0197   -2.5938 N   0  0  0  0  0  0  0  0  0  0  0  0
    3.0747   -1.0780   -2.8365 C   0  0  0  0  0  0  0  0  0  0  0  0
    5.7914   -5.6161    2.8454 H   0  0  0  0  0  0  0  0  0  0  0  0
    6.9876   -4.5163    2.1624 H   0  0  0  0  0  0  0  0  0  0  0  0
    6.0131   -5.5243    1.1079 H   0  0  0  0  0  0  0  0  0  0  0  0
    3.9505   -4.3123    1.8255 H   0  0  0  0  0  0  0  0  0  0  0  0
    4.8900   -3.2771    2.8878 H   0  0  0  0  0  0  0  0  0  0  0  0
    2.2680   -0.1292    2.2537 H   0  0  0  0  0  0  0  0  0  0  0  0
    2.2134   -0.2771    0.5070 H   0  0  0  0  0  0  0  0  0  0  0  0
    3.5825    0.5351    1.2736 H   0  0  0  0  0  0  0  0  0  0  0  0
    4.3172   -0.1540   -0.5991 H   0  0  0  0  0  0  0  0  0  0  0  0
    5.8394   -0.6630    0.0703 H   0  0  0  0  0  0  0  0  0  0  0  0
    5.8072   -0.7307   -2.4219 H   0  0  0  0  0  0  0  0  0  0  0  0
    6.8288   -2.8550   -2.7523 H   0  0  0  0  0  0  0  0  0  0  0  0
    6.8965   -2.8204   -1.0020 H   0  0  0  0  0  0  0  0  0  0  0  0
    5.3117   -4.5485   -2.7644 H   0  0  0  0  0  0  0  0  0  0  0  0
    5.2869   -4.6284   -1.0079 H   0  0  0  0  0  0  0  0  0  0  0  0
    3.1005   -3.8257   -2.4643 H   0  0  0  0  0  0  0  0  0  0  0  0
    2.9746   -3.8828    0.0205 H   0  0  0  0  0  0  0  0  0  0  0  0
    2.3030   -2.4063   -0.5616 H   0  0  0  0  0  0  0  0  0  0  0  0
    2.6183   -0.6871   -1.9291 H   0  0  0  0  0  0  0  0  0  0  0  0
    2.2877   -1.5666   -3.4118 H   0  0  0  0  0  0  0  0  0  0  0  0
    3.4240   -0.2254   -3.4207 H   0  0  0  0  0  0  0  0  0  0  0  0
  1  2  1  0
  1 15  1  0
  1 16  1  0
  1 17  1  0
  2  3  1  0
  2 18  1  0
  2 19  1  0
  4  3  1  1
  4 12  1  0
  4  5  1  0
  4  7  1  0
  5  6  1  0
  6 20  1  0
  6 21  1  0
  6 22  1  0
  7  8  1  0
  7 23  1  0
  7 24  1  0
  8 13  1  0
  8  9  1  0
  8 25  1  6
  9 10  1  0
  9 26  1  0
  9 27  1  0
 10 11  1  0
 10 28  1  0
 10 29  1  0
 11 12  1  0
 11 13  1  0
 11 30  1  6
 12 31  1  0
 12 32  1  0
 13 14  1  0
 14 33  1  0
 14 34  1  0
 14 35  1  0
M  END
>  <i_m_ct_stereo_status>  (10) 
1

>  <s_m_source_file>  (10) 
/var/tmp/pbs.5076255.sched01/tmp4ovtozgc/0905bh7x9.sdf

>  <i_m_source_file_index>  (10) 
4

>  <i_lp_mmshare_version>  (10) 
48012

>  <i_f3d_flags>  (10) 
0

>  <s_epik_input>  (10) 
W0NIM11bQ0gyXU9bQ0BAXShPW0NIM10pKFtDSDJdW0NAQEhdMTIpW0NIMl1bQ0BIXShbQ0gyXVtDSDJdMSlOMltDSDNd

>  <s_epik_cmdline>  (10) 
J2VwaWtfcHl0aG9uJywgJy1waHQnLCAnMi4wJywgJy1waCcsICc3LjAnLCAnLXRuJywgJzgnLCAnLW1hJywgJzIwMCcsICctaW1hZScsICc8aW5maWxlLm1hZT4nLCAnLW9tYWUnLCAnPG91dGZpbGUubWFlPic=

>  <r_epik_Ionization_Penalty>  (10) 
2.32046

>  <r_epik_Ionization_Penalty_Charging>  (10) 
0

>  <r_epik_Ionization_Penalty_Neutral>  (10) 
2.32046

>  <r_epik_State_Penalty>  (10) 
2.47259

>  <r_epik_Charging_Adjusted_Penalty>  (10) 
2.47259

>  <i_epik_Tot_Q>  (10) 
0

>  <i_epik_Tot_abs_Q>  (10) 
0

>  <s_lp_Force_Field>  (10) 
OPLS3e

>  <r_lp_Energy>  (10) 
29.4324

>  <b_lp_Chiralities_Consistent>  (10) 
1

>  <s_lp_Variant>  (10) 
1:0-3

>  <s_i_glide_gridfile>  (10) 
pfpi4k_grid

>  <i_i_glide_lignum>  (10) 
4

>  <i_i_glide_rotatable_bonds>  (10) 
3

>  <r_i_docking_score>  (10) 
-2.73568

>  <r_i_glide_ligand_efficiency>  (10) 
-0.195406

>  <r_i_glide_ligand_efficiency_sa>  (10) 
-0.470956

>  <r_i_glide_ligand_efficiency_ln>  (10) 
-0.751756

>  <r_i_glide_gscore>  (10) 
-2.73568

>  <r_i_glide_lipo>  (10) 
-0.0788383

>  <r_i_glide_hbond>  (10) 
0

>  <r_i_glide_metal>  (10) 
-0

>  <r_i_glide_rewards>  (10) 
-2.0503

>  <r_i_glide_evdw>  (10) 
-14.1903

>  <r_i_glide_ecoul>  (10) 
-1.98394

>  <r_i_glide_erotb>  (10) 
0.41076

>  <r_i_glide_esite>  (10) 
-0.0102018

>  <r_i_glide_emodel>  (10) 
-15.8309

>  <r_i_glide_energy>  (10) 
-16.1743

>  <r_i_glide_einternal>  (10) 
5.79781

>  <r_i_glide_intrahb_reward>  (10) 
-0

>  <i_i_glide_confnum>  (10) 
4

>  <i_i_glide_posenum>  (10) 
17

>  <r_i_glide_eff_state_penalty>  (10) 
0

>  <ligand_id>  (10) 
1

>  <original_smiles>  (10) 
CCOC1(OC)CC2CCC(C1)N2C

>  <smiles>  (10) 
[H]C([H])([H])OC1(OC([H])([H])C([H])([H])[H])C([H])([H])C2([H])N(C([H])([H])[H])C([H])(C([H])([H])C2([H])[H])C1([H])[H]

$$$$
1:3:0
     RDKit          3D

 35 36  0  0  1  0  0  0  0  0999 V2000
    3.4112    0.1883   -5.5462 C   0  0  0  0  0  0  0  0  0  0  0  0
    3.1517   -0.5966   -4.2746 C   0  0  0  0  0  0  0  0  0  0  0  0
    4.2645   -1.4771   -4.0346 O   0  0  0  0  0  0  0  0  0  0  0  0
    4.3733   -2.0094   -2.7312 C   0  0  2  0  0  0  0  0  0  0  0  0
    3.1780   -2.6089   -2.3077 O   0  0  0  0  0  0  0  0  0  0  0  0
    2.5164   -3.5296   -3.1887 C   0  0  0  0  0  0  0  0  0  0  0  0
    4.7088   -0.8274   -1.7568 C   0  0  0  0  0  0  0  0  0  0  0  0
    5.3352   -1.2824   -0.4203 C   0  0  1  0  0  0  0  0  0  0  0  0
    4.4950   -2.3361    0.3283 C   0  0  0  0  0  0  0  0  0  0  0  0
    5.0305   -3.6640   -0.2168 C   0  0  0  0  0  0  0  0  0  0  0  0
    6.1071   -3.2261   -1.2220 C   0  0  1  0  0  0  0  0  0  0  0  0
    5.5622   -3.0554   -2.6723 C   0  0  0  0  0  0  0  0  0  0  0  0
    6.5981   -1.9317   -0.7414 N   0  0  0  0  0  0  0  0  0  0  0  0
    7.4687   -2.0614    0.4303 C   0  0  0  0  0  0  0  0  0  0  0  0
    2.5416    0.8116   -5.7561 H   0  0  0  0  0  0  0  0  0  0  0  0
    3.5345   -0.4924   -6.3834 H   0  0  0  0  0  0  0  0  0  0  0  0
    4.2872    0.8381   -5.4670 H   0  0  0  0  0  0  0  0  0  0  0  0
    2.9656    0.1129   -3.4736 H   0  0  0  0  0  0  0  0  0  0  0  0
    2.2428   -1.1615   -4.4457 H   0  0  0  0  0  0  0  0  0  0  0  0
    1.9617   -4.2492   -2.5818 H   0  0  0  0  0  0  0  0  0  0  0  0
    3.2015   -4.0926   -3.8138 H   0  0  0  0  0  0  0  0  0  0  0  0
    1.7968   -3.0332   -3.8279 H   0  0  0  0  0  0  0  0  0  0  0  0
    5.3990   -0.1665   -2.2751 H   0  0  0  0  0  0  0  0  0  0  0  0
    3.8109   -0.2620   -1.5316 H   0  0  0  0  0  0  0  0  0  0  0  0
    5.5092   -0.4037    0.2083 H   0  0  0  0  0  0  0  0  0  0  0  0
    4.6534   -2.2743    1.4055 H   0  0  0  0  0  0  0  0  0  0  0  0
    3.4287   -2.1994    0.1544 H   0  0  0  0  0  0  0  0  0  0  0  0
    5.4598   -4.2622    0.5885 H   0  0  0  0  0  0  0  0  0  0  0  0
    4.2604   -4.2763   -0.6909 H   0  0  0  0  0  0  0  0  0  0  0  0
    6.9535   -3.9079   -1.2148 H   0  0  0  0  0  0  0  0  0  0  0  0
    5.2721   -4.0138   -3.1058 H   0  0  0  0  0  0  0  0  0  0  0  0
    6.3883   -2.7175   -3.2846 H   0  0  0  0  0  0  0  0  0  0  0  0
    8.3780   -2.6054    0.1748 H   0  0  0  0  0  0  0  0  0  0  0  0
    6.9968   -2.5893    1.2584 H   0  0  0  0  0  0  0  0  0  0  0  0
    7.7698   -1.0812    0.8017 H   0  0  0  0  0  0  0  0  0  0  0  0
  1  2  1  0
  1 15  1  0
  1 16  1  0
  1 17  1  0
  2  3  1  0
  2 18  1  0
  2 19  1  0
  4  3  1  6
  4 12  1  0
  4  5  1  0
  4  7  1  0
  5  6  1  0
  6 20  1  0
  6 21  1  0
  6 22  1  0
  7  8  1  0
  7 23  1  0
  7 24  1  0
  8 13  1  0
  8  9  1  0
  8 25  1  1
  9 10  1  0
  9 26  1  0
  9 27  1  0
 10 11  1  0
 10 28  1  0
 10 29  1  0
 11 12  1  0
 11 13  1  0
 11 30  1  6
 12 31  1  0
 12 32  1  0
 13 14  1  0
 14 33  1  0
 14 34  1  0
 14 35  1  0
M  END
>  <i_m_ct_stereo_status>  (11) 
1

>  <s_m_source_file>  (11) 
/var/tmp/pbs.5076255.sched01/tmp4ovtozgc/0905bh7x9.sdf

>  <i_m_source_file_index>  (11) 
5

>  <i_lp_mmshare_version>  (11) 
48012

>  <i_f3d_flags>  (11) 
0

>  <s_epik_input>  (11) 
W0NIM11bQ0gyXU9bQ0BAXShPW0NIM10pKFtDSDJdW0NAQEhdMTIpW0NIMl1bQ0BIXShbQ0gyXVtDSDJdMSlOMltDSDNd

>  <s_epik_cmdline>  (11) 
J2VwaWtfcHl0aG9uJywgJy1waHQnLCAnMi4wJywgJy1waCcsICc3LjAnLCAnLXRuJywgJzgnLCAnLW1hJywgJzIwMCcsICctaW1hZScsICc8aW5maWxlLm1hZT4nLCAnLW9tYWUnLCAnPG91dGZpbGUubWFlPic=

>  <r_epik_Ionization_Penalty>  (11) 
2.32046

>  <r_epik_Ionization_Penalty_Charging>  (11) 
0

>  <r_epik_Ionization_Penalty_Neutral>  (11) 
2.32046

>  <r_epik_State_Penalty>  (11) 
2.47259

>  <r_epik_Charging_Adjusted_Penalty>  (11) 
2.47259

>  <i_epik_Tot_Q>  (11) 
0

>  <i_epik_Tot_abs_Q>  (11) 
0

>  <s_lp_Force_Field>  (11) 
OPLS3e

>  <r_lp_Energy>  (11) 
29.61

>  <b_lp_Chiralities_Consistent>  (11) 
1

>  <s_lp_Variant>  (11) 
1:0-4

>  <s_i_glide_gridfile>  (11) 
pfpi4k_grid

>  <i_i_glide_lignum>  (11) 
5

>  <i_i_glide_rotatable_bonds>  (11) 
3

>  <r_i_docking_score>  (11) 
-4.608

>  <r_i_glide_ligand_efficiency>  (11) 
-0.329143

>  <r_i_glide_ligand_efficiency_sa>  (11) 
-0.79328

>  <r_i_glide_ligand_efficiency_ln>  (11) 
-1.26626

>  <r_i_glide_gscore>  (11) 
-4.608

>  <r_i_glide_lipo>  (11) 
-0.939708

>  <r_i_glide_hbond>  (11) 
-0.261557

>  <r_i_glide_metal>  (11) 
-0

>  <r_i_glide_rewards>  (11) 
-2.12001

>  <r_i_glide_evdw>  (11) 
-19.4325

>  <r_i_glide_ecoul>  (11) 
-4.83907

>  <r_i_glide_erotb>  (11) 
0.41076

>  <r_i_glide_esite>  (11) 
0

>  <r_i_glide_emodel>  (11) 
-30.1119

>  <r_i_glide_energy>  (11) 
-24.2716

>  <r_i_glide_einternal>  (11) 
1.96644

>  <r_i_glide_intrahb_reward>  (11) 
-0

>  <i_i_glide_confnum>  (11) 
1

>  <i_i_glide_posenum>  (11) 
17

>  <r_i_glide_eff_state_penalty>  (11) 
0

>  <ligand_id>  (11) 
1

>  <original_smiles>  (11) 
CCOC1(OC)CC2CCC(C1)N2C

>  <smiles>  (11) 
[H]C([H])([H])OC1(OC([H])([H])C([H])([H])[H])C([H])([H])C2([H])N(C([H])([H])[H])C([H])(C([H])([H])C2([H])[H])C1([H])[H]

$$$$
1:3:1
     RDKit          3D

 35 36  0  0  1  0  0  0  0  0999 V2000
    3.7956   -0.6536   -4.4602 C   0  0  0  0  0  0  0  0  0  0  0  0
    4.0934   -0.7408   -2.9641 C   0  0  0  0  0  0  0  0  0  0  0  0
    4.2030   -2.1029   -2.5595 O   0  0  0  0  0  0  0  0  0  0  0  0
    4.8178   -2.3157   -1.3070 C   0  0  2  0  0  0  0  0  0  0  0  0
    6.1868   -1.9594   -1.3486 O   0  0  0  0  0  0  0  0  0  0  0  0
    7.0219   -2.7491   -2.1750 C   0  0  0  0  0  0  0  0  0  0  0  0
    4.6163   -3.8242   -0.9391 C   0  0  0  0  0  0  0  0  0  0  0  0
    4.7929   -4.0804    0.5874 C   0  0  1  0  0  0  0  0  0  0  0  0
    6.1243   -3.5688    1.1844 C   0  0  0  0  0  0  0  0  0  0  0  0
    5.8185   -2.1229    1.5919 C   0  0  0  0  0  0  0  0  0  0  0  0
    4.3355   -1.9534    1.2137 C   0  0  1  0  0  0  0  0  0  0  0  0
    4.1258   -1.4170   -0.2265 C   0  0  0  0  0  0  0  0  0  0  0  0
    3.7674   -3.2961    1.2650 N   0  0  0  0  0  0  0  0  0  0  0  0
    3.5394   -3.7408    2.6418 C   0  0  0  0  0  0  0  0  0  0  0  0
    3.6464    0.3828   -4.7610 H   0  0  0  0  0  0  0  0  0  0  0  0
    2.8862   -1.2044   -4.6960 H   0  0  0  0  0  0  0  0  0  0  0  0
    4.6133   -1.0614   -5.0516 H   0  0  0  0  0  0  0  0  0  0  0  0
    5.0091   -0.1859   -2.7310 H   0  0  0  0  0  0  0  0  0  0  0  0
    3.2727   -0.2587   -2.4388 H   0  0  0  0  0  0  0  0  0  0  0  0
    7.9700   -2.2334   -2.3205 H   0  0  0  0  0  0  0  0  0  0  0  0
    6.5838   -2.9757   -3.1490 H   0  0  0  0  0  0  0  0  0  0  0  0
    7.2886   -3.6874   -1.6994 H   0  0  0  0  0  0  0  0  0  0  0  0
    3.5844   -4.0794   -1.2024 H   0  0  0  0  0  0  0  0  0  0  0  0
    5.2237   -4.4955   -1.5425 H   0  0  0  0  0  0  0  0  0  0  0  0
    4.6500   -5.1404    0.7856 H   0  0  0  0  0  0  0  0  0  0  0  0
    6.3950   -4.1538    2.0643 H   0  0  0  0  0  0  0  0  0  0  0  0
    6.9631   -3.6433    0.4969 H   0  0  0  0  0  0  0  0  0  0  0  0
    5.9591   -1.9868    2.6664 H   0  0  0  0  0  0  0  0  0  0  0  0
    6.4547   -1.3899    1.0928 H   0  0  0  0  0  0  0  0  0  0  0  0
    3.8228   -1.2887    1.9083 H   0  0  0  0  0  0  0  0  0  0  0  0
    4.4741   -0.3905   -0.3061 H   0  0  0  0  0  0  0  0  0  0  0  0
    3.0554   -1.4198   -0.4217 H   0  0  0  0  0  0  0  0  0  0  0  0
    2.7996   -3.1017    3.1267 H   0  0  0  0  0  0  0  0  0  0  0  0
    4.4450   -3.7203    3.2460 H   0  0  0  0  0  0  0  0  0  0  0  0
    3.1544   -4.7611    2.6476 H   0  0  0  0  0  0  0  0  0  0  0  0
  1  2  1  0
  1 15  1  0
  1 16  1  0
  1 17  1  0
  2  3  1  0
  2 18  1  0
  2 19  1  0
  4  3  1  6
  4 12  1  0
  4  5  1  0
  4  7  1  0
  5  6  1  0
  6 20  1  0
  6 21  1  0
  6 22  1  0
  7  8  1  0
  7 23  1  0
  7 24  1  0
  8 13  1  0
  8  9  1  0
  8 25  1  6
  9 10  1  0
  9 26  1  0
  9 27  1  0
 10 11  1  0
 10 28  1  0
 10 29  1  0
 11 12  1  0
 11 13  1  0
 11 30  1  1
 12 31  1  0
 12 32  1  0
 13 14  1  0
 14 33  1  0
 14 34  1  0
 14 35  1  0
M  END
>  <i_m_ct_stereo_status>  (12) 
1

>  <s_m_source_file>  (12) 
/var/tmp/pbs.5076255.sched01/tmp4ovtozgc/0905bh7x9.sdf

>  <i_m_source_file_index>  (12) 
5

>  <i_lp_mmshare_version>  (12) 
48012

>  <i_f3d_flags>  (12) 
0

>  <s_epik_input>  (12) 
W0NIM11bQ0gyXU9bQ0BAXShPW0NIM10pKFtDSDJdW0NAQEhdMTIpW0NIMl1bQ0BIXShbQ0gyXVtDSDJdMSlOMltDSDNd

>  <s_epik_cmdline>  (12) 
J2VwaWtfcHl0aG9uJywgJy1waHQnLCAnMi4wJywgJy1waCcsICc3LjAnLCAnLXRuJywgJzgnLCAnLW1hJywgJzIwMCcsICctaW1hZScsICc8aW5maWxlLm1hZT4nLCAnLW9tYWUnLCAnPG91dGZpbGUubWFlPic=

>  <r_epik_Ionization_Penalty>  (12) 
2.32046

>  <r_epik_Ionization_Penalty_Charging>  (12) 
0

>  <r_epik_Ionization_Penalty_Neutral>  (12) 
2.32046

>  <r_epik_State_Penalty>  (12) 
2.47259

>  <r_epik_Charging_Adjusted_Penalty>  (12) 
2.47259

>  <i_epik_Tot_Q>  (12) 
0

>  <i_epik_Tot_abs_Q>  (12) 
0

>  <s_lp_Force_Field>  (12) 
OPLS3e

>  <r_lp_Energy>  (12) 
29.61

>  <b_lp_Chiralities_Consistent>  (12) 
1

>  <s_lp_Variant>  (12) 
1:0-4

>  <s_i_glide_gridfile>  (12) 
pfpi4k_grid

>  <i_i_glide_lignum>  (12) 
5

>  <i_i_glide_rotatable_bonds>  (12) 
3

>  <r_i_docking_score>  (12) 
-3.36209

>  <r_i_glide_ligand_efficiency>  (12) 
-0.240149

>  <r_i_glide_ligand_efficiency_sa>  (12) 
-0.578793

>  <r_i_glide_ligand_efficiency_ln>  (12) 
-0.923889

>  <r_i_glide_gscore>  (12) 
-3.36209

>  <r_i_glide_lipo>  (12) 
-0.552728

>  <r_i_glide_hbond>  (12) 
-0.127707

>  <r_i_glide_metal>  (12) 
-0

>  <r_i_glide_rewards>  (12) 
-2.0503

>  <r_i_glide_evdw>  (12) 
-16.5343

>  <r_i_glide_ecoul>  (12) 
-1.29389

>  <r_i_glide_erotb>  (12) 
0.41076

>  <r_i_glide_esite>  (12) 
-0.0213171

>  <r_i_glide_emodel>  (12) 
-22.1017

>  <r_i_glide_energy>  (12) 
-17.8282

>  <r_i_glide_einternal>  (12) 
1.10792

>  <r_i_glide_intrahb_reward>  (12) 
-0

>  <i_i_glide_confnum>  (12) 
1

>  <i_i_glide_posenum>  (12) 
1

>  <r_i_glide_eff_state_penalty>  (12) 
0

>  <ligand_id>  (12) 
1

>  <original_smiles>  (12) 
CCOC1(OC)CC2CCC(C1)N2C

>  <smiles>  (12) 
[H]C([H])([H])OC1(OC([H])([H])C([H])([H])[H])C([H])([H])C2([H])N(C([H])([H])[H])C([H])(C([H])([H])C2([H])[H])C1([H])[H]

$$$$
1:3:2
     RDKit          3D

 35 36  0  0  1  0  0  0  0  0999 V2000
    2.6678    0.4775   -4.9595 C   0  0  0  0  0  0  0  0  0  0  0  0
    3.7443   -0.1537   -4.0788 C   0  0  0  0  0  0  0  0  0  0  0  0
    3.1678   -1.2047   -3.3009 O   0  0  0  0  0  0  0  0  0  0  0  0
    4.0649   -2.0166   -2.5880 C   0  0  2  0  0  0  0  0  0  0  0  0
    4.9170   -2.6895   -3.4753 O   0  0  0  0  0  0  0  0  0  0  0  0
    4.3422   -3.6782   -4.3188 C   0  0  0  0  0  0  0  0  0  0  0  0
    3.2500   -3.0292   -1.7238 C   0  0  0  0  0  0  0  0  0  0  0  0
    4.1090   -3.6244   -0.5739 C   0  0  1  0  0  0  0  0  0  0  0  0
    5.4369   -4.2633   -1.0223 C   0  0  0  0  0  0  0  0  0  0  0  0
    6.4435   -3.1046   -0.9907 C   0  0  0  0  0  0  0  0  0  0  0  0
    5.5976   -1.9154   -0.5068 C   0  0  1  0  0  0  0  0  0  0  0  0
    4.9439   -1.1194   -1.6592 C   0  0  0  0  0  0  0  0  0  0  0  0
    4.5153   -2.5054    0.2722 N   0  0  0  0  0  0  0  0  0  0  0  0
    4.9642   -2.9432    1.5956 C   0  0  0  0  0  0  0  0  0  0  0  0
    3.0783    1.3119   -5.5327 H   0  0  0  0  0  0  0  0  0  0  0  0
    1.8505    0.8617   -4.3530 H   0  0  0  0  0  0  0  0  0  0  0  0
    2.2611   -0.2517   -5.6539 H   0  0  0  0  0  0  0  0  0  0  0  0
    4.5454   -0.5449   -4.7073 H   0  0  0  0  0  0  0  0  0  0  0  0
    4.1642    0.6311   -3.4454 H   0  0  0  0  0  0  0  0  0  0  0  0
    5.0356   -3.9073   -5.1242 H   0  0  0  0  0  0  0  0  0  0  0  0
    3.3903   -3.3454   -4.7493 H   0  0  0  0  0  0  0  0  0  0  0  0
    4.2023   -4.6292   -3.8145 H   0  0  0  0  0  0  0  0  0  0  0  0
    2.4216   -2.4781   -1.2877 H   0  0  0  0  0  0  0  0  0  0  0  0
    2.7790   -3.8069   -2.3282 H   0  0  0  0  0  0  0  0  0  0  0  0
    3.4969   -4.3318   -0.0100 H   0  0  0  0  0  0  0  0  0  0  0  0
    5.7425   -5.0400   -0.3236 H   0  0  0  0  0  0  0  0  0  0  0  0
    5.3683   -4.7216   -2.0047 H   0  0  0  0  0  0  0  0  0  0  0  0
    7.2554   -3.3175   -0.2946 H   0  0  0  0  0  0  0  0  0  0  0  0
    6.9015   -2.9169   -1.9642 H   0  0  0  0  0  0  0  0  0  0  0  0
    6.1840   -1.2301    0.1074 H   0  0  0  0  0  0  0  0  0  0  0  0
    5.6999   -0.5998   -2.2481 H   0  0  0  0  0  0  0  0  0  0  0  0
    4.2955   -0.3570   -1.2295 H   0  0  0  0  0  0  0  0  0  0  0  0
    5.2990   -2.0898    2.1840 H   0  0  0  0  0  0  0  0  0  0  0  0
    5.7856   -3.6565    1.5486 H   0  0  0  0  0  0  0  0  0  0  0  0
    4.1433   -3.4162    2.1329 H   0  0  0  0  0  0  0  0  0  0  0  0
  1  2  1  0
  1 15  1  0
  1 16  1  0
  1 17  1  0
  2  3  1  0
  2 18  1  0
  2 19  1  0
  4  3  1  6
  4 12  1  0
  4  5  1  0
  4  7  1  0
  5  6  1  0
  6 20  1  0
  6 21  1  0
  6 22  1  0
  7  8  1  0
  7 23  1  0
  7 24  1  0
  8 13  1  0
  8  9  1  0
  8 25  1  1
  9 10  1  0
  9 26  1  0
  9 27  1  0
 10 11  1  0
 10 28  1  0
 10 29  1  0
 11 12  1  0
 11 13  1  0
 11 30  1  1
 12 31  1  0
 12 32  1  0
 13 14  1  0
 14 33  1  0
 14 34  1  0
 14 35  1  0
M  END
>  <i_m_ct_stereo_status>  (13) 
1

>  <s_m_source_file>  (13) 
/var/tmp/pbs.5076255.sched01/tmp4ovtozgc/0905bh7x9.sdf

>  <i_m_source_file_index>  (13) 
5

>  <i_lp_mmshare_version>  (13) 
48012

>  <i_f3d_flags>  (13) 
0

>  <s_epik_input>  (13) 
W0NIM11bQ0gyXU9bQ0BAXShPW0NIM10pKFtDSDJdW0NAQEhdMTIpW0NIMl1bQ0BIXShbQ0gyXVtDSDJdMSlOMltDSDNd

>  <s_epik_cmdline>  (13) 
J2VwaWtfcHl0aG9uJywgJy1waHQnLCAnMi4wJywgJy1waCcsICc3LjAnLCAnLXRuJywgJzgnLCAnLW1hJywgJzIwMCcsICctaW1hZScsICc8aW5maWxlLm1hZT4nLCAnLW9tYWUnLCAnPG91dGZpbGUubWFlPic=

>  <r_epik_Ionization_Penalty>  (13) 
2.32046

>  <r_epik_Ionization_Penalty_Charging>  (13) 
0

>  <r_epik_Ionization_Penalty_Neutral>  (13) 
2.32046

>  <r_epik_State_Penalty>  (13) 
2.47259

>  <r_epik_Charging_Adjusted_Penalty>  (13) 
2.47259

>  <i_epik_Tot_Q>  (13) 
0

>  <i_epik_Tot_abs_Q>  (13) 
0

>  <s_lp_Force_Field>  (13) 
OPLS3e

>  <r_lp_Energy>  (13) 
29.61

>  <b_lp_Chiralities_Consistent>  (13) 
1

>  <s_lp_Variant>  (13) 
1:0-4

>  <s_i_glide_gridfile>  (13) 
pfpi4k_grid

>  <i_i_glide_lignum>  (13) 
5

>  <i_i_glide_rotatable_bonds>  (13) 
3

>  <r_i_docking_score>  (13) 
-2.98739

>  <r_i_glide_ligand_efficiency>  (13) 
-0.213385

>  <r_i_glide_ligand_efficiency_sa>  (13) 
-0.514288

>  <r_i_glide_ligand_efficiency_ln>  (13) 
-0.820924

>  <r_i_glide_gscore>  (13) 
-2.98739

>  <r_i_glide_lipo>  (13) 
-0.334996

>  <r_i_glide_hbond>  (13) 
0

>  <r_i_glide_metal>  (13) 
-0

>  <r_i_glide_rewards>  (13) 
-2.07102

>  <r_i_glide_evdw>  (13) 
-19.8811

>  <r_i_glide_ecoul>  (13) 
0.0128222

>  <r_i_glide_erotb>  (13) 
0.41076

>  <r_i_glide_esite>  (13) 
0

>  <r_i_glide_emodel>  (13) 
-23.8632

>  <r_i_glide_energy>  (13) 
-19.8682

>  <r_i_glide_einternal>  (13) 
0.612806

>  <r_i_glide_intrahb_reward>  (13) 
-0

>  <i_i_glide_confnum>  (13) 
1

>  <i_i_glide_posenum>  (13) 
9

>  <r_i_glide_eff_state_penalty>  (13) 
0

>  <ligand_id>  (13) 
1

>  <original_smiles>  (13) 
CCOC1(OC)CC2CCC(C1)N2C

>  <smiles>  (13) 
[H]C([H])([H])OC1(OC([H])([H])C([H])([H])[H])C([H])([H])C2([H])N(C([H])([H])[H])C([H])(C([H])([H])C2([H])[H])C1([H])[H]

$$$$
2:0:0
     RDKit          3D

 35 37  0  0  1  0  0  0  0  0999 V2000
    3.0654   -0.2055   -4.6668 C   0  0  0  0  0  0  0  0  0  0  0  0
    3.0004   -1.4496   -3.7722 C   0  0  0  0  0  0  0  0  0  0  0  0
    3.0168   -1.0601   -2.3458 N   0  0  0  0  0  0  0  0  0  0  0  0
    3.8153   -1.8503   -1.3855 C   0  0  2  0  0  0  0  0  0  0  0  0
    3.1590   -3.2351   -1.1821 C   0  0  0  0  0  0  0  0  0  0  0  0
    3.9851   -4.0484   -0.1582 C   0  0  1  0  0  0  0  0  0  0  0  0
    5.4178   -4.2060   -0.6905 C   0  0  0  0  0  0  0  0  0  0  0  0
    6.0865   -2.8212   -0.8419 C   0  0  2  0  0  0  0  0  0  0  0  0
    6.1043   -2.0706    0.4993 C   0  0  0  0  0  0  0  0  0  0  0  0
    4.6569   -1.9225    1.0121 C   0  0  2  0  0  0  0  0  0  0  0  0
    4.0161   -3.3128    1.1968 C   0  0  0  0  0  0  0  0  0  0  0  0
    3.8266   -1.1183   -0.0191 C   0  0  0  0  0  0  0  0  0  0  0  0
    5.2878   -2.0059   -1.8674 C   0  0  0  0  0  0  0  0  0  0  0  0
    3.0859   -0.4930   -5.7167 H   0  0  0  0  0  0  0  0  0  0  0  0
    3.9698    0.3722   -4.4719 H   0  0  0  0  0  0  0  0  0  0  0  0
    2.2040    0.4474   -4.5120 H   0  0  0  0  0  0  0  0  0  0  0  0
    2.0906   -2.0228   -3.9633 H   0  0  0  0  0  0  0  0  0  0  0  0
    3.8175   -2.1135   -4.0858 H   0  0  0  0  0  0  0  0  0  0  0  0
    3.3461   -0.0976   -2.2981 H   0  0  0  0  0  0  0  0  0  0  0  0
    2.1369   -3.1271   -0.8204 H   0  0  0  0  0  0  0  0  0  0  0  0
    3.0973   -3.7867   -2.1173 H   0  0  0  0  0  0  0  0  0  0  0  0
    3.5308   -5.0308   -0.0331 H   0  0  0  0  0  0  0  0  0  0  0  0
    6.0082   -4.8399   -0.0224 H   0  0  0  0  0  0  0  0  0  0  0  0
    5.3901   -4.7140   -1.6536 H   0  0  0  0  0  0  0  0  0  0  0  0
    7.1028   -2.9453   -1.2138 H   0  0  0  0  0  0  0  0  0  0  0  0
    6.7149   -2.6112    1.2251 H   0  0  0  0  0  0  0  0  0  0  0  0
    6.5590   -1.0874    0.3724 H   0  0  0  0  0  0  0  0  0  0  0  0
    4.6699   -1.3965    1.9684 H   0  0  0  0  0  0  0  0  0  0  0  0
    3.0074   -3.2145    1.5996 H   0  0  0  0  0  0  0  0  0  0  0  0
    4.5868   -3.8933    1.9260 H   0  0  0  0  0  0  0  0  0  0  0  0
    4.2472   -0.1146   -0.1138 H   0  0  0  0  0  0  0  0  0  0  0  0
    2.8144   -0.9790    0.3703 H   0  0  0  0  0  0  0  0  0  0  0  0
    5.3957   -2.5574   -2.7986 H   0  0  0  0  0  0  0  0  0  0  0  0
    5.7368   -1.0244   -2.0131 H   0  0  0  0  0  0  0  0  0  0  0  0
    2.0609   -1.0489   -1.9758 H   0  0  0  0  0  0  0  0  0  0  0  0
  1  2  1  0
  1 14  1  0
  1 15  1  0
  1 16  1  0
  2  3  1  0
  2 17  1  0
  2 18  1  0
  4  3  1  6
  3 19  1  0
  3 35  1  0
  4 12  1  0
  4 13  1  0
  4  5  1  0
  5  6  1  0
  5 20  1  0
  5 21  1  0
  6 11  1  0
  6  7  1  0
  6 22  1  1
  7  8  1  0
  7 23  1  0
  7 24  1  0
  8  9  1  0
  8 13  1  0
  8 25  1  6
  9 10  1  0
  9 26  1  0
  9 27  1  0
 10 11  1  0
 10 12  1  0
 10 28  1  1
 11 29  1  0
 11 30  1  0
 12 31  1  0
 12 32  1  0
 13 33  1  0
 13 34  1  0
M  CHG  1   3   1
M  END
>  <i_m_ct_stereo_status>  (14) 
1

>  <s_m_source_file>  (14) 
/var/tmp/pbs.5076255.sched01/tmp4ovtozgc/0905bh7x9.sdf

>  <i_m_source_file_index>  (14) 
6

>  <i_lp_mmshare_version>  (14) 
48012

>  <i_f3d_flags>  (14) 
0

>  <s_epik_input>  (14) 
W0NIM11bQ0gyXVtOSF1DMTJbQ0gyXVtDQEhdM1tDSDJdW0NAQEhdKFtDSDJdMilbQ0gyXVtDQEhdKFtDSDJdMylbQ0gyXTE=

>  <s_epik_cmdline>  (14) 
J2VwaWtfcHl0aG9uJywgJy1waHQnLCAnMi4wJywgJy1waCcsICc3LjAnLCAnLXRuJywgJzgnLCAnLW1hJywgJzIwMCcsICctaW1hZScsICc8aW5maWxlLm1hZT4nLCAnLW9tYWUnLCAnPG91dGZpbGUubWFlPic=

>  <r_lp_tautomer_probability>  (14) 
1

>  <r_epik_Ionization_Penalty>  (14) 
5.08465e-05

>  <r_epik_Ionization_Penalty_Charging>  (14) 
5.08465e-05

>  <r_epik_Ionization_Penalty_Neutral>  (14) 
0

>  <r_epik_State_Penalty>  (14) 
-0

>  <r_epik_Charging_Adjusted_Penalty>  (14) 
5.08465e-05

>  <i_epik_Tot_Q>  (14) 
1

>  <i_epik_Tot_abs_Q>  (14) 
1

>  <s_lp_Force_Field>  (14) 
OPLS3e

>  <r_lp_Energy>  (14) 
9.87553

>  <b_lp_Chiralities_Consistent>  (14) 
1

>  <s_lp_Variant>  (14) 
2:0-1

>  <s_i_glide_gridfile>  (14) 
pfpi4k_grid

>  <i_i_glide_lignum>  (14) 
6

>  <i_i_glide_rotatable_bonds>  (14) 
2

>  <r_i_docking_score>  (14) 
-4.78225

>  <r_i_glide_ligand_efficiency>  (14) 
-0.367865

>  <r_i_glide_ligand_efficiency_sa>  (14) 
-0.864974

>  <r_i_glide_ligand_efficiency_ln>  (14) 
-1.34146

>  <r_i_glide_gscore>  (14) 
-4.78225

>  <r_i_glide_lipo>  (14) 
-0.638386

>  <r_i_glide_hbond>  (14) 
-0.2

>  <r_i_glide_metal>  (14) 
-0

>  <r_i_glide_rewards>  (14) 
-2.17971

>  <r_i_glide_evdw>  (14) 
-20.0995

>  <r_i_glide_ecoul>  (14) 
-4.58499

>  <r_i_glide_erotb>  (14) 
0

>  <r_i_glide_esite>  (14) 
-0.0714308

>  <r_i_glide_emodel>  (14) 
-32.2979

>  <r_i_glide_energy>  (14) 
-24.6845

>  <r_i_glide_einternal>  (14) 
2.34878

>  <r_i_glide_intrahb_reward>  (14) 
-0

>  <i_i_glide_confnum>  (14) 
2

>  <i_i_glide_posenum>  (14) 
10

>  <r_i_glide_eff_state_penalty>  (14) 
0

>  <ligand_id>  (14) 
2

>  <original_smiles>  (14) 
CCNC12CC3CC(CC(C3)C1)C2

>  <smiles>  (14) 
[H]C([H])([H])C([H])([H])[N+]([H])([H])C12C([H])([H])C3([H])C([H])([H])C([H])(C([H])([H])C([H])(C3([H])[H])C1([H])[H])C2([H])[H]

$$$$
2:0:1
     RDKit          3D

 35 37  0  0  1  0  0  0  0  0999 V2000
    1.9346   -6.3940    1.3911 C   0  0  0  0  0  0  0  0  0  0  0  0
    2.8279   -5.1496    1.3355 C   0  0  0  0  0  0  0  0  0  0  0  0
    3.5464   -5.0643    0.0799 N   0  0  0  0  0  0  0  0  0  0  0  0
    4.3922   -3.8541   -0.1531 C   0  0  2  0  0  0  0  0  0  0  0  0
    3.6091   -2.5316    0.0974 C   0  0  0  0  0  0  0  0  0  0  0  0
    4.5023   -1.3187   -0.1840 C   0  0  1  0  0  0  0  0  0  0  0  0
    5.7310   -1.3734    0.7472 C   0  0  0  0  0  0  0  0  0  0  0  0
    6.5395   -2.6579    0.4655 C   0  0  2  0  0  0  0  0  0  0  0  0
    6.9941   -2.6852   -1.0051 C   0  0  0  0  0  0  0  0  0  0  0  0
    5.7549   -2.6317   -1.9233 C   0  0  2  0  0  0  0  0  0  0  0  0
    4.9533   -1.3372   -1.6553 C   0  0  0  0  0  0  0  0  0  0  0  0
    4.8599   -3.8498   -1.6380 C   0  0  0  0  0  0  0  0  0  0  0  0
    5.6577   -3.8872    0.7498 C   0  0  0  0  0  0  0  0  0  0  0  0
    1.3954   -6.4272    2.3362 H   0  0  0  0  0  0  0  0  0  0  0  0
    2.5261   -7.3069    1.3021 H   0  0  0  0  0  0  0  0  0  0  0  0
    1.2032   -6.3738    0.5845 H   0  0  0  0  0  0  0  0  0  0  0  0
    2.1661   -4.2859    1.4914 H   0  0  0  0  0  0  0  0  0  0  0  0
    3.5223   -5.1655    2.1902 H   0  0  0  0  0  0  0  0  0  0  0  0
    4.1480   -5.8689   -0.0221 H   0  0  0  0  0  0  0  0  0  0  0  0
    2.7138   -2.4940   -0.5279 H   0  0  0  0  0  0  0  0  0  0  0  0
    3.2733   -2.4432    1.1308 H   0  0  0  0  0  0  0  0  0  0  0  0
    3.9339   -0.4083    0.0122 H   0  0  0  0  0  0  0  0  0  0  0  0
    6.3539   -0.4858    0.6117 H   0  0  0  0  0  0  0  0  0  0  0  0
    5.4054   -1.3607    1.7907 H   0  0  0  0  0  0  0  0  0  0  0  0
    7.4146   -2.6841    1.1148 H   0  0  0  0  0  0  0  0  0  0  0  0
    7.6656   -1.8585   -1.2093 H   0  0  0  0  0  0  0  0  0  0  0  0
    7.5708   -3.5924   -1.2063 H   0  0  0  0  0  0  0  0  0  0  0  0
    6.0746   -2.6559   -2.9637 H   0  0  0  0  0  0  0  0  0  0  0  0
    4.0828   -1.2827   -2.3141 H   0  0  0  0  0  0  0  0  0  0  0  0
    5.5556   -0.4503   -1.8729 H   0  0  0  0  0  0  0  0  0  0  0  0
    5.4095   -4.7614   -1.8658 H   0  0  0  0  0  0  0  0  0  0  0  0
    3.9970   -3.8397   -2.3086 H   0  0  0  0  0  0  0  0  0  0  0  0
    5.3925   -3.8931    1.8080 H   0  0  0  0  0  0  0  0  0  0  0  0
    6.2330   -4.7978    0.5722 H   0  0  0  0  0  0  0  0  0  0  0  0
    2.8948   -5.1171   -0.6991 H   0  0  0  0  0  0  0  0  0  0  0  0
  1  2  1  0
  1 14  1  0
  1 15  1  0
  1 16  1  0
  2  3  1  0
  2 17  1  0
  2 18  1  0
  4  3  1  6
  3 19  1  0
  3 35  1  0
  4 12  1  0
  4 13  1  0
  4  5  1  0
  5  6  1  0
  5 20  1  0
  5 21  1  0
  6 11  1  0
  6  7  1  0
  6 22  1  1
  7  8  1  0
  7 23  1  0
  7 24  1  0
  8  9  1  0
  8 13  1  0
  8 25  1  1
  9 10  1  0
  9 26  1  0
  9 27  1  0
 10 11  1  0
 10 12  1  0
 10 28  1  6
 11 29  1  0
 11 30  1  0
 12 31  1  0
 12 32  1  0
 13 33  1  0
 13 34  1  0
M  CHG  1   3   1
M  END
>  <i_m_ct_stereo_status>  (15) 
1

>  <s_m_source_file>  (15) 
/var/tmp/pbs.5076255.sched01/tmp4ovtozgc/0905bh7x9.sdf

>  <i_m_source_file_index>  (15) 
6

>  <i_lp_mmshare_version>  (15) 
48012

>  <i_f3d_flags>  (15) 
0

>  <s_epik_input>  (15) 
W0NIM11bQ0gyXVtOSF1DMTJbQ0gyXVtDQEhdM1tDSDJdW0NAQEhdKFtDSDJdMilbQ0gyXVtDQEhdKFtDSDJdMylbQ0gyXTE=

>  <s_epik_cmdline>  (15) 
J2VwaWtfcHl0aG9uJywgJy1waHQnLCAnMi4wJywgJy1waCcsICc3LjAnLCAnLXRuJywgJzgnLCAnLW1hJywgJzIwMCcsICctaW1hZScsICc8aW5maWxlLm1hZT4nLCAnLW9tYWUnLCAnPG91dGZpbGUubWFlPic=

>  <r_lp_tautomer_probability>  (15) 
1

>  <r_epik_Ionization_Penalty>  (15) 
5.08465e-05

>  <r_epik_Ionization_Penalty_Charging>  (15) 
5.08465e-05

>  <r_epik_Ionization_Penalty_Neutral>  (15) 
0

>  <r_epik_State_Penalty>  (15) 
-0

>  <r_epik_Charging_Adjusted_Penalty>  (15) 
5.08465e-05

>  <i_epik_Tot_Q>  (15) 
1

>  <i_epik_Tot_abs_Q>  (15) 
1

>  <s_lp_Force_Field>  (15) 
OPLS3e

>  <r_lp_Energy>  (15) 
9.87553

>  <b_lp_Chiralities_Consistent>  (15) 
1

>  <s_lp_Variant>  (15) 
2:0-1

>  <s_i_glide_gridfile>  (15) 
pfpi4k_grid

>  <i_i_glide_lignum>  (15) 
6

>  <i_i_glide_rotatable_bonds>  (15) 
2

>  <r_i_docking_score>  (15) 
-3.88926

>  <r_i_glide_ligand_efficiency>  (15) 
-0.299173

>  <r_i_glide_ligand_efficiency_sa>  (15) 
-0.703457

>  <r_i_glide_ligand_efficiency_ln>  (15) 
-1.09097

>  <r_i_glide_gscore>  (15) 
-3.88926

>  <r_i_glide_lipo>  (15) 
-0.287209

>  <r_i_glide_hbond>  (15) 
0

>  <r_i_glide_metal>  (15) 
-0

>  <r_i_glide_rewards>  (15) 
-2.17971

>  <r_i_glide_evdw>  (15) 
-18.3625

>  <r_i_glide_ecoul>  (15) 
-3.20292

>  <r_i_glide_erotb>  (15) 
0

>  <r_i_glide_esite>  (15) 
-0.0237748

>  <r_i_glide_emodel>  (15) 
-28.7509

>  <r_i_glide_energy>  (15) 
-21.5655

>  <r_i_glide_einternal>  (15) 
0.298619

>  <r_i_glide_intrahb_reward>  (15) 
-0

>  <i_i_glide_confnum>  (15) 
1

>  <i_i_glide_posenum>  (15) 
2

>  <r_i_glide_eff_state_penalty>  (15) 
0

>  <ligand_id>  (15) 
2

>  <original_smiles>  (15) 
CCNC12CC3CC(CC(C3)C1)C2

>  <smiles>  (15) 
[H]C([H])([H])C([H])([H])[N+]([H])([H])C12C([H])([H])C3([H])C([H])([H])C([H])(C([H])([H])C([H])(C3([H])[H])C1([H])[H])C2([H])[H]

$$$$
2:0:2
     RDKit          3D

 35 37  0  0  1  0  0  0  0  0999 V2000
    1.8885   -6.5546    1.1671 C   0  0  0  0  0  0  0  0  0  0  0  0
    2.6468   -5.2268    1.2082 C   0  0  0  0  0  0  0  0  0  0  0  0
    3.6165   -5.1198    0.1414 N   0  0  0  0  0  0  0  0  0  0  0  0
    4.2709   -3.7851   -0.0364 C   0  0  2  0  0  0  0  0  0  0  0  0
    3.3072   -2.8109   -0.7678 C   0  0  0  0  0  0  0  0  0  0  0  0
    3.9981   -1.4602   -0.9883 C   0  0  1  0  0  0  0  0  0  0  0  0
    4.4147   -0.8572    0.3704 C   0  0  0  0  0  0  0  0  0  0  0  0
    5.4099   -1.8062    1.0707 C   0  0  2  0  0  0  0  0  0  0  0  0
    6.6536   -2.0134    0.1878 C   0  0  0  0  0  0  0  0  0  0  0  0
    6.2248   -2.6094   -1.1676 C   0  0  2  0  0  0  0  0  0  0  0  0
    5.2441   -1.6431   -1.8743 C   0  0  0  0  0  0  0  0  0  0  0  0
    5.5212   -3.9592   -0.9385 C   0  0  0  0  0  0  0  0  0  0  0  0
    4.7312   -3.1616    1.3065 C   0  0  0  0  0  0  0  0  0  0  0  0
    1.1645   -6.6346    1.9696 H   0  0  0  0  0  0  0  0  0  0  0  0
    2.5877   -7.3945    1.2629 H   0  0  0  0  0  0  0  0  0  0  0  0
    1.3618   -6.6594    0.2180 H   0  0  0  0  0  0  0  0  0  0  0  0
    1.9148   -4.4089    1.1742 H   0  0  0  0  0  0  0  0  0  0  0  0
    3.1326   -5.1526    2.1985 H   0  0  0  0  0  0  0  0  0  0  0  0
    4.3565   -5.7911    0.3243 H   0  0  0  0  0  0  0  0  0  0  0  0
    2.9889   -3.2295   -1.7233 H   0  0  0  0  0  0  0  0  0  0  0  0
    2.3986   -2.6533   -0.1877 H   0  0  0  0  0  0  0  0  0  0  0  0
    3.3009   -0.7819   -1.4903 H   0  0  0  0  0  0  0  0  0  0  0  0
    4.8505    0.1297    0.2403 H   0  0  0  0  0  0  0  0  0  0  0  0
    3.5246   -0.7191    0.9952 H   0  0  0  0  0  0  0  0  0  0  0  0
    5.7114   -1.3784    2.0241 H   0  0  0  0  0  0  0  0  0  0  0  0
    7.1826   -1.0636    0.0668 H   0  0  0  0  0  0  0  0  0  0  0  0
    7.3574   -2.6895    0.6855 H   0  0  0  0  0  0  0  0  0  0  0  0
    7.1066   -2.7495   -1.8002 H   0  0  0  0  0  0  0  0  0  0  0  0
    4.9625   -2.0376   -2.8518 H   0  0  0  0  0  0  0  0  0  0  0  0
    5.7180   -0.6748   -2.0526 H   0  0  0  0  0  0  0  0  0  0  0  0
    6.2186   -4.6563   -0.4741 H   0  0  0  0  0  0  0  0  0  0  0  0
    5.2440   -4.3972   -1.9025 H   0  0  0  0  0  0  0  0  0  0  0  0
    3.8876   -2.9857    1.9812 H   0  0  0  0  0  0  0  0  0  0  0  0
    5.4119   -3.8344    1.8339 H   0  0  0  0  0  0  0  0  0  0  0  0
    3.2120   -5.3749   -0.7518 H   0  0  0  0  0  0  0  0  0  0  0  0
  1  2  1  0
  1 14  1  0
  1 15  1  0
  1 16  1  0
  2  3  1  0
  2 17  1  0
  2 18  1  0
  4  3  1  1
  3 19  1  0
  3 35  1  0
  4 12  1  0
  4 13  1  0
  4  5  1  0
  5  6  1  0
  5 20  1  0
  5 21  1  0
  6 11  1  0
  6  7  1  0
  6 22  1  6
  7  8  1  0
  7 23  1  0
  7 24  1  0
  8  9  1  0
  8 13  1  0
  8 25  1  1
  9 10  1  0
  9 26  1  0
  9 27  1  0
 10 11  1  0
 10 12  1  0
 10 28  1  6
 11 29  1  0
 11 30  1  0
 12 31  1  0
 12 32  1  0
 13 33  1  0
 13 34  1  0
M  CHG  1   3   1
M  END
>  <i_m_ct_stereo_status>  (16) 
1

>  <s_m_source_file>  (16) 
/var/tmp/pbs.5076255.sched01/tmp4ovtozgc/0905bh7x9.sdf

>  <i_m_source_file_index>  (16) 
6

>  <i_lp_mmshare_version>  (16) 
48012

>  <i_f3d_flags>  (16) 
0

>  <s_epik_input>  (16) 
W0NIM11bQ0gyXVtOSF1DMTJbQ0gyXVtDQEhdM1tDSDJdW0NAQEhdKFtDSDJdMilbQ0gyXVtDQEhdKFtDSDJdMylbQ0gyXTE=

>  <s_epik_cmdline>  (16) 
J2VwaWtfcHl0aG9uJywgJy1waHQnLCAnMi4wJywgJy1waCcsICc3LjAnLCAnLXRuJywgJzgnLCAnLW1hJywgJzIwMCcsICctaW1hZScsICc8aW5maWxlLm1hZT4nLCAnLW9tYWUnLCAnPG91dGZpbGUubWFlPic=

>  <r_lp_tautomer_probability>  (16) 
1

>  <r_epik_Ionization_Penalty>  (16) 
5.08465e-05

>  <r_epik_Ionization_Penalty_Charging>  (16) 
5.08465e-05

>  <r_epik_Ionization_Penalty_Neutral>  (16) 
0

>  <r_epik_State_Penalty>  (16) 
-0

>  <r_epik_Charging_Adjusted_Penalty>  (16) 
5.08465e-05

>  <i_epik_Tot_Q>  (16) 
1

>  <i_epik_Tot_abs_Q>  (16) 
1

>  <s_lp_Force_Field>  (16) 
OPLS3e

>  <r_lp_Energy>  (16) 
9.87553

>  <b_lp_Chiralities_Consistent>  (16) 
1

>  <s_lp_Variant>  (16) 
2:0-1

>  <s_i_glide_gridfile>  (16) 
pfpi4k_grid

>  <i_i_glide_lignum>  (16) 
6

>  <i_i_glide_rotatable_bonds>  (16) 
2

>  <r_i_docking_score>  (16) 
-3.84277

>  <r_i_glide_ligand_efficiency>  (16) 
-0.295598

>  <r_i_glide_ligand_efficiency_sa>  (16) 
-0.695049

>  <r_i_glide_ligand_efficiency_ln>  (16) 
-1.07793

>  <r_i_glide_gscore>  (16) 
-3.84277

>  <r_i_glide_lipo>  (16) 
-0.220647

>  <r_i_glide_hbond>  (16) 
0

>  <r_i_glide_metal>  (16) 
-0

>  <r_i_glide_rewards>  (16) 
-2.17971

>  <r_i_glide_evdw>  (16) 
-17.2096

>  <r_i_glide_ecoul>  (16) 
-3.75247

>  <r_i_glide_erotb>  (16) 
0

>  <r_i_glide_esite>  (16) 
-0.0190695

>  <r_i_glide_emodel>  (16) 
-27.7988

>  <r_i_glide_energy>  (16) 
-20.962

>  <r_i_glide_einternal>  (16) 
0.854546

>  <r_i_glide_intrahb_reward>  (16) 
-0

>  <i_i_glide_confnum>  (16) 
2

>  <i_i_glide_posenum>  (16) 
8

>  <r_i_glide_eff_state_penalty>  (16) 
0

>  <ligand_id>  (16) 
2

>  <original_smiles>  (16) 
CCNC12CC3CC(CC(C3)C1)C2

>  <smiles>  (16) 
[H]C([H])([H])C([H])([H])[N+]([H])([H])C12C([H])([H])C3([H])C([H])([H])C([H])(C([H])([H])C([H])(C3([H])[H])C1([H])[H])C2([H])[H]

$$$$
3:0:0
     RDKit          3D

 51 56  0  0  1  0  0  0  0  0999 V2000
    3.3472   -4.7243    0.5388 C   0  0  0  0  0  0  0  0  0  0  0  0
    4.0335   -4.4747    1.9040 C   0  0  2  0  0  0  0  0  0  0  0  0
    3.6191   -5.6940    2.8135 C   0  0  0  0  0  0  0  0  0  0  0  0
    2.6391   -5.2480    3.8537 C   0  0  0  0  0  0  0  0  0  0  0  0
    2.7984   -3.9861    4.2546 C   0  0  0  0  0  0  0  0  0  0  0  0
    1.7726   -2.9856    3.8017 C   0  0  1  0  0  0  0  0  0  0  0  0
    1.5469   -2.0109    4.9866 C   0  0  1  0  0  0  0  0  0  0  0  0
    1.0406   -2.6954    6.1106 O   0  0  0  0  0  0  0  0  0  0  0  0
    2.7483   -1.3355    5.2669 O   0  0  0  0  0  0  0  0  0  0  0  0
    3.9682   -2.0950    5.2499 C   0  0  0  0  0  0  0  0  0  0  0  0
    4.1206   -3.2292    4.1601 C   0  0  1  0  0  0  0  0  0  0  0  0
    5.4026   -4.0001    4.5758 C   0  0  0  0  0  0  0  0  0  0  0  0
    3.9952   -2.9762    2.6017 C   0  0  2  0  0  0  0  0  0  0  0  0
    2.6063   -2.2821    2.6872 C   0  0  1  0  0  0  0  0  0  0  0  0
    2.2388   -1.8623    1.2878 C   0  0  0  0  0  0  0  0  0  0  0  0
    3.5965   -1.2497    0.8484 C   0  0  2  0  0  0  0  0  0  0  0  0
    4.0751   -1.5388   -0.5305 C   0  0  0  0  0  0  0  0  0  0  0  0
    3.6888   -1.4305   -1.8915 C   0  0  0  0  0  0  0  0  0  0  0  0
    4.7679   -1.9196   -2.5929 C   0  0  0  0  0  0  0  0  0  0  0  0
    5.7934   -2.3101   -1.7607 O   0  0  0  0  0  0  0  0  0  0  0  0
    5.2987   -2.0599   -0.5255 C   0  0  0  0  0  0  0  0  0  0  0  0
    5.9367   -2.2862    0.7790 C   0  0  1  0  0  0  0  0  0  0  0  0
    7.1279   -1.5252    0.8776 O   0  0  0  0  0  0  0  0  0  0  0  0
    4.7647   -1.8357    1.7809 C   0  0  2  0  0  0  0  0  0  0  0  0
    5.2826   -0.6884    2.6927 C   0  0  0  0  0  0  0  0  0  0  0  0
    2.2624   -4.7735    0.6276 H   0  0  0  0  0  0  0  0  0  0  0  0
    3.6561   -5.6903    0.1347 H   0  0  0  0  0  0  0  0  0  0  0  0
    3.6031   -4.0108   -0.2319 H   0  0  0  0  0  0  0  0  0  0  0  0
    5.0733   -4.7153    1.7120 H   0  0  0  0  0  0  0  0  0  0  0  0
    3.1781   -6.5125    2.2432 H   0  0  0  0  0  0  0  0  0  0  0  0
    4.4774   -6.1412    3.3107 H   0  0  0  0  0  0  0  0  0  0  0  0
    1.6399   -5.6206    3.6811 H   0  0  0  0  0  0  0  0  0  0  0  0
    0.8323   -3.4238    3.4619 H   0  0  0  0  0  0  0  0  0  0  0  0
    0.8048   -1.2518    4.7415 H   0  0  0  0  0  0  0  0  0  0  0  0
    1.6514   -3.3893    6.3137 H   0  0  0  0  0  0  0  0  0  0  0  0
    4.8025   -1.3973    5.2366 H   0  0  0  0  0  0  0  0  0  0  0  0
    4.0252   -2.5656    6.2332 H   0  0  0  0  0  0  0  0  0  0  0  0
    6.1650   -3.3028    4.9248 H   0  0  0  0  0  0  0  0  0  0  0  0
    5.8758   -4.5552    3.7693 H   0  0  0  0  0  0  0  0  0  0  0  0
    5.2039   -4.6883    5.3993 H   0  0  0  0  0  0  0  0  0  0  0  0
    2.7227   -1.2672    3.0523 H   0  0  0  0  0  0  0  0  0  0  0  0
    1.8923   -2.6678    0.6514 H   0  0  0  0  0  0  0  0  0  0  0  0
    1.4533   -1.1081    1.2798 H   0  0  0  0  0  0  0  0  0  0  0  0
    3.5440   -0.1634    0.9348 H   0  0  0  0  0  0  0  0  0  0  0  0
    2.7715   -1.0409   -2.3124 H   0  0  0  0  0  0  0  0  0  0  0  0
    4.9722   -2.0407   -3.6438 H   0  0  0  0  0  0  0  0  0  0  0  0
    6.2567   -3.3200    0.8659 H   0  0  0  0  0  0  0  0  0  0  0  0
    6.9048   -0.6204    1.0504 H   0  0  0  0  0  0  0  0  0  0  0  0
    5.6831    0.1409    2.1110 H   0  0  0  0  0  0  0  0  0  0  0  0
    6.0687   -1.0413    3.3576 H   0  0  0  0  0  0  0  0  0  0  0  0
    4.5064   -0.2371    3.3032 H   0  0  0  0  0  0  0  0  0  0  0  0
  1  2  1  0
  1 26  1  0
  1 27  1  0
  1 28  1  0
  2 13  1  0
  2  3  1  0
  2 29  1  6
  3  4  1  0
  3 30  1  0
  3 31  1  0
  4  5  2  0
  4 32  1  0
  5 11  1  0
  5  6  1  0
  6 14  1  0
  6  7  1  0
  6 33  1  6
  7  8  1  0
  7  9  1  0
  7 34  1  6
  8 35  1  0
  9 10  1  0
 10 11  1  0
 10 36  1  0
 10 37  1  0
 11 12  1  6
 13 11  1  1
 12 38  1  0
 12 39  1  0
 12 40  1  0
 13 24  1  0
 13 14  1  0
 14 15  1  0
 14 41  1  1
 15 16  1  0
 15 42  1  0
 15 43  1  0
 16 24  1  0
 16 17  1  0
 16 44  1  6
 17 21  2  0
 17 18  1  0
 18 19  2  0
 18 45  1  0
 19 20  1  0
 19 46  1  0
 20 21  1  0
 21 22  1  0
 22 23  1  0
 22 24  1  0
 22 47  1  1
 23 48  1  0
 24 25  1  1
 25 49  1  0
 25 50  1  0
 25 51  1  0
M  END
>  <i_m_ct_stereo_status>  (17) 
1

>  <s_m_source_file>  (17) 
/var/tmp/pbs.5076255.sched01/tmp4ovtozgc/0905bh7x9.sdf

>  <i_m_source_file_index>  (17) 
7

>  <i_lp_mmshare_version>  (17) 
48012

>  <i_f3d_flags>  (17) 
0

>  <s_epik_input>  (17) 
W0NIM11bQ0BASF0xW0NIMl1bQ0hdPUMoW0NAXTIoW0NAQF0xMzQpW0NIM10pW0NAQEhdKFtDQEBIXShbT0hdKU9bQ0gyXTIpW0NAQEhdM1tDSDJdW0NAQEhdNWM2YyhvW2NIXVtjSF02KVtDQEBIXShbT0hdKVtDQF00NVtDSDNd

>  <s_epik_cmdline>  (17) 
J2VwaWtfcHl0aG9uJywgJy1waHQnLCAnMi4wJywgJy1waCcsICc3LjAnLCAnLXRuJywgJzgnLCAnLW1hJywgJzIwMCcsICctaW1hZScsICc8aW5maWxlLm1hZT4nLCAnLW9tYWUnLCAnPG91dGZpbGUubWFlPic=

>  <r_lp_tautomer_probability>  (17) 
1

>  <r_epik_Ionization_Penalty>  (17) 
2.70828e-07

>  <r_epik_Ionization_Penalty_Charging>  (17) 
0

>  <r_epik_Ionization_Penalty_Neutral>  (17) 
2.70828e-07

>  <r_epik_State_Penalty>  (17) 
-0

>  <r_epik_Charging_Adjusted_Penalty>  (17) 
0

>  <i_epik_Tot_Q>  (17) 
0

>  <i_epik_Tot_abs_Q>  (17) 
0

>  <s_epik_Chemistry_Notes>  (17) 
This compound contains an acetal/aminal-like group ( X-CH(R)-Y where X, Y are N, S, or O) that may be acid/base labile, releasing an aldehyde.

>  <s_lp_Force_Field>  (17) 
OPLS3e

>  <r_lp_Energy>  (17) 
124.905

>  <b_lp_Chiralities_Consistent>  (17) 
1

>  <s_lp_Variant>  (17) 
3:0-1

>  <s_i_glide_gridfile>  (17) 
pfpi4k_grid

>  <i_i_glide_lignum>  (17) 
7

>  <i_i_glide_rotatable_bonds>  (17) 
2

>  <r_i_docking_score>  (17) 
-2.74078

>  <r_i_glide_ligand_efficiency>  (17) 
-0.109631

>  <r_i_glide_ligand_efficiency_sa>  (17) 
-0.320563

>  <r_i_glide_ligand_efficiency_ln>  (17) 
-0.649646

>  <r_i_glide_gscore>  (17) 
-2.74078

>  <r_i_glide_lipo>  (17) 
-0.304106

>  <r_i_glide_hbond>  (17) 
0

>  <r_i_glide_metal>  (17) 
-0

>  <r_i_glide_rewards>  (17) 
-1.07435

>  <r_i_glide_evdw>  (17) 
-21.2612

>  <r_i_glide_ecoul>  (17) 
-1.99507

>  <r_i_glide_erotb>  (17) 
0

>  <r_i_glide_esite>  (17) 
0

>  <r_i_glide_emodel>  (17) 
-27.0028

>  <r_i_glide_energy>  (17) 
-23.2563

>  <r_i_glide_einternal>  (17) 
0.668277

>  <r_i_glide_intrahb_reward>  (17) 
-0

>  <i_i_glide_confnum>  (17) 
2

>  <i_i_glide_posenum>  (17) 
17

>  <r_i_glide_eff_state_penalty>  (17) 
0

>  <ligand_id>  (17) 
3

>  <original_smiles>  (17) 
CC1CC=C2C3C(O)OCC2(C)C12C3CC1c3ccoc3C(O)C12C

>  <smiles>  (17) 
[H]OC1([H])OC([H])([H])C2(C([H])([H])[H])C3=C([H])C([H])([H])C([H])(C([H])([H])[H])C24C([H])(C([H])([H])C2([H])c5c(oc([H])c5[H])C([H])(O[H])C24C([H])([H])[H])C31[H]

$$$$
3:0:1
     RDKit          3D

 51 56  0  0  1  0  0  0  0  0999 V2000
    5.8228   -5.1398    0.4912 C   0  0  0  0  0  0  0  0  0  0  0  0
    5.4322   -4.6061    1.8899 C   0  0  2  0  0  0  0  0  0  0  0  0
    6.0530   -5.6251    2.9203 C   0  0  0  0  0  0  0  0  0  0  0  0
    4.9676   -6.4448    3.5425 C   0  0  0  0  0  0  0  0  0  0  0  0
    3.8013   -5.8113    3.6698 C   0  0  0  0  0  0  0  0  0  0  0  0
    2.6874   -6.2347    2.7514 C   0  0  1  0  0  0  0  0  0  0  0  0
    1.3809   -6.1705    3.5860 C   0  0  1  0  0  0  0  0  0  0  0  0
    1.4321   -7.0595    4.6798 O   0  0  0  0  0  0  0  0  0  0  0  0
    1.1494   -4.8429    3.9894 O   0  0  0  0  0  0  0  0  0  0  0  0
    2.2760   -4.0852    4.4648 C   0  0  0  0  0  0  0  0  0  0  0  0
    3.6658   -4.2918    3.7417 C   0  0  1  0  0  0  0  0  0  0  0  0
    4.6882   -3.5315    4.6326 C   0  0  0  0  0  0  0  0  0  0  0  0
    3.8906   -4.0913    2.1851 C   0  0  2  0  0  0  0  0  0  0  0  0
    2.7423   -5.0435    1.7465 C   0  0  1  0  0  0  0  0  0  0  0  0
    2.6775   -5.0067    0.2323 C   0  0  0  0  0  0  0  0  0  0  0  0
    2.8013   -3.4665    0.0430 C   0  0  2  0  0  0  0  0  0  0  0  0
    3.6565   -2.9716   -1.0613 C   0  0  0  0  0  0  0  0  0  0  0  0
    3.8337   -3.0731   -2.4630 C   0  0  0  0  0  0  0  0  0  0  0  0
    4.8873   -2.2358   -2.7305 C   0  0  0  0  0  0  0  0  0  0  0  0
    5.3679   -1.6121   -1.6001 O   0  0  0  0  0  0  0  0  0  0  0  0
    4.5690   -2.1046   -0.6249 C   0  0  0  0  0  0  0  0  0  0  0  0
    4.5977   -1.8164    0.8189 C   0  0  1  0  0  0  0  0  0  0  0  0
    4.3536   -0.4410    1.0533 O   0  0  0  0  0  0  0  0  0  0  0  0
    3.4479   -2.8005    1.3522 C   0  0  2  0  0  0  0  0  0  0  0  0
    2.3525   -1.9650    2.0787 C   0  0  0  0  0  0  0  0  0  0  0  0
    5.4292   -6.1416    0.3112 H   0  0  0  0  0  0  0  0  0  0  0  0
    6.9077   -5.2290    0.4161 H   0  0  0  0  0  0  0  0  0  0  0  0
    5.5379   -4.4999   -0.3333 H   0  0  0  0  0  0  0  0  0  0  0  0
    6.0923   -3.7566    2.0298 H   0  0  0  0  0  0  0  0  0  0  0  0
    6.7814   -6.2942    2.4615 H   0  0  0  0  0  0  0  0  0  0  0  0
    6.6027   -5.1204    3.7114 H   0  0  0  0  0  0  0  0  0  0  0  0
    4.9709   -7.4739    3.2144 H   0  0  0  0  0  0  0  0  0  0  0  0
    2.8250   -7.2177    2.3004 H   0  0  0  0  0  0  0  0  0  0  0  0
    0.5208   -6.4798    2.9942 H   0  0  0  0  0  0  0  0  0  0  0  0
    2.2381   -6.8979    5.1447 H   0  0  0  0  0  0  0  0  0  0  0  0
    1.9868   -3.0381    4.5067 H   0  0  0  0  0  0  0  0  0  0  0  0
    2.3968   -4.3729    5.5105 H   0  0  0  0  0  0  0  0  0  0  0  0
    4.2597   -2.5937    4.9896 H   0  0  0  0  0  0  0  0  0  0  0  0
    5.6049   -3.2407    4.1252 H   0  0  0  0  0  0  0  0  0  0  0  0
    4.9547   -4.1167    5.5148 H   0  0  0  0  0  0  0  0  0  0  0  0
    1.7934   -4.5418    1.8914 H   0  0  0  0  0  0  0  0  0  0  0  0
    3.4521   -5.5804   -0.2596 H   0  0  0  0  0  0  0  0  0  0  0  0
    1.7283   -5.3779   -0.1519 H   0  0  0  0  0  0  0  0  0  0  0  0
    1.8136   -3.0479   -0.1475 H   0  0  0  0  0  0  0  0  0  0  0  0
    3.2800   -3.6690   -3.1803 H   0  0  0  0  0  0  0  0  0  0  0  0
    5.3944   -1.9732   -3.6442 H   0  0  0  0  0  0  0  0  0  0  0  0
    5.5875   -1.9905    1.2239 H   0  0  0  0  0  0  0  0  0  0  0  0
    3.5172   -0.2242    0.6660 H   0  0  0  0  0  0  0  0  0  0  0  0
    1.9643   -1.1698    1.4408 H   0  0  0  0  0  0  0  0  0  0  0  0
    2.7449   -1.5032    2.9847 H   0  0  0  0  0  0  0  0  0  0  0  0
    1.4719   -2.5402    2.3522 H   0  0  0  0  0  0  0  0  0  0  0  0
  1  2  1  0
  1 26  1  0
  1 27  1  0
  1 28  1  0
  2 13  1  0
  2  3  1  0
  2 29  1  1
  3  4  1  0
  3 30  1  0
  3 31  1  0
  4  5  2  0
  4 32  1  0
  5 11  1  0
  5  6  1  0
  6 14  1  0
  6  7  1  0
  6 33  1  6
  7  8  1  0
  7  9  1  0
  7 34  1  6
  8 35  1  0
  9 10  1  0
 10 11  1  0
 10 36  1  0
 10 37  1  0
 11 12  1  1
 13 11  1  1
 12 38  1  0
 12 39  1  0
 12 40  1  0
 13 24  1  0
 13 14  1  0
 14 15  1  0
 14 41  1  1
 15 16  1  0
 15 42  1  0
 15 43  1  0
 16 24  1  0
 16 17  1  0
 16 44  1  6
 17 21  2  0
 17 18  1  0
 18 19  2  0
 18 45  1  0
 19 20  1  0
 19 46  1  0
 20 21  1  0
 21 22  1  0
 22 23  1  0
 22 24  1  0
 22 47  1  1
 23 48  1  0
 24 25  1  1
 25 49  1  0
 25 50  1  0
 25 51  1  0
M  END
>  <i_m_ct_stereo_status>  (18) 
1

>  <s_m_source_file>  (18) 
/var/tmp/pbs.5076255.sched01/tmp4ovtozgc/0905bh7x9.sdf

>  <i_m_source_file_index>  (18) 
7

>  <i_lp_mmshare_version>  (18) 
48012

>  <i_f3d_flags>  (18) 
0

>  <s_epik_input>  (18) 
W0NIM11bQ0BASF0xW0NIMl1bQ0hdPUMoW0NAXTIoW0NAQF0xMzQpW0NIM10pW0NAQEhdKFtDQEBIXShbT0hdKU9bQ0gyXTIpW0NAQEhdM1tDSDJdW0NAQEhdNWM2YyhvW2NIXVtjSF02KVtDQEBIXShbT0hdKVtDQF00NVtDSDNd

>  <s_epik_cmdline>  (18) 
J2VwaWtfcHl0aG9uJywgJy1waHQnLCAnMi4wJywgJy1waCcsICc3LjAnLCAnLXRuJywgJzgnLCAnLW1hJywgJzIwMCcsICctaW1hZScsICc8aW5maWxlLm1hZT4nLCAnLW9tYWUnLCAnPG91dGZpbGUubWFlPic=

>  <r_lp_tautomer_probability>  (18) 
1

>  <r_epik_Ionization_Penalty>  (18) 
2.70828e-07

>  <r_epik_Ionization_Penalty_Charging>  (18) 
0

>  <r_epik_Ionization_Penalty_Neutral>  (18) 
2.70828e-07

>  <r_epik_State_Penalty>  (18) 
-0

>  <r_epik_Charging_Adjusted_Penalty>  (18) 
0

>  <i_epik_Tot_Q>  (18) 
0

>  <i_epik_Tot_abs_Q>  (18) 
0

>  <s_epik_Chemistry_Notes>  (18) 
This compound contains an acetal/aminal-like group ( X-CH(R)-Y where X, Y are N, S, or O) that may be acid/base labile, releasing an aldehyde.

>  <s_lp_Force_Field>  (18) 
OPLS3e

>  <r_lp_Energy>  (18) 
124.905

>  <b_lp_Chiralities_Consistent>  (18) 
1

>  <s_lp_Variant>  (18) 
3:0-1

>  <s_i_glide_gridfile>  (18) 
pfpi4k_grid

>  <i_i_glide_lignum>  (18) 
7

>  <i_i_glide_rotatable_bonds>  (18) 
2

>  <r_i_docking_score>  (18) 
-2.50085

>  <r_i_glide_ligand_efficiency>  (18) 
-0.100034

>  <r_i_glide_ligand_efficiency_sa>  (18) 
-0.292501

>  <r_i_glide_ligand_efficiency_ln>  (18) 
-0.592777

>  <r_i_glide_gscore>  (18) 
-2.50085

>  <r_i_glide_lipo>  (18) 
-0.304954

>  <r_i_glide_hbond>  (18) 
0

>  <r_i_glide_metal>  (18) 
-0

>  <r_i_glide_rewards>  (18) 
-1.07435

>  <r_i_glide_evdw>  (18) 
-23.4741

>  <r_i_glide_ecoul>  (18) 
0.443694

>  <r_i_glide_erotb>  (18) 
0

>  <r_i_glide_esite>  (18) 
-0.0143981

>  <r_i_glide_emodel>  (18) 
-26.611

>  <r_i_glide_energy>  (18) 
-23.0304

>  <r_i_glide_einternal>  (18) 
0.318975

>  <r_i_glide_intrahb_reward>  (18) 
-0

>  <i_i_glide_confnum>  (18) 
2

>  <i_i_glide_posenum>  (18) 
27

>  <r_i_glide_eff_state_penalty>  (18) 
0

>  <ligand_id>  (18) 
3

>  <original_smiles>  (18) 
CC1CC=C2C3C(O)OCC2(C)C12C3CC1c3ccoc3C(O)C12C

>  <smiles>  (18) 
[H]OC1([H])OC([H])([H])C2(C([H])([H])[H])C3=C([H])C([H])([H])C([H])(C([H])([H])[H])C24C([H])(C([H])([H])C2([H])c5c(oc([H])c5[H])C([H])(O[H])C24C([H])([H])[H])C31[H]

$$$$
3:0:2
     RDKit          3D

 51 56  0  0  1  0  0  0  0  0999 V2000
    5.8389   -4.9082    0.1519 C   0  0  0  0  0  0  0  0  0  0  0  0
    5.5002   -4.4958    1.6012 C   0  0  2  0  0  0  0  0  0  0  0  0
    6.2377   -5.5435    2.5182 C   0  0  0  0  0  0  0  0  0  0  0  0
    5.2389   -6.4673    3.1417 C   0  0  0  0  0  0  0  0  0  0  0  0
    4.0485   -5.9177    3.3780 C   0  0  0  0  0  0  0  0  0  0  0  0
    2.9088   -6.3450    2.4947 C   0  0  1  0  0  0  0  0  0  0  0  0
    1.6487   -6.4263    3.3909 C   0  0  1  0  0  0  0  0  0  0  0  0
    1.8193   -7.3886    4.4087 O   0  0  0  0  0  0  0  0  0  0  0  0
    1.3635   -5.1492    3.9094 O   0  0  0  0  0  0  0  0  0  0  0  0
    2.4716   -4.3496    4.3682 C   0  0  0  0  0  0  0  0  0  0  0  0
    3.8289   -4.4176    3.5615 C   0  0  1  0  0  0  0  0  0  0  0  0
    4.8563   -3.6551    4.4450 C   0  0  0  0  0  0  0  0  0  0  0  0
    3.9524   -4.0980    2.0160 C   0  0  2  0  0  0  0  0  0  0  0  0
    2.8318   -5.0854    1.5797 C   0  0  1  0  0  0  0  0  0  0  0  0
    2.6896   -4.9562    0.0797 C   0  0  0  0  0  0  0  0  0  0  0  0
    2.7215   -3.4081   -0.0224 C   0  0  2  0  0  0  0  0  0  0  0  0
    3.4844   -2.7938   -1.1380 C   0  0  0  0  0  0  0  0  0  0  0  0
    3.5811   -2.7919   -2.5533 C   0  0  0  0  0  0  0  0  0  0  0  0
    4.5597   -1.8602   -2.8207 C   0  0  0  0  0  0  0  0  0  0  0  0
    5.0647   -1.2873   -1.6738 O   0  0  0  0  0  0  0  0  0  0  0  0
    4.3602   -1.8975   -0.6922 C   0  0  0  0  0  0  0  0  0  0  0  0
    4.4507   -1.6986    0.7662 C   0  0  1  0  0  0  0  0  0  0  0  0
    4.1376   -0.3602    1.1072 O   0  0  0  0  0  0  0  0  0  0  0  0
    3.3931   -2.7847    1.2950 C   0  0  2  0  0  0  0  0  0  0  0  0
    2.2917   -2.0683    2.1301 C   0  0  0  0  0  0  0  0  0  0  0  0
    5.4982   -5.9184   -0.0792 H   0  0  0  0  0  0  0  0  0  0  0  0
    6.9213   -4.9227    0.0237 H   0  0  0  0  0  0  0  0  0  0  0  0
    5.4769   -4.2357   -0.6136 H   0  0  0  0  0  0  0  0  0  0  0  0
    6.1194   -3.6191    1.7630 H   0  0  0  0  0  0  0  0  0  0  0  0
    6.9765   -6.1343    1.9749 H   0  0  0  0  0  0  0  0  0  0  0  0
    6.8026   -5.0602    3.3106 H   0  0  0  0  0  0  0  0  0  0  0  0
    5.2835   -7.4705    2.7426 H   0  0  0  0  0  0  0  0  0  0  0  0
    3.0810   -7.2827    1.9663 H   0  0  0  0  0  0  0  0  0  0  0  0
    0.7768   -6.7424    2.8143 H   0  0  0  0  0  0  0  0  0  0  0  0
    0.9732   -7.5645    4.7886 H   0  0  0  0  0  0  0  0  0  0  0  0
    2.1280   -3.3252    4.4965 H   0  0  0  0  0  0  0  0  0  0  0  0
    2.6725   -4.6963    5.3827 H   0  0  0  0  0  0  0  0  0  0  0  0
    4.3946   -2.7711    4.8877 H   0  0  0  0  0  0  0  0  0  0  0  0
    5.7239   -3.2759    3.9098 H   0  0  0  0  0  0  0  0  0  0  0  0
    5.2061   -4.2807    5.2684 H   0  0  0  0  0  0  0  0  0  0  0  0
    1.8619   -4.6563    1.8048 H   0  0  0  0  0  0  0  0  0  0  0  0
    3.4767   -5.4476   -0.4709 H   0  0  0  0  0  0  0  0  0  0  0  0
    1.7458   -5.3590   -0.2837 H   0  0  0  0  0  0  0  0  0  0  0  0
    1.7100   -3.0387   -0.1447 H   0  0  0  0  0  0  0  0  0  0  0  0
    3.0181   -3.3646   -3.2781 H   0  0  0  0  0  0  0  0  0  0  0  0
    4.9927   -1.4909   -3.7365 H   0  0  0  0  0  0  0  0  0  0  0  0
    5.4706   -1.8359    1.1055 H   0  0  0  0  0  0  0  0  0  0  0  0
    3.2728   -0.1693    0.7719 H   0  0  0  0  0  0  0  0  0  0  0  0
    1.8219   -1.2589    1.5702 H   0  0  0  0  0  0  0  0  0  0  0  0
    2.7072   -1.6447    3.0445 H   0  0  0  0  0  0  0  0  0  0  0  0
    1.4645   -2.7137    2.4112 H   0  0  0  0  0  0  0  0  0  0  0  0
  1  2  1  0
  1 26  1  0
  1 27  1  0
  1 28  1  0
  2 13  1  0
  2  3  1  0
  2 29  1  1
  3  4  1  0
  3 30  1  0
  3 31  1  0
  4  5  2  0
  4 32  1  0
  5 11  1  0
  5  6  1  0
  6 14  1  0
  6  7  1  0
  6 33  1  6
  7  8  1  0
  7  9  1  0
  7 34  1  6
  8 35  1  0
  9 10  1  0
 10 11  1  0
 10 36  1  0
 10 37  1  0
 11 12  1  1
 13 11  1  1
 12 38  1  0
 12 39  1  0
 12 40  1  0
 13 24  1  0
 13 14  1  0
 14 15  1  0
 14 41  1  1
 15 16  1  0
 15 42  1  0
 15 43  1  0
 16 24  1  0
 16 17  1  0
 16 44  1  6
 17 21  2  0
 17 18  1  0
 18 19  2  0
 18 45  1  0
 19 20  1  0
 19 46  1  0
 20 21  1  0
 21 22  1  0
 22 23  1  0
 22 24  1  0
 22 47  1  1
 23 48  1  0
 24 25  1  1
 25 49  1  0
 25 50  1  0
 25 51  1  0
M  END
>  <i_m_ct_stereo_status>  (19) 
1

>  <s_m_source_file>  (19) 
/var/tmp/pbs.5076255.sched01/tmp4ovtozgc/0905bh7x9.sdf

>  <i_m_source_file_index>  (19) 
7

>  <i_lp_mmshare_version>  (19) 
48012

>  <i_f3d_flags>  (19) 
0

>  <s_epik_input>  (19) 
W0NIM11bQ0BASF0xW0NIMl1bQ0hdPUMoW0NAXTIoW0NAQF0xMzQpW0NIM10pW0NAQEhdKFtDQEBIXShbT0hdKU9bQ0gyXTIpW0NAQEhdM1tDSDJdW0NAQEhdNWM2YyhvW2NIXVtjSF02KVtDQEBIXShbT0hdKVtDQF00NVtDSDNd

>  <s_epik_cmdline>  (19) 
J2VwaWtfcHl0aG9uJywgJy1waHQnLCAnMi4wJywgJy1waCcsICc3LjAnLCAnLXRuJywgJzgnLCAnLW1hJywgJzIwMCcsICctaW1hZScsICc8aW5maWxlLm1hZT4nLCAnLW9tYWUnLCAnPG91dGZpbGUubWFlPic=

>  <r_lp_tautomer_probability>  (19) 
1

>  <r_epik_Ionization_Penalty>  (19) 
2.70828e-07

>  <r_epik_Ionization_Penalty_Charging>  (19) 
0

>  <r_epik_Ionization_Penalty_Neutral>  (19) 
2.70828e-07

>  <r_epik_State_Penalty>  (19) 
-0

>  <r_epik_Charging_Adjusted_Penalty>  (19) 
0

>  <i_epik_Tot_Q>  (19) 
0

>  <i_epik_Tot_abs_Q>  (19) 
0

>  <s_epik_Chemistry_Notes>  (19) 
This compound contains an acetal/aminal-like group ( X-CH(R)-Y where X, Y are N, S, or O) that may be acid/base labile, releasing an aldehyde.

>  <s_lp_Force_Field>  (19) 
OPLS3e

>  <r_lp_Energy>  (19) 
124.905

>  <b_lp_Chiralities_Consistent>  (19) 
1

>  <s_lp_Variant>  (19) 
3:0-1

>  <s_i_glide_gridfile>  (19) 
pfpi4k_grid

>  <i_i_glide_lignum>  (19) 
7

>  <i_i_glide_rotatable_bonds>  (19) 
2

>  <r_i_docking_score>  (19) 
-2.37672

>  <r_i_glide_ligand_efficiency>  (19) 
-0.0950688

>  <r_i_glide_ligand_efficiency_sa>  (19) 
-0.277983

>  <r_i_glide_ligand_efficiency_ln>  (19) 
-0.563354

>  <r_i_glide_gscore>  (19) 
-2.37672

>  <r_i_glide_lipo>  (19) 
-0.206985

>  <r_i_glide_hbond>  (19) 
0

>  <r_i_glide_metal>  (19) 
-0

>  <r_i_glide_rewards>  (19) 
-1.07435

>  <r_i_glide_evdw>  (19) 
-23.4936

>  <r_i_glide_ecoul>  (19) 
0.601005

>  <r_i_glide_erotb>  (19) 
0

>  <r_i_glide_esite>  (19) 
-0.0108566

>  <r_i_glide_emodel>  (19) 
-26.0218

>  <r_i_glide_energy>  (19) 
-22.8926

>  <r_i_glide_einternal>  (19) 
0.739292

>  <r_i_glide_intrahb_reward>  (19) 
-0

>  <i_i_glide_confnum>  (19) 
2

>  <i_i_glide_posenum>  (19) 
6

>  <r_i_glide_eff_state_penalty>  (19) 
0

>  <ligand_id>  (19) 
3

>  <original_smiles>  (19) 
CC1CC=C2C3C(O)OCC2(C)C12C3CC1c3ccoc3C(O)C12C

>  <smiles>  (19) 
[H]OC1([H])OC([H])([H])C2(C([H])([H])[H])C3=C([H])C([H])([H])C([H])(C([H])([H])[H])C24C([H])(C([H])([H])C2([H])c5c(oc([H])c5[H])C([H])(O[H])C24C([H])([H])[H])C31[H]

$$$$
4:0:0
     RDKit          3D

 40 43  0  0  1  0  0  0  0  0999 V2000
    4.2823   -0.2043   -2.8371 C   0  0  0  0  0  0  0  0  0  0  0  0
    3.8734   -1.5106   -3.5001 C   0  0  0  0  0  0  0  0  0  0  0  0
    3.8990   -1.5992   -4.7301 O   0  0  0  0  0  0  0  0  0  0  0  0
    3.4582   -2.5822   -2.6985 N   0  0  0  0  0  0  0  0  0  0  0  0
    2.2229   -3.2520   -3.0702 C   0  0  0  0  0  0  0  0  0  0  0  0
    2.0107   -3.5243   -1.5816 C   0  0  0  0  0  0  0  0  0  0  0  0
    3.1068   -2.5008   -1.2904 C   0  0  1  0  0  0  0  0  0  0  0  0
    4.2154   -2.7914   -0.2764 C   0  0  2  0  0  0  0  0  0  0  0  0
    3.5725   -3.2888    1.0479 C   0  0  0  0  0  0  0  0  0  0  0  0
    4.6558   -3.6137    2.0809 C   0  0  1  0  0  0  0  0  0  0  0  0
    5.5916   -4.7125    1.5112 C   0  0  0  0  0  0  0  0  0  0  0  0
    6.2696   -4.2069    0.2262 C   0  0  2  0  0  0  0  0  0  0  0  0
    7.0801   -2.9356    0.5209 C   0  0  0  0  0  0  0  0  0  0  0  0
    6.1550   -1.8536    1.1135 C   0  0  2  0  0  0  0  0  0  0  0  0
    5.4694   -2.3397    2.4065 C   0  0  0  0  0  0  0  0  0  0  0  0
    5.0765   -1.5438    0.0771 C   0  0  0  0  0  0  0  0  0  0  0  0
    5.1801   -3.9013   -0.8111 C   0  0  0  0  0  0  0  0  0  0  0  0
    3.9014   -0.1048   -1.8315 H   0  0  0  0  0  0  0  0  0  0  0  0
    3.9239    0.6469   -3.4326 H   0  0  0  0  0  0  0  0  0  0  0  0
    5.3661   -0.1414   -2.7220 H   0  0  0  0  0  0  0  0  0  0  0  0
    1.4415   -2.6081   -3.4830 H   0  0  0  0  0  0  0  0  0  0  0  0
    2.3510   -4.1371   -3.6811 H   0  0  0  0  0  0  0  0  0  0  0  0
    1.0264   -3.2551   -1.2121 H   0  0  0  0  0  0  0  0  0  0  0  0
    2.2443   -4.5496   -1.2643 H   0  0  0  0  0  0  0  0  0  0  0  0
    2.6301   -1.5599   -1.0190 H   0  0  0  0  0  0  0  0  0  0  0  0
    2.8743   -2.5174    1.4121 H   0  0  0  0  0  0  0  0  0  0  0  0
    2.9178   -4.1580    0.8980 H   0  0  0  0  0  0  0  0  0  0  0  0
    4.2000   -3.9760    3.0153 H   0  0  0  0  0  0  0  0  0  0  0  0
    6.3525   -5.0038    2.2289 H   0  0  0  0  0  0  0  0  0  0  0  0
    5.0031   -5.5963    1.2847 H   0  0  0  0  0  0  0  0  0  0  0  0
    6.9229   -4.9821   -0.1751 H   0  0  0  0  0  0  0  0  0  0  0  0
    7.9059   -3.1562    1.2037 H   0  0  0  0  0  0  0  0  0  0  0  0
    7.5288   -2.5736   -0.4030 H   0  0  0  0  0  0  0  0  0  0  0  0
    6.7347   -0.9535    1.3286 H   0  0  0  0  0  0  0  0  0  0  0  0
    4.8091   -1.5557    2.7873 H   0  0  0  0  0  0  0  0  0  0  0  0
    6.2046   -2.5403    3.1731 H   0  0  0  0  0  0  0  0  0  0  0  0
    5.6357   -1.2020   -0.7846 H   0  0  0  0  0  0  0  0  0  0  0  0
    4.4603   -0.7113    0.4267 H   0  0  0  0  0  0  0  0  0  0  0  0
    4.6483   -4.8112   -1.0629 H   0  0  0  0  0  0  0  0  0  0  0  0
    5.6916   -3.5851   -1.7179 H   0  0  0  0  0  0  0  0  0  0  0  0
  1  2  1  0
  1 18  1  0
  1 19  1  0
  1 20  1  0
  2  3  2  0
  2  4  1  0
  4  7  1  0
  4  5  1  0
  5  6  1  0
  5 21  1  0
  5 22  1  0
  6  7  1  0
  6 23  1  0
  6 24  1  0
  7  8  1  0
  7 25  1  1
  8 16  1  1
  8 17  1  0
  8  9  1  0
  9 10  1  0
  9 26  1  0
  9 27  1  0
 10 15  1  0
 10 11  1  0
 10 28  1  1
 11 12  1  0
 11 29  1  0
 11 30  1  0
 12 13  1  0
 12 17  1  0
 12 31  1  6
 13 14  1  0
 13 32  1  0
 13 33  1  0
 14 15  1  0
 14 16  1  0
 14 34  1  1
 15 35  1  0
 15 36  1  0
 16 37  1  0
 16 38  1  0
 17 39  1  0
 17 40  1  0
M  END
>  <i_m_ct_stereo_status>  (20) 
1

>  <s_m_source_file>  (20) 
/var/tmp/pbs.5076255.sched01/tmp4ovtozgc/0905bh7x9.sdf

>  <i_m_source_file_index>  (20) 
8

>  <i_lp_mmshare_version>  (20) 
48012

>  <i_f3d_flags>  (20) 
0

>  <s_epik_input>  (20) 
W0NIM11DKD1PKU4xW0NIMl1bQ0gyXVtDQEhdMUMyM1tDSDJdW0NASF00W0NIMl1bQ0BASF0oW0NIMl0zKVtDSDJdW0NASF0oW0NIMl00KVtDSDJdMg==

>  <s_epik_cmdline>  (20) 
J2VwaWtfcHl0aG9uJywgJy1waHQnLCAnMi4wJywgJy1waCcsICc3LjAnLCAnLXRuJywgJzgnLCAnLW1hJywgJzIwMCcsICctaW1hZScsICc8aW5maWxlLm1hZT4nLCAnLW9tYWUnLCAnPG91dGZpbGUubWFlPic=

>  <r_lp_tautomer_probability>  (20) 
1

>  <r_epik_Ionization_Penalty>  (20) 
5.34275e-06

>  <r_epik_Ionization_Penalty_Charging>  (20) 
0

>  <r_epik_Ionization_Penalty_Neutral>  (20) 
5.34275e-06

>  <r_epik_State_Penalty>  (20) 
-0

>  <r_epik_Charging_Adjusted_Penalty>  (20) 
0

>  <i_epik_Tot_Q>  (20) 
0

>  <i_epik_Tot_abs_Q>  (20) 
0

>  <s_lp_Force_Field>  (20) 
OPLS3e

>  <r_lp_Energy>  (20) 
-3.16332

>  <b_lp_Chiralities_Consistent>  (20) 
1

>  <s_lp_Variant>  (20) 
4:0-1

>  <s_i_glide_gridfile>  (20) 
pfpi4k_grid

>  <i_i_glide_lignum>  (20) 
8

>  <i_i_glide_rotatable_bonds>  (20) 
2

>  <r_i_docking_score>  (20) 
-4.58658

>  <r_i_glide_ligand_efficiency>  (20) 
-0.269799

>  <r_i_glide_ligand_efficiency_sa>  (20) 
-0.693729

>  <r_i_glide_ligand_efficiency_ln>  (20) 
-1.19654

>  <r_i_glide_gscore>  (20) 
-4.58658

>  <r_i_glide_lipo>  (20) 
-0.943508

>  <r_i_glide_hbond>  (20) 
-0.32

>  <r_i_glide_metal>  (20) 
-0

>  <r_i_glide_rewards>  (20) 
-2.07869

>  <r_i_glide_evdw>  (20) 
-15.2675

>  <r_i_glide_ecoul>  (20) 
-5.21706

>  <r_i_glide_erotb>  (20) 
0.314964

>  <r_i_glide_esite>  (20) 
-0.0134105

>  <r_i_glide_emodel>  (20) 
-24.2771

>  <r_i_glide_energy>  (20) 
-20.4846

>  <r_i_glide_einternal>  (20) 
3.89925

>  <r_i_glide_intrahb_reward>  (20) 
-0

>  <i_i_glide_confnum>  (20) 
4

>  <i_i_glide_posenum>  (20) 
22

>  <r_i_glide_eff_state_penalty>  (20) 
0

>  <ligand_id>  (20) 
4

>  <original_smiles>  (20) 
CC(=O)N1CCC1C12CC3CC(CC(C3)C1)C2

>  <smiles>  (20) 
[H]C([H])([H])C(=O)N1C([H])([H])C([H])([H])C1([H])C12C([H])([H])C3([H])C([H])([H])C([H])(C([H])([H])C([H])(C3([H])[H])C1([H])[H])C2([H])[H]

$$$$
4:0:1
     RDKit          3D

 40 43  0  0  1  0  0  0  0  0999 V2000
    3.4495   -0.7423   -4.5879 C   0  0  0  0  0  0  0  0  0  0  0  0
    3.9350   -1.0915   -3.1826 C   0  0  0  0  0  0  0  0  0  0  0  0
    4.6007   -0.2608   -2.5725 O   0  0  0  0  0  0  0  0  0  0  0  0
    3.5628   -2.3072   -2.6070 N   0  0  0  0  0  0  0  0  0  0  0  0
    2.3836   -3.0287   -3.0675 C   0  0  0  0  0  0  0  0  0  0  0  0
    2.1643   -3.4595   -1.6217 C   0  0  0  0  0  0  0  0  0  0  0  0
    3.1721   -2.3849   -1.2006 C   0  0  1  0  0  0  0  0  0  0  0  0
    4.2618   -2.7316   -0.1886 C   0  0  2  0  0  0  0  0  0  0  0  0
    3.5923   -3.2978    1.0990 C   0  0  0  0  0  0  0  0  0  0  0  0
    4.6592   -3.6935    2.1270 C   0  0  1  0  0  0  0  0  0  0  0  0
    5.5907   -4.7673    1.5230 C   0  0  0  0  0  0  0  0  0  0  0  0
    6.2897   -4.1985    0.2742 C   0  0  2  0  0  0  0  0  0  0  0  0
    7.1022   -2.9417    0.6276 C   0  0  0  0  0  0  0  0  0  0  0  0
    6.1720   -1.8795    1.2621 C   0  0  2  0  0  0  0  0  0  0  0  0
    5.4657   -2.4409    2.5109 C   0  0  0  0  0  0  0  0  0  0  0  0
    5.1036   -1.4902    0.2367 C   0  0  0  0  0  0  0  0  0  0  0  0
    5.2289   -3.8192   -0.7628 C   0  0  0  0  0  0  0  0  0  0  0  0
    3.0629   -1.6116   -5.1153 H   0  0  0  0  0  0  0  0  0  0  0  0
    4.2986   -0.3650   -5.1503 H   0  0  0  0  0  0  0  0  0  0  0  0
    2.6844    0.0349   -4.5316 H   0  0  0  0  0  0  0  0  0  0  0  0
    1.5743   -2.3828   -3.4169 H   0  0  0  0  0  0  0  0  0  0  0  0
    2.6285   -3.8338   -3.7586 H   0  0  0  0  0  0  0  0  0  0  0  0
    1.1518   -3.2998   -1.2628 H   0  0  0  0  0  0  0  0  0  0  0  0
    2.4919   -4.4683   -1.3820 H   0  0  0  0  0  0  0  0  0  0  0  0
    2.6609   -1.4681   -0.9194 H   0  0  0  0  0  0  0  0  0  0  0  0
    2.9039   -2.5534    1.5088 H   0  0  0  0  0  0  0  0  0  0  0  0
    2.9543   -4.1531    0.8713 H   0  0  0  0  0  0  0  0  0  0  0  0
    4.1866   -4.0947    3.0246 H   0  0  0  0  0  0  0  0  0  0  0  0
    6.3320   -5.1103    2.2427 H   0  0  0  0  0  0  0  0  0  0  0  0
    4.9983   -5.6395    1.2456 H   0  0  0  0  0  0  0  0  0  0  0  0
    6.9454   -4.9589   -0.1528 H   0  0  0  0  0  0  0  0  0  0  0  0
    7.9195   -3.2152    1.2938 H   0  0  0  0  0  0  0  0  0  0  0  0
    7.5634   -2.5412   -0.2772 H   0  0  0  0  0  0  0  0  0  0  0  0
    6.7624   -1.0011    1.5356 H   0  0  0  0  0  0  0  0  0  0  0  0
    4.8152   -1.6840    2.9485 H   0  0  0  0  0  0  0  0  0  0  0  0
    6.1947   -2.6846    3.2782 H   0  0  0  0  0  0  0  0  0  0  0  0
    5.6445   -1.0810   -0.6071 H   0  0  0  0  0  0  0  0  0  0  0  0
    4.4639   -0.6871    0.6155 H   0  0  0  0  0  0  0  0  0  0  0  0
    4.7029   -4.7268   -1.0567 H   0  0  0  0  0  0  0  0  0  0  0  0
    5.7476   -3.4670   -1.6575 H   0  0  0  0  0  0  0  0  0  0  0  0
  1  2  1  0
  1 18  1  0
  1 19  1  0
  1 20  1  0
  2  3  2  0
  2  4  1  0
  4  7  1  0
  4  5  1  0
  5  6  1  0
  5 21  1  0
  5 22  1  0
  6  7  1  0
  6 23  1  0
  6 24  1  0
  7  8  1  0
  7 25  1  1
  8 16  1  1
  8 17  1  0
  8  9  1  0
  9 10  1  0
  9 26  1  0
  9 27  1  0
 10 15  1  0
 10 11  1  0
 10 28  1  1
 11 12  1  0
 11 29  1  0
 11 30  1  0
 12 13  1  0
 12 17  1  0
 12 31  1  6
 13 14  1  0
 13 32  1  0
 13 33  1  0
 14 15  1  0
 14 16  1  0
 14 34  1  1
 15 35  1  0
 15 36  1  0
 16 37  1  0
 16 38  1  0
 17 39  1  0
 17 40  1  0
M  END
>  <i_m_ct_stereo_status>  (21) 
1

>  <s_m_source_file>  (21) 
/var/tmp/pbs.5076255.sched01/tmp4ovtozgc/0905bh7x9.sdf

>  <i_m_source_file_index>  (21) 
8

>  <i_lp_mmshare_version>  (21) 
48012

>  <i_f3d_flags>  (21) 
0

>  <s_epik_input>  (21) 
W0NIM11DKD1PKU4xW0NIMl1bQ0gyXVtDQEhdMUMyM1tDSDJdW0NASF00W0NIMl1bQ0BASF0oW0NIMl0zKVtDSDJdW0NASF0oW0NIMl00KVtDSDJdMg==

>  <s_epik_cmdline>  (21) 
J2VwaWtfcHl0aG9uJywgJy1waHQnLCAnMi4wJywgJy1waCcsICc3LjAnLCAnLXRuJywgJzgnLCAnLW1hJywgJzIwMCcsICctaW1hZScsICc8aW5maWxlLm1hZT4nLCAnLW9tYWUnLCAnPG91dGZpbGUubWFlPic=

>  <r_lp_tautomer_probability>  (21) 
1

>  <r_epik_Ionization_Penalty>  (21) 
5.34275e-06

>  <r_epik_Ionization_Penalty_Charging>  (21) 
0

>  <r_epik_Ionization_Penalty_Neutral>  (21) 
5.34275e-06

>  <r_epik_State_Penalty>  (21) 
-0

>  <r_epik_Charging_Adjusted_Penalty>  (21) 
0

>  <i_epik_Tot_Q>  (21) 
0

>  <i_epik_Tot_abs_Q>  (21) 
0

>  <s_lp_Force_Field>  (21) 
OPLS3e

>  <r_lp_Energy>  (21) 
-3.16332

>  <b_lp_Chiralities_Consistent>  (21) 
1

>  <s_lp_Variant>  (21) 
4:0-1

>  <s_i_glide_gridfile>  (21) 
pfpi4k_grid

>  <i_i_glide_lignum>  (21) 
8

>  <i_i_glide_rotatable_bonds>  (21) 
2

>  <r_i_docking_score>  (21) 
-3.7327

>  <r_i_glide_ligand_efficiency>  (21) 
-0.21957

>  <r_i_glide_ligand_efficiency_sa>  (21) 
-0.564577

>  <r_i_glide_ligand_efficiency_ln>  (21) 
-0.973777

>  <r_i_glide_gscore>  (21) 
-3.7327

>  <r_i_glide_lipo>  (21) 
-0.982722

>  <r_i_glide_hbond>  (21) 
0

>  <r_i_glide_metal>  (21) 
-0

>  <r_i_glide_rewards>  (21) 
-1.95992

>  <r_i_glide_evdw>  (21) 
-19.5604

>  <r_i_glide_ecoul>  (21) 
-0.783224

>  <r_i_glide_erotb>  (21) 
0.314964

>  <r_i_glide_esite>  (21) 
-0.009514

>  <r_i_glide_emodel>  (21) 
-24.0727

>  <r_i_glide_energy>  (21) 
-20.3436

>  <r_i_glide_einternal>  (21) 
1.51116

>  <r_i_glide_intrahb_reward>  (21) 
-0

>  <i_i_glide_confnum>  (21) 
4

>  <i_i_glide_posenum>  (21) 
7

>  <r_i_glide_eff_state_penalty>  (21) 
0

>  <ligand_id>  (21) 
4

>  <original_smiles>  (21) 
CC(=O)N1CCC1C12CC3CC(CC(C3)C1)C2

>  <smiles>  (21) 
[H]C([H])([H])C(=O)N1C([H])([H])C([H])([H])C1([H])C12C([H])([H])C3([H])C([H])([H])C([H])(C([H])([H])C([H])(C3([H])[H])C1([H])[H])C2([H])[H]

$$$$
4:0:2
     RDKit          3D

 40 43  0  0  1  0  0  0  0  0999 V2000
    3.2049   -7.2278    1.6186 C   0  0  0  0  0  0  0  0  0  0  0  0
    2.9548   -5.9299    0.8479 C   0  0  0  0  0  0  0  0  0  0  0  0
    1.8038   -5.6300    0.5380 O   0  0  0  0  0  0  0  0  0  0  0  0
    4.0497   -5.0883    0.6146 N   0  0  0  0  0  0  0  0  0  0  0  0
    5.1159   -4.9817    1.5954 C   0  0  0  0  0  0  0  0  0  0  0  0
    5.2874   -3.5364    1.1457 C   0  0  0  0  0  0  0  0  0  0  0  0
    3.9220   -3.6409    0.4485 C   0  0  1  0  0  0  0  0  0  0  0  0
    3.8042   -3.1724   -1.0149 C   0  0  2  0  0  0  0  0  0  0  0  0
    4.1748   -1.6550   -1.0525 C   0  0  0  0  0  0  0  0  0  0  0  0
    4.0889   -1.1309   -2.5054 C   0  0  1  0  0  0  0  0  0  0  0  0
    4.9957   -1.9862   -3.3692 C   0  0  0  0  0  0  0  0  0  0  0  0
    4.5572   -3.4443   -3.4280 C   0  0  2  0  0  0  0  0  0  0  0  0
    3.1032   -3.4953   -3.9523 C   0  0  0  0  0  0  0  0  0  0  0  0
    2.2040   -2.7098   -2.9762 C   0  0  2  0  0  0  0  0  0  0  0  0
    2.6829   -1.2383   -3.0191 C   0  0  0  0  0  0  0  0  0  0  0  0
    2.3644   -3.2971   -1.5482 C   0  0  0  0  0  0  0  0  0  0  0  0
    4.7601   -3.9474   -1.9837 C   0  0  0  0  0  0  0  0  0  0  0  0
    4.2674   -7.4634    1.6988 H   0  0  0  0  0  0  0  0  0  0  0  0
    2.7180   -8.0683    1.1178 H   0  0  0  0  0  0  0  0  0  0  0  0
    2.7832   -7.1296    2.6207 H   0  0  0  0  0  0  0  0  0  0  0  0
    4.7901   -5.0674    2.6355 H   0  0  0  0  0  0  0  0  0  0  0  0
    5.9697   -5.6167    1.3618 H   0  0  0  0  0  0  0  0  0  0  0  0
    5.3110   -2.7977    1.9466 H   0  0  0  0  0  0  0  0  0  0  0  0
    6.1367   -3.4028    0.4679 H   0  0  0  0  0  0  0  0  0  0  0  0
    3.1383   -3.2376    1.1047 H   0  0  0  0  0  0  0  0  0  0  0  0
    3.5434   -1.0734   -0.3795 H   0  0  0  0  0  0  0  0  0  0  0  0
    5.1849   -1.4952   -0.6726 H   0  0  0  0  0  0  0  0  0  0  0  0
    4.4043   -0.0838   -2.5489 H   0  0  0  0  0  0  0  0  0  0  0  0
    5.0181   -1.5330   -4.3563 H   0  0  0  0  0  0  0  0  0  0  0  0
    5.9531   -1.9638   -2.8729 H   0  0  0  0  0  0  0  0  0  0  0  0
    5.2065   -3.9987   -4.0964 H   0  0  0  0  0  0  0  0  0  0  0  0
    3.0416   -3.0344   -4.9535 H   0  0  0  0  0  0  0  0  0  0  0  0
    2.7480   -4.5363   -4.0193 H   0  0  0  0  0  0  0  0  0  0  0  0
    1.1871   -2.7950   -3.3140 H   0  0  0  0  0  0  0  0  0  0  0  0
    2.1650   -0.5759   -2.3295 H   0  0  0  0  0  0  0  0  0  0  0  0
    2.5909   -0.8336   -4.0238 H   0  0  0  0  0  0  0  0  0  0  0  0
    2.0215   -4.3285   -1.5531 H   0  0  0  0  0  0  0  0  0  0  0  0
    1.7248   -2.7942   -0.8415 H   0  0  0  0  0  0  0  0  0  0  0  0
    5.8017   -3.7849   -1.7005 H   0  0  0  0  0  0  0  0  0  0  0  0
    4.6635   -5.0320   -1.9229 H   0  0  0  0  0  0  0  0  0  0  0  0
  1  2  1  0
  1 18  1  0
  1 19  1  0
  1 20  1  0
  2  3  2  0
  2  4  1  0
  4  7  1  0
  4  5  1  0
  5  6  1  0
  5 21  1  0
  5 22  1  0
  6  7  1  0
  6 23  1  0
  6 24  1  0
  7  8  1  0
  7 25  1  1
  8 16  1  6
  8 17  1  0
  8  9  1  0
  9 10  1  0
  9 26  1  0
  9 27  1  0
 10 15  1  0
 10 11  1  0
 10 28  1  1
 11 12  1  0
 11 29  1  0
 11 30  1  0
 12 13  1  0
 12 17  1  0
 12 31  1  6
 13 14  1  0
 13 32  1  0
 13 33  1  0
 14 15  1  0
 14 16  1  0
 14 34  1  6
 15 35  1  0
 15 36  1  0
 16 37  1  0
 16 38  1  0
 17 39  1  0
 17 40  1  0
M  END
>  <i_m_ct_stereo_status>  (22) 
1

>  <s_m_source_file>  (22) 
/var/tmp/pbs.5076255.sched01/tmp4ovtozgc/0905bh7x9.sdf

>  <i_m_source_file_index>  (22) 
8

>  <i_lp_mmshare_version>  (22) 
48012

>  <i_f3d_flags>  (22) 
0

>  <s_epik_input>  (22) 
W0NIM11DKD1PKU4xW0NIMl1bQ0gyXVtDQEhdMUMyM1tDSDJdW0NASF00W0NIMl1bQ0BASF0oW0NIMl0zKVtDSDJdW0NASF0oW0NIMl00KVtDSDJdMg==

>  <s_epik_cmdline>  (22) 
J2VwaWtfcHl0aG9uJywgJy1waHQnLCAnMi4wJywgJy1waCcsICc3LjAnLCAnLXRuJywgJzgnLCAnLW1hJywgJzIwMCcsICctaW1hZScsICc8aW5maWxlLm1hZT4nLCAnLW9tYWUnLCAnPG91dGZpbGUubWFlPic=

>  <r_lp_tautomer_probability>  (22) 
1

>  <r_epik_Ionization_Penalty>  (22) 
5.34275e-06

>  <r_epik_Ionization_Penalty_Charging>  (22) 
0

>  <r_epik_Ionization_Penalty_Neutral>  (22) 
5.34275e-06

>  <r_epik_State_Penalty>  (22) 
-0

>  <r_epik_Charging_Adjusted_Penalty>  (22) 
0

>  <i_epik_Tot_Q>  (22) 
0

>  <i_epik_Tot_abs_Q>  (22) 
0

>  <s_lp_Force_Field>  (22) 
OPLS3e

>  <r_lp_Energy>  (22) 
-3.16332

>  <b_lp_Chiralities_Consistent>  (22) 
1

>  <s_lp_Variant>  (22) 
4:0-1

>  <s_i_glide_gridfile>  (22) 
pfpi4k_grid

>  <i_i_glide_lignum>  (22) 
8

>  <i_i_glide_rotatable_bonds>  (22) 
2

>  <r_i_docking_score>  (22) 
-2.89435

>  <r_i_glide_ligand_efficiency>  (22) 
-0.170256

>  <r_i_glide_ligand_efficiency_sa>  (22) 
-0.437776

>  <r_i_glide_ligand_efficiency_ln>  (22) 
-0.755072

>  <r_i_glide_gscore>  (22) 
-2.89435

>  <r_i_glide_lipo>  (22) 
-0.572067

>  <r_i_glide_hbond>  (22) 
-0.0948107

>  <r_i_glide_metal>  (22) 
-0

>  <r_i_glide_rewards>  (22) 
-1.85978

>  <r_i_glide_evdw>  (22) 
-9.19601

>  <r_i_glide_ecoul>  (22) 
-1.4037

>  <r_i_glide_erotb>  (22) 
0.314964

>  <r_i_glide_esite>  (22) 
-0.0123054

>  <r_i_glide_emodel>  (22) 
-12.7538

>  <r_i_glide_energy>  (22) 
-10.5997

>  <r_i_glide_einternal>  (22) 
0.631677

>  <r_i_glide_intrahb_reward>  (22) 
-0

>  <i_i_glide_confnum>  (22) 
4

>  <i_i_glide_posenum>  (22) 
33

>  <r_i_glide_eff_state_penalty>  (22) 
0

>  <ligand_id>  (22) 
4

>  <original_smiles>  (22) 
CC(=O)N1CCC1C12CC3CC(CC(C3)C1)C2

>  <smiles>  (22) 
[H]C([H])([H])C(=O)N1C([H])([H])C([H])([H])C1([H])C12C([H])([H])C3([H])C([H])([H])C([H])(C([H])([H])C([H])(C3([H])[H])C1([H])[H])C2([H])[H]

$$$$
5:0:0
     RDKit          3D

 87 92  0  0  1  0  0  0  0  0999 V2000
   -0.8752    1.8480    2.4788 C   0  0  0  0  0  0  0  0  0  0  0  0
   -0.3479    2.7593    3.3213 C   0  0  0  0  0  0  0  0  0  0  0  0
   -0.6053    2.9155    4.8200 C   0  0  1  0  0  0  0  0  0  0  0  0
   -1.1141    4.3581    5.0193 C   0  0  0  0  0  0  0  0  0  0  0  0
   -1.6698    1.9162    5.3249 C   0  0  0  0  0  0  0  0  0  0  0  0
   -1.7813    1.8657    6.8500 C   0  0  0  0  0  0  0  0  0  0  0  0
   -0.4340    1.5767    7.5205 C   0  0  1  0  0  0  0  0  0  0  0  0
    0.0913    0.2836    7.2569 O   0  0  0  0  0  0  0  0  0  0  0  0
    1.4392    0.2796    7.7389 C   0  0  1  0  0  0  0  0  0  0  0  0
    2.4879   -0.5491    6.9444 C   0  0  1  0  0  0  0  0  0  0  0  0
    2.2429   -0.5125    5.5234 O   0  0  0  0  0  0  0  0  0  0  0  0
    1.6951   -1.6155    4.7597 C   0  0  0  0  0  0  0  0  0  0  0  0
    1.7406   -3.0006    5.4489 C   0  0  0  0  0  0  0  0  0  0  0  0
    0.2151   -1.2641    4.5272 C   0  0  0  0  0  0  0  0  0  0  0  0
    2.4515   -1.5635    3.3789 C   0  0  2  0  0  0  0  0  0  0  0  0
    1.8039   -2.2969    2.1842 C   0  0  0  0  0  0  0  0  0  0  0  0
    2.9530   -2.7198    1.2590 C   0  0  1  0  0  0  0  0  0  0  0  0
    2.6095   -2.6730   -0.1126 O   0  0  0  0  0  0  0  0  0  0  0  0
    4.2076   -1.9189    1.7167 C   0  0  0  0  0  0  0  0  0  0  0  0
    5.5159   -2.6442    1.3202 C   0  0  0  0  0  0  0  0  0  0  0  0
    4.2403   -0.5273    1.0207 C   0  0  0  0  0  0  0  0  0  0  0  0
    3.9697   -1.8749    3.2678 C   0  0  2  0  0  0  0  0  0  0  0  0
    4.2014   -3.1872    3.7537 O   0  0  0  0  0  0  0  0  0  0  0  0
    4.8162   -0.8860    4.1155 C   0  0  0  0  0  0  0  0  0  0  0  0
    5.1335    0.2211    3.7049 O   0  0  0  0  0  0  0  0  0  0  0  0
    5.2158   -1.3339    5.5171 C   0  0  0  0  0  0  0  0  0  0  0  0
    5.1472   -0.2161    6.5444 C   0  0  2  0  0  0  0  0  0  0  0  0
    5.5926   -0.5210    7.9670 C   0  0  0  0  0  0  0  0  0  0  0  0
    5.8362   -1.9827    8.3592 C   0  0  0  0  0  0  0  0  0  0  0  0
    6.7125    0.3390    8.5697 C   0  0  0  0  0  0  0  0  0  0  0  0
    4.3047   -0.1059    8.4843 O   0  0  0  0  0  0  0  0  0  0  0  0
    3.8084    0.2121    7.1590 C   0  0  2  0  0  0  0  0  0  0  0  0
    3.3771    1.6850    7.1749 C   0  0  1  0  0  0  0  0  0  0  0  0
    3.5191    2.1919    5.8770 O   0  0  0  0  0  0  0  0  0  0  0  0
    1.9231    1.7458    7.7787 C   0  0  2  0  0  0  0  0  0  0  0  0
    2.0815    2.1639    9.2697 C   0  0  0  0  0  0  0  0  0  0  0  0
    0.7168    2.5077    7.1035 C   0  0  2  0  0  0  0  0  0  0  0  0
    0.5726    3.8029    7.6708 O   0  0  0  0  0  0  0  0  0  0  0  0
    0.7370    2.6535    5.5480 C   0  0  0  0  0  0  0  0  0  0  0  0
   -1.5833    1.0951    2.7858 H   0  0  0  0  0  0  0  0  0  0  0  0
   -0.5834    1.8507    1.4393 H   0  0  0  0  0  0  0  0  0  0  0  0
    0.3400    3.4708    2.8897 H   0  0  0  0  0  0  0  0  0  0  0  0
   -1.3687    4.5721    6.0552 H   0  0  0  0  0  0  0  0  0  0  0  0
   -2.0075    4.5292    4.4194 H   0  0  0  0  0  0  0  0  0  0  0  0
   -0.3645    5.0876    4.7090 H   0  0  0  0  0  0  0  0  0  0  0  0
   -2.6358    2.1678    4.8879 H   0  0  0  0  0  0  0  0  0  0  0  0
   -1.4439    0.9046    4.9936 H   0  0  0  0  0  0  0  0  0  0  0  0
   -2.1871    2.8022    7.2295 H   0  0  0  0  0  0  0  0  0  0  0  0
   -2.5038    1.1018    7.1305 H   0  0  0  0  0  0  0  0  0  0  0  0
   -0.5878    1.6430    8.5958 H   0  0  0  0  0  0  0  0  0  0  0  0
    1.4078   -0.1215    8.7559 H   0  0  0  0  0  0  0  0  0  0  0  0
    2.5614   -1.5613    7.3444 H   0  0  0  0  0  0  0  0  0  0  0  0
    1.4282   -3.7816    4.7578 H   0  0  0  0  0  0  0  0  0  0  0  0
    1.0606   -3.0453    6.2996 H   0  0  0  0  0  0  0  0  0  0  0  0
    2.7314   -3.2641    5.8075 H   0  0  0  0  0  0  0  0  0  0  0  0
   -0.2843   -2.0003    3.8974 H   0  0  0  0  0  0  0  0  0  0  0  0
    0.1286   -0.2986    4.0315 H   0  0  0  0  0  0  0  0  0  0  0  0
   -0.3487   -1.2290    5.4572 H   0  0  0  0  0  0  0  0  0  0  0  0
    2.3654   -0.5112    3.1074 H   0  0  0  0  0  0  0  0  0  0  0  0
    1.2527   -3.1834    2.4974 H   0  0  0  0  0  0  0  0  0  0  0  0
    1.0965   -1.6312    1.6848 H   0  0  0  0  0  0  0  0  0  0  0  0
    3.1473   -3.7783    1.4405 H   0  0  0  0  0  0  0  0  0  0  0  0
    2.0502   -1.9033   -0.3155 H   0  0  0  0  0  0  0  0  0  0  0  0
    6.3874   -2.1502    1.7511 H   0  0  0  0  0  0  0  0  0  0  0  0
    5.6414   -2.6485    0.2370 H   0  0  0  0  0  0  0  0  0  0  0  0
    5.5337   -3.6853    1.6371 H   0  0  0  0  0  0  0  0  0  0  0  0
    5.1631    0.0076    1.2446 H   0  0  0  0  0  0  0  0  0  0  0  0
    3.4116    0.1230    1.2980 H   0  0  0  0  0  0  0  0  0  0  0  0
    4.2206   -0.6184   -0.0662 H   0  0  0  0  0  0  0  0  0  0  0  0
    3.6991   -3.8138    3.2365 H   0  0  0  0  0  0  0  0  0  0  0  0
    4.5765   -2.1466    5.8492 H   0  0  0  0  0  0  0  0  0  0  0  0
    6.2085   -1.7515    5.4841 H   0  0  0  0  0  0  0  0  0  0  0  0
    5.6861    0.6705    6.2345 H   0  0  0  0  0  0  0  0  0  0  0  0
    6.7325   -2.3800    7.8774 H   0  0  0  0  0  0  0  0  0  0  0  0
    5.0072   -2.6318    8.0634 H   0  0  0  0  0  0  0  0  0  0  0  0
    5.9697   -2.1142    9.4366 H   0  0  0  0  0  0  0  0  0  0  0  0
    7.6783    0.0956    8.1261 H   0  0  0  0  0  0  0  0  0  0  0  0
    6.8199    0.1880    9.6465 H   0  0  0  0  0  0  0  0  0  0  0  0
    6.5484    1.3988    8.4070 H   0  0  0  0  0  0  0  0  0  0  0  0
    4.0595    2.2960    7.7679 H   0  0  0  0  0  0  0  0  0  0  0  0
    3.0275    1.6183    5.2939 H   0  0  0  0  0  0  0  0  0  0  0  0
    2.4599    3.1811    9.3651 H   0  0  0  0  0  0  0  0  0  0  0  0
    2.7975    1.5206    9.7837 H   0  0  0  0  0  0  0  0  0  0  0  0
    1.1531    2.0977    9.8425 H   0  0  0  0  0  0  0  0  0  0  0  0
    0.4628    3.7163    8.6140 H   0  0  0  0  0  0  0  0  0  0  0  0
    1.1252    1.7273    5.1246 H   0  0  0  0  0  0  0  0  0  0  0  0
    1.4240    3.4516    5.2764 H   0  0  0  0  0  0  0  0  0  0  0  0
  1  2  2  0
  1 40  1  0
  1 41  1  0
  2  3  1  0
  2 42  1  0
  3 39  1  0
  3  4  1  6
  3  5  1  0
  4 43  1  0
  4 44  1  0
  4 45  1  0
  5  6  1  0
  5 46  1  0
  5 47  1  0
  6  7  1  0
  6 48  1  0
  6 49  1  0
  7 37  1  0
  7  8  1  0
  7 50  1  1
  8  9  1  0
  9 35  1  0
  9 10  1  0
  9 51  1  1
 10 32  1  0
 10 11  1  0
 10 52  1  1
 11 12  1  0
 12 13  1  0
 12 14  1  0
 12 15  1  0
 13 53  1  0
 13 54  1  0
 13 55  1  0
 14 56  1  0
 14 57  1  0
 14 58  1  0
 15 22  1  0
 15 16  1  0
 15 59  1  6
 16 17  1  0
 16 60  1  0
 16 61  1  0
 17 18  1  0
 17 19  1  0
 17 62  1  1
 18 63  1  0
 19 20  1  0
 19 21  1  0
 19 22  1  0
 20 64  1  0
 20 65  1  0
 20 66  1  0
 21 67  1  0
 21 68  1  0
 21 69  1  0
 22 23  1  1
 22 24  1  0
 23 70  1  0
 24 25  2  0
 24 26  1  0
 26 27  1  0
 26 71  1  0
 26 72  1  0
 27 32  1  0
 27 28  1  0
 27 73  1  6
 28 29  1  0
 28 30  1  0
 28 31  1  0
 29 74  1  0
 29 75  1  0
 29 76  1  0
 30 77  1  0
 30 78  1  0
 30 79  1  0
 32 31  1  1
 32 33  1  0
 33 34  1  0
 33 35  1  0
 33 80  1  1
 34 81  1  0
 35 36  1  1
 35 37  1  0
 36 82  1  0
 36 83  1  0
 36 84  1  0
 37 38  1  1
 37 39  1  0
 38 85  1  0
 39 86  1  0
 39 87  1  0
M  END
>  <i_m_ct_stereo_status>  (23) 
1

>  <s_m_source_file>  (23) 
/var/tmp/pbs.5076255.sched01/tmp4ovtozgc/0905bh7x9.sdf

>  <i_m_source_file_index>  (23) 
9

>  <i_lp_mmshare_version>  (23) 
48012

>  <i_f3d_flags>  (23) 
0

>  <s_epik_input>  (23) 
W0NIMl09W0NIXVtDQF0oW0NIM10pKFtDSDJdMSlbQ0gyXVtDSDJdW0NAQEhdKE8yKVtDQEBdMShbT0hdKVtDQF0oW0NIM10pKFtDQEBIXTNbT0hdKVtDQEBIXTJbQ0BIXShbQ0BdMzQ1KU9DKFtDSDNdKShbQ0gzXSlbQ0BIXTZbQ0BAXShbT0hdKShDKFtDSDNdKShbQ0gzXSlbQ0BASF0oW0NIMl02KVtPSF0pQyg9TylbQ0gyXVtDQEBIXTRDKE81KShbQ0gzXSlbQ0gzXQ==

>  <s_epik_cmdline>  (23) 
J2VwaWtfcHl0aG9uJywgJy1waHQnLCAnMi4wJywgJy1waCcsICc3LjAnLCAnLXRuJywgJzgnLCAnLW1hJywgJzIwMCcsICctaW1hZScsICc8aW5maWxlLm1hZT4nLCAnLW9tYWUnLCAnPG91dGZpbGUubWFlPic=

>  <r_lp_tautomer_probability>  (23) 
1

>  <r_epik_Ionization_Penalty>  (23) 
3.50377e-07

>  <r_epik_Ionization_Penalty_Charging>  (23) 
0

>  <r_epik_Ionization_Penalty_Neutral>  (23) 
3.50377e-07

>  <r_epik_State_Penalty>  (23) 
-0

>  <r_epik_Charging_Adjusted_Penalty>  (23) 
0

>  <i_epik_Tot_Q>  (23) 
0

>  <i_epik_Tot_abs_Q>  (23) 
0

>  <s_lp_Force_Field>  (23) 
OPLS3e

>  <r_lp_Energy>  (23) 
61.5436

>  <b_lp_Chiralities_Consistent>  (23) 
1

>  <s_lp_Variant>  (23) 
5:0-1

>  <s_i_glide_gridfile>  (23) 
pfpi4k_grid

>  <i_i_glide_lignum>  (23) 
9

>  <i_i_glide_rotatable_bonds>  (23) 
5

>  <r_i_docking_score>  (23) 
-2.71163

>  <r_i_glide_ligand_efficiency>  (23) 
-0.069529

>  <r_i_glide_ligand_efficiency_sa>  (23) 
-0.235788

>  <r_i_glide_ligand_efficiency_ln>  (23) 
-0.581451

>  <r_i_glide_gscore>  (23) 
-2.71163

>  <r_i_glide_lipo>  (23) 
-0.203233

>  <r_i_glide_hbond>  (23) 
-0.16

>  <r_i_glide_metal>  (23) 
-0

>  <r_i_glide_rewards>  (23) 
-0.580774

>  <r_i_glide_evdw>  (23) 
-19.4968

>  <r_i_glide_ecoul>  (23) 
-5.74409

>  <r_i_glide_erotb>  (23) 
0.0688296

>  <r_i_glide_esite>  (23) 
0

>  <r_i_glide_emodel>  (23) 
-33.8871

>  <r_i_glide_energy>  (23) 
-25.2409

>  <r_i_glide_einternal>  (23) 
0.669139

>  <r_i_glide_intrahb_reward>  (23) 
-0.5

>  <i_i_glide_confnum>  (23) 
3

>  <i_i_glide_posenum>  (23) 
5

>  <r_i_glide_eff_state_penalty>  (23) 
0

>  <ligand_id>  (23) 
5

>  <original_smiles>  (23) 
C=CC1(C)CCC2OC3C4OC(C)(C)C5CC(O)C(C)(C)C5(O)C(=O)CC5C(C)(C)OC45C(O)C3(C)C2(O)C1

>  <smiles>  (23) 
[H]OC1([H])C([H])([H])C2([H])C(O[H])(C(=O)C([H])([H])C3([H])C(C([H])([H])[H])(C([H])([H])[H])OC34C([H])(OC2(C([H])([H])[H])C([H])([H])[H])C2([H])OC3([H])C([H])([H])C([H])([H])C(C([H])=C([H])[H])(C([H])([H])[H])C([H])([H])C3(O[H])C2(C([H])([H])[H])C4([H])O[H])C1(C([H])([H])[H])C([H])([H])[H]

$$$$
5:0:1
     RDKit          3D

 87 92  0  0  1  0  0  0  0  0999 V2000
   -0.8785    1.8606    2.4748 C   0  0  0  0  0  0  0  0  0  0  0  0
   -0.3384    2.7597    3.3146 C   0  0  0  0  0  0  0  0  0  0  0  0
   -0.5919    2.9156    4.8148 C   0  0  1  0  0  0  0  0  0  0  0  0
   -1.0952    4.3608    5.0167 C   0  0  0  0  0  0  0  0  0  0  0  0
   -1.6600    1.9191    5.3189 C   0  0  0  0  0  0  0  0  0  0  0  0
   -1.7672    1.8664    6.8437 C   0  0  0  0  0  0  0  0  0  0  0  0
   -0.4192    1.5765    7.5114 C   0  0  1  0  0  0  0  0  0  0  0  0
    0.1026    0.2793    7.2468 O   0  0  0  0  0  0  0  0  0  0  0  0
    1.4493    0.2694    7.7259 C   0  0  1  0  0  0  0  0  0  0  0  0
    2.4929   -0.5569    6.9290 C   0  0  1  0  0  0  0  0  0  0  0  0
    2.2484   -0.5179    5.5080 O   0  0  0  0  0  0  0  0  0  0  0  0
    1.6982   -1.6171    4.7431 C   0  0  0  0  0  0  0  0  0  0  0  0
    1.7401   -3.0016    5.4297 C   0  0  0  0  0  0  0  0  0  0  0  0
    0.2201   -1.2622    4.5114 C   0  0  0  0  0  0  0  0  0  0  0  0
    2.4496   -1.5596    3.3626 C   0  0  2  0  0  0  0  0  0  0  0  0
    1.8026   -2.2991    2.1717 C   0  0  0  0  0  0  0  0  0  0  0  0
    2.9527   -2.7291    1.2486 C   0  0  1  0  0  0  0  0  0  0  0  0
    2.6175   -2.6573   -0.1255 O   0  0  0  0  0  0  0  0  0  0  0  0
    4.2052   -1.9262    1.6932 C   0  0  0  0  0  0  0  0  0  0  0  0
    5.5126   -2.6540    1.2957 C   0  0  0  0  0  0  0  0  0  0  0  0
    4.2413   -0.5333    0.9990 C   0  0  0  0  0  0  0  0  0  0  0  0
    3.9686   -1.8771    3.2458 C   0  0  2  0  0  0  0  0  0  0  0  0
    4.1699   -3.2000    3.7141 O   0  0  0  0  0  0  0  0  0  0  0  0
    4.8215   -0.8954    4.0946 C   0  0  0  0  0  0  0  0  0  0  0  0
    5.1491    0.2074    3.6871 O   0  0  0  0  0  0  0  0  0  0  0  0
    5.2141   -1.3516    5.4942 C   0  0  0  0  0  0  0  0  0  0  0  0
    5.1528   -0.2277    6.5237 C   0  0  2  0  0  0  0  0  0  0  0  0
    5.6007   -0.5428    7.9476 C   0  0  0  0  0  0  0  0  0  0  0  0
    5.8397   -2.0007    8.3364 C   0  0  0  0  0  0  0  0  0  0  0  0
    6.7227    0.3166    8.5471 C   0  0  0  0  0  0  0  0  0  0  0  0
    4.3169   -0.1246    8.4646 O   0  0  0  0  0  0  0  0  0  0  0  0
    3.8142    0.1985    7.1435 C   0  0  2  0  0  0  0  0  0  0  0  0
    3.3924    1.6760    7.1609 C   0  0  1  0  0  0  0  0  0  0  0  0
    3.5323    2.1812    5.8613 O   0  0  0  0  0  0  0  0  0  0  0  0
    1.9346    1.7371    7.7663 C   0  0  2  0  0  0  0  0  0  0  0  0
    2.1006    2.1521    9.2576 C   0  0  0  0  0  0  0  0  0  0  0  0
    0.7338    2.5031    7.0937 C   0  0  2  0  0  0  0  0  0  0  0  0
    0.5935    3.7967    7.6633 O   0  0  0  0  0  0  0  0  0  0  0  0
    0.7500    2.6508    5.5403 C   0  0  0  0  0  0  0  0  0  0  0  0
   -1.6040    1.1199    2.7759 H   0  0  0  0  0  0  0  0  0  0  0  0
   -0.5825    1.8619    1.4329 H   0  0  0  0  0  0  0  0  0  0  0  0
    0.3661    3.4617    2.8860 H   0  0  0  0  0  0  0  0  0  0  0  0
   -1.3482    4.5716    6.0530 H   0  0  0  0  0  0  0  0  0  0  0  0
   -1.9881    4.5331    4.4154 H   0  0  0  0  0  0  0  0  0  0  0  0
   -0.3456    5.0877    4.7035 H   0  0  0  0  0  0  0  0  0  0  0  0
   -2.6229    2.1726    4.8813 H   0  0  0  0  0  0  0  0  0  0  0  0
   -1.4348    0.9085    4.9861 H   0  0  0  0  0  0  0  0  0  0  0  0
   -2.1693    2.8063    7.2244 H   0  0  0  0  0  0  0  0  0  0  0  0
   -2.4915    1.1056    7.1228 H   0  0  0  0  0  0  0  0  0  0  0  0
   -0.5700    1.6390    8.5867 H   0  0  0  0  0  0  0  0  0  0  0  0
    1.4196   -0.1290    8.7430 H   0  0  0  0  0  0  0  0  0  0  0  0
    2.5662   -1.5688    7.3263 H   0  0  0  0  0  0  0  0  0  0  0  0
    1.4239   -3.7831    4.7379 H   0  0  0  0  0  0  0  0  0  0  0  0
    1.0615   -3.0484    6.2832 H   0  0  0  0  0  0  0  0  0  0  0  0
    2.7319   -3.2747    5.7833 H   0  0  0  0  0  0  0  0  0  0  0  0
   -0.2809   -1.9972    3.8837 H   0  0  0  0  0  0  0  0  0  0  0  0
    0.1326   -0.2979    4.0178 H   0  0  0  0  0  0  0  0  0  0  0  0
   -0.3429   -1.2283    5.4411 H   0  0  0  0  0  0  0  0  0  0  0  0
    2.3657   -0.5092    3.0885 H   0  0  0  0  0  0  0  0  0  0  0  0
    1.2590   -3.1809    2.5022 H   0  0  0  0  0  0  0  0  0  0  0  0
    1.0949   -1.6372    1.6714 H   0  0  0  0  0  0  0  0  0  0  0  0
    3.1422   -3.7872    1.4332 H   0  0  0  0  0  0  0  0  0  0  0  0
    2.0435   -1.9036   -0.3061 H   0  0  0  0  0  0  0  0  0  0  0  0
    6.3894   -2.1660    1.7231 H   0  0  0  0  0  0  0  0  0  0  0  0
    5.6334   -2.6552    0.2132 H   0  0  0  0  0  0  0  0  0  0  0  0
    5.5237   -3.6990    1.6035 H   0  0  0  0  0  0  0  0  0  0  0  0
    5.1640    0.0038    1.2238 H   0  0  0  0  0  0  0  0  0  0  0  0
    3.4093    0.1137    1.2779 H   0  0  0  0  0  0  0  0  0  0  0  0
    4.2212   -0.6258   -0.0864 H   0  0  0  0  0  0  0  0  0  0  0  0
    5.0786   -3.4299    3.5565 H   0  0  0  0  0  0  0  0  0  0  0  0
    4.5709   -2.1596    5.8214 H   0  0  0  0  0  0  0  0  0  0  0  0
    6.2173   -1.7720    5.4622 H   0  0  0  0  0  0  0  0  0  0  0  0
    5.6975    0.6543    6.2116 H   0  0  0  0  0  0  0  0  0  0  0  0
    6.7375   -2.4007    7.8523 H   0  0  0  0  0  0  0  0  0  0  0  0
    5.0082   -2.6451    8.0398 H   0  0  0  0  0  0  0  0  0  0  0  0
    5.9799   -2.1343    9.4124 H   0  0  0  0  0  0  0  0  0  0  0  0
    7.6897    0.0715    8.1004 H   0  0  0  0  0  0  0  0  0  0  0  0
    6.8324    0.1620    9.6233 H   0  0  0  0  0  0  0  0  0  0  0  0
    6.5607    1.3783    8.3864 H   0  0  0  0  0  0  0  0  0  0  0  0
    4.0756    2.2794    7.7523 H   0  0  0  0  0  0  0  0  0  0  0  0
    3.0388    1.6074    5.2791 H   0  0  0  0  0  0  0  0  0  0  0  0
    2.4795    3.1707    9.3555 H   0  0  0  0  0  0  0  0  0  0  0  0
    2.8146    1.5073    9.7683 H   0  0  0  0  0  0  0  0  0  0  0  0
    1.1708    2.0893    9.8299 H   0  0  0  0  0  0  0  0  0  0  0  0
    0.4809    3.7090    8.6061 H   0  0  0  0  0  0  0  0  0  0  0  0
    1.1338    1.7238    5.1148 H   0  0  0  0  0  0  0  0  0  0  0  0
    1.4411    3.4473    5.2660 H   0  0  0  0  0  0  0  0  0  0  0  0
  1  2  2  0
  1 40  1  0
  1 41  1  0
  2  3  1  0
  2 42  1  0
  3 39  1  0
  3  4  1  6
  3  5  1  0
  4 43  1  0
  4 44  1  0
  4 45  1  0
  5  6  1  0
  5 46  1  0
  5 47  1  0
  6  7  1  0
  6 48  1  0
  6 49  1  0
  7 37  1  0
  7  8  1  0
  7 50  1  1
  8  9  1  0
  9 35  1  0
  9 10  1  0
  9 51  1  1
 10 32  1  0
 10 11  1  0
 10 52  1  1
 11 12  1  0
 12 13  1  0
 12 14  1  0
 12 15  1  0
 13 53  1  0
 13 54  1  0
 13 55  1  0
 14 56  1  0
 14 57  1  0
 14 58  1  0
 15 22  1  0
 15 16  1  0
 15 59  1  6
 16 17  1  0
 16 60  1  0
 16 61  1  0
 17 18  1  0
 17 19  1  0
 17 62  1  1
 18 63  1  0
 19 20  1  0
 19 21  1  0
 19 22  1  0
 20 64  1  0
 20 65  1  0
 20 66  1  0
 21 67  1  0
 21 68  1  0
 21 69  1  0
 22 23  1  1
 22 24  1  0
 23 70  1  0
 24 25  2  0
 24 26  1  0
 26 27  1  0
 26 71  1  0
 26 72  1  0
 27 32  1  0
 27 28  1  0
 27 73  1  6
 28 29  1  0
 28 30  1  0
 28 31  1  0
 29 74  1  0
 29 75  1  0
 29 76  1  0
 30 77  1  0
 30 78  1  0
 30 79  1  0
 32 31  1  1
 32 33  1  0
 33 34  1  0
 33 35  1  0
 33 80  1  1
 34 81  1  0
 35 36  1  1
 35 37  1  0
 36 82  1  0
 36 83  1  0
 36 84  1  0
 37 38  1  1
 37 39  1  0
 38 85  1  0
 39 86  1  0
 39 87  1  0
M  END
>  <i_m_ct_stereo_status>  (24) 
1

>  <s_m_source_file>  (24) 
/var/tmp/pbs.5076255.sched01/tmp4ovtozgc/0905bh7x9.sdf

>  <i_m_source_file_index>  (24) 
9

>  <i_lp_mmshare_version>  (24) 
48012

>  <i_f3d_flags>  (24) 
0

>  <s_epik_input>  (24) 
W0NIMl09W0NIXVtDQF0oW0NIM10pKFtDSDJdMSlbQ0gyXVtDSDJdW0NAQEhdKE8yKVtDQEBdMShbT0hdKVtDQF0oW0NIM10pKFtDQEBIXTNbT0hdKVtDQEBIXTJbQ0BIXShbQ0BdMzQ1KU9DKFtDSDNdKShbQ0gzXSlbQ0BIXTZbQ0BAXShbT0hdKShDKFtDSDNdKShbQ0gzXSlbQ0BASF0oW0NIMl02KVtPSF0pQyg9TylbQ0gyXVtDQEBIXTRDKE81KShbQ0gzXSlbQ0gzXQ==

>  <s_epik_cmdline>  (24) 
J2VwaWtfcHl0aG9uJywgJy1waHQnLCAnMi4wJywgJy1waCcsICc3LjAnLCAnLXRuJywgJzgnLCAnLW1hJywgJzIwMCcsICctaW1hZScsICc8aW5maWxlLm1hZT4nLCAnLW9tYWUnLCAnPG91dGZpbGUubWFlPic=

>  <r_lp_tautomer_probability>  (24) 
1

>  <r_epik_Ionization_Penalty>  (24) 
3.50377e-07

>  <r_epik_Ionization_Penalty_Charging>  (24) 
0

>  <r_epik_Ionization_Penalty_Neutral>  (24) 
3.50377e-07

>  <r_epik_State_Penalty>  (24) 
-0

>  <r_epik_Charging_Adjusted_Penalty>  (24) 
0

>  <i_epik_Tot_Q>  (24) 
0

>  <i_epik_Tot_abs_Q>  (24) 
0

>  <s_lp_Force_Field>  (24) 
OPLS3e

>  <r_lp_Energy>  (24) 
61.5436

>  <b_lp_Chiralities_Consistent>  (24) 
1

>  <s_lp_Variant>  (24) 
5:0-1

>  <s_i_glide_gridfile>  (24) 
pfpi4k_grid

>  <i_i_glide_lignum>  (24) 
9

>  <i_i_glide_rotatable_bonds>  (24) 
5

>  <r_i_docking_score>  (24) 
-2.63449

>  <r_i_glide_ligand_efficiency>  (24) 
-0.067551

>  <r_i_glide_ligand_efficiency_sa>  (24) 
-0.22908

>  <r_i_glide_ligand_efficiency_ln>  (24) 
-0.564909

>  <r_i_glide_gscore>  (24) 
-2.63449

>  <r_i_glide_lipo>  (24) 
-0.202476

>  <r_i_glide_hbond>  (24) 
-0.16

>  <r_i_glide_metal>  (24) 
-0

>  <r_i_glide_rewards>  (24) 
-0.582082

>  <r_i_glide_evdw>  (24) 
-19.5295

>  <r_i_glide_ecoul>  (24) 
-5.21523

>  <r_i_glide_erotb>  (24) 
0.0688296

>  <r_i_glide_esite>  (24) 
0

>  <r_i_glide_emodel>  (24) 
-32.4508

>  <r_i_glide_energy>  (24) 
-24.7447

>  <r_i_glide_einternal>  (24) 
2.26041

>  <r_i_glide_intrahb_reward>  (24) 
-0.5

>  <i_i_glide_confnum>  (24) 
1

>  <i_i_glide_posenum>  (24) 
31

>  <r_i_glide_eff_state_penalty>  (24) 
0

>  <ligand_id>  (24) 
5

>  <original_smiles>  (24) 
C=CC1(C)CCC2OC3C4OC(C)(C)C5CC(O)C(C)(C)C5(O)C(=O)CC5C(C)(C)OC45C(O)C3(C)C2(O)C1

>  <smiles>  (24) 
[H]OC1([H])C([H])([H])C2([H])C(O[H])(C(=O)C([H])([H])C3([H])C(C([H])([H])[H])(C([H])([H])[H])OC34C([H])(OC2(C([H])([H])[H])C([H])([H])[H])C2([H])OC3([H])C([H])([H])C([H])([H])C(C([H])=C([H])[H])(C([H])([H])[H])C([H])([H])C3(O[H])C2(C([H])([H])[H])C4([H])O[H])C1(C([H])([H])[H])C([H])([H])[H]

$$$$
5:0:2
     RDKit          3D

 87 92  0  0  1  0  0  0  0  0999 V2000
   -0.9017    1.7413    2.2665 C   0  0  0  0  0  0  0  0  0  0  0  0
   -0.3683    2.6563    3.1027 C   0  0  0  0  0  0  0  0  0  0  0  0
   -0.6734    2.8709    4.5807 C   0  0  1  0  0  0  0  0  0  0  0  0
   -1.1812    4.3219    4.7098 C   0  0  0  0  0  0  0  0  0  0  0  0
   -1.7565    1.8954    5.0833 C   0  0  0  0  0  0  0  0  0  0  0  0
   -1.9057    1.8891    6.6057 C   0  0  0  0  0  0  0  0  0  0  0  0
   -0.5792    1.6297    7.3277 C   0  0  1  0  0  0  0  0  0  0  0  0
   -0.0402    0.3267    7.1213 O   0  0  0  0  0  0  0  0  0  0  0  0
    1.2907    0.3436    7.6452 C   0  0  1  0  0  0  0  0  0  0  0  0
    2.3609   -0.5074    6.9115 C   0  0  1  0  0  0  0  0  0  0  0  0
    2.1578   -0.5215    5.4844 O   0  0  0  0  0  0  0  0  0  0  0  0
    1.6363   -1.6501    4.7401 C   0  0  0  0  0  0  0  0  0  0  0  0
    1.6626   -3.0083    5.4795 C   0  0  0  0  0  0  0  0  0  0  0  0
    0.1640   -1.3112    4.4522 C   0  0  0  0  0  0  0  0  0  0  0  0
    2.4281   -1.6388    3.3796 C   0  0  2  0  0  0  0  0  0  0  0  0
    1.8225   -2.4252    2.1970 C   0  0  0  0  0  0  0  0  0  0  0  0
    2.9993   -2.8733    1.3204 C   0  0  1  0  0  0  0  0  0  0  0  0
    2.7022   -2.8247   -0.0611 O   0  0  0  0  0  0  0  0  0  0  0  0
    4.2380   -2.0560    1.7840 C   0  0  0  0  0  0  0  0  0  0  0  0
    5.5577   -2.7937    1.4528 C   0  0  0  0  0  0  0  0  0  0  0  0
    4.2915   -0.6901    1.0410 C   0  0  0  0  0  0  0  0  0  0  0  0
    3.9528   -1.9540    3.3281 C   0  0  2  0  0  0  0  0  0  0  0  0
    4.1458   -3.2571    3.8508 O   0  0  0  0  0  0  0  0  0  0  0  0
    4.7771   -0.9390    4.1662 C   0  0  0  0  0  0  0  0  0  0  0  0
    5.1047    0.1518    3.7220 O   0  0  0  0  0  0  0  0  0  0  0  0
    5.1423   -1.3383    5.5906 C   0  0  0  0  0  0  0  0  0  0  0  0
    5.0360   -0.1810    6.5777 C   0  0  2  0  0  0  0  0  0  0  0  0
    5.4360   -0.4395    8.0262 C   0  0  0  0  0  0  0  0  0  0  0  0
    5.6655   -1.8821    8.4724 C   0  0  0  0  0  0  0  0  0  0  0  0
    6.5339    0.4463    8.6259 C   0  0  0  0  0  0  0  0  0  0  0  0
    4.1333   -0.0105    8.4889 O   0  0  0  0  0  0  0  0  0  0  0  0
    3.6724    0.2606    7.1401 C   0  0  2  0  0  0  0  0  0  0  0  0
    3.2444    1.7360    7.0919 C   0  0  1  0  0  0  0  0  0  0  0  0
    3.4150    2.2004    5.7805 O   0  0  0  0  0  0  0  0  0  0  0  0
    1.7702    1.8145    7.6470 C   0  0  2  0  0  0  0  0  0  0  0  0
    1.8902    2.2807    9.1281 C   0  0  0  0  0  0  0  0  0  0  0  0
    0.5848    2.5465    6.9074 C   0  0  2  0  0  0  0  0  0  0  0  0
    0.3970    3.8464    7.4452 O   0  0  0  0  0  0  0  0  0  0  0  0
    0.6475    2.6419    5.3543 C   0  0  0  0  0  0  0  0  0  0  0  0
   -1.6540    1.0293    2.5654 H   0  0  0  0  0  0  0  0  0  0  0  0
   -0.5722    1.7100    1.2369 H   0  0  0  0  0  0  0  0  0  0  0  0
    0.3711    3.3251    2.6887 H   0  0  0  0  0  0  0  0  0  0  0  0
   -1.4586    4.5572    5.7333 H   0  0  0  0  0  0  0  0  0  0  0  0
   -2.0580    4.4798    4.0801 H   0  0  0  0  0  0  0  0  0  0  0  0
   -0.4241    5.0384    4.3932 H   0  0  0  0  0  0  0  0  0  0  0  0
   -2.7040    2.1458    4.6063 H   0  0  0  0  0  0  0  0  0  0  0  0
   -1.5233    0.8746    4.7888 H   0  0  0  0  0  0  0  0  0  0  0  0
   -2.3200    2.8398    6.9418 H   0  0  0  0  0  0  0  0  0  0  0  0
   -2.6331    1.1363    6.8920 H   0  0  0  0  0  0  0  0  0  0  0  0
   -0.7625    1.7345    8.3954 H   0  0  0  0  0  0  0  0  0  0  0  0
    1.2290   -0.0214    8.6743 H   0  0  0  0  0  0  0  0  0  0  0  0
    2.4242   -1.5041    7.3436 H   0  0  0  0  0  0  0  0  0  0  0  0
    1.3706   -3.8171    4.8080 H   0  0  0  0  0  0  0  0  0  0  0  0
    0.9596   -3.0271    6.3153 H   0  0  0  0  0  0  0  0  0  0  0  0
    2.6438   -3.2631    5.8756 H   0  0  0  0  0  0  0  0  0  0  0  0
   -0.3125   -2.0732    3.8363 H   0  0  0  0  0  0  0  0  0  0  0  0
    0.0881   -0.3652    3.9206 H   0  0  0  0  0  0  0  0  0  0  0  0
   -0.4274   -1.2454    5.3636 H   0  0  0  0  0  0  0  0  0  0  0  0
    2.3482   -0.5974    3.0699 H   0  0  0  0  0  0  0  0  0  0  0  0
    1.2684   -3.3016    2.5275 H   0  0  0  0  0  0  0  0  0  0  0  0
    1.1296   -1.7810    1.6511 H   0  0  0  0  0  0  0  0  0  0  0  0
    3.1857   -3.9249    1.5417 H   0  0  0  0  0  0  0  0  0  0  0  0
    2.2539   -2.0048   -0.2773 H   0  0  0  0  0  0  0  0  0  0  0  0
    6.4189   -2.2865    1.8904 H   0  0  0  0  0  0  0  0  0  0  0  0
    5.7151   -2.8344    0.3750 H   0  0  0  0  0  0  0  0  0  0  0  0
    5.5643   -3.8260    1.8010 H   0  0  0  0  0  0  0  0  0  0  0  0
    5.2051   -0.1406    1.2760 H   0  0  0  0  0  0  0  0  0  0  0  0
    3.4480   -0.0379    1.2696 H   0  0  0  0  0  0  0  0  0  0  0  0
    4.3069   -0.8202   -0.0411 H   0  0  0  0  0  0  0  0  0  0  0  0
    5.0568   -3.4922    3.7191 H   0  0  0  0  0  0  0  0  0  0  0  0
    4.4912   -2.1349    5.9215 H   0  0  0  0  0  0  0  0  0  0  0  0
    6.1515   -1.7469    5.5997 H   0  0  0  0  0  0  0  0  0  0  0  0
    5.5818    0.6935    6.2432 H   0  0  0  0  0  0  0  0  0  0  0  0
    6.5800   -2.2961    8.0330 H   0  0  0  0  0  0  0  0  0  0  0  0
    4.8466   -2.5412    8.1758 H   0  0  0  0  0  0  0  0  0  0  0  0
    5.7719   -1.9739    9.5549 H   0  0  0  0  0  0  0  0  0  0  0  0
    7.5154    0.1892    8.2176 H   0  0  0  0  0  0  0  0  0  0  0  0
    6.6081    0.3313    9.7087 H   0  0  0  0  0  0  0  0  0  0  0  0
    6.3712    1.5003    8.4205 H   0  0  0  0  0  0  0  0  0  0  0  0
    3.9077    2.3637    7.6824 H   0  0  0  0  0  0  0  0  0  0  0  0
    2.9488    1.6048    5.1960 H   0  0  0  0  0  0  0  0  0  0  0  0
    2.2559    3.3058    9.1983 H   0  0  0  0  0  0  0  0  0  0  0  0
    2.5892    1.6586    9.6888 H   0  0  0  0  0  0  0  0  0  0  0  0
    0.9397    2.2415    9.6669 H   0  0  0  0  0  0  0  0  0  0  0  0
    1.1295    4.3957    7.1799 H   0  0  0  0  0  0  0  0  0  0  0  0
    1.0473    1.7019    4.9779 H   0  0  0  0  0  0  0  0  0  0  0  0
    1.3471    3.4266    5.0655 H   0  0  0  0  0  0  0  0  0  0  0  0
  1  2  2  0
  1 40  1  0
  1 41  1  0
  2  3  1  0
  2 42  1  0
  3 39  1  0
  3  4  1  6
  3  5  1  0
  4 43  1  0
  4 44  1  0
  4 45  1  0
  5  6  1  0
  5 46  1  0
  5 47  1  0
  6  7  1  0
  6 48  1  0
  6 49  1  0
  7 37  1  0
  7  8  1  0
  7 50  1  1
  8  9  1  0
  9 35  1  0
  9 10  1  0
  9 51  1  1
 10 32  1  0
 10 11  1  0
 10 52  1  1
 11 12  1  0
 12 13  1  0
 12 14  1  0
 12 15  1  0
 13 53  1  0
 13 54  1  0
 13 55  1  0
 14 56  1  0
 14 57  1  0
 14 58  1  0
 15 22  1  0
 15 16  1  0
 15 59  1  6
 16 17  1  0
 16 60  1  0
 16 61  1  0
 17 18  1  0
 17 19  1  0
 17 62  1  1
 18 63  1  0
 19 20  1  0
 19 21  1  0
 19 22  1  0
 20 64  1  0
 20 65  1  0
 20 66  1  0
 21 67  1  0
 21 68  1  0
 21 69  1  0
 22 23  1  1
 22 24  1  0
 23 70  1  0
 24 25  2  0
 24 26  1  0
 26 27  1  0
 26 71  1  0
 26 72  1  0
 27 32  1  0
 27 28  1  0
 27 73  1  6
 28 29  1  0
 28 30  1  0
 28 31  1  0
 29 74  1  0
 29 75  1  0
 29 76  1  0
 30 77  1  0
 30 78  1  0
 30 79  1  0
 32 31  1  1
 32 33  1  0
 33 34  1  0
 33 35  1  0
 33 80  1  1
 34 81  1  0
 35 36  1  1
 35 37  1  0
 36 82  1  0
 36 83  1  0
 36 84  1  0
 37 38  1  1
 37 39  1  0
 38 85  1  0
 39 86  1  0
 39 87  1  0
M  END
>  <i_m_ct_stereo_status>  (25) 
1

>  <s_m_source_file>  (25) 
/var/tmp/pbs.5076255.sched01/tmp4ovtozgc/0905bh7x9.sdf

>  <i_m_source_file_index>  (25) 
9

>  <i_lp_mmshare_version>  (25) 
48012

>  <i_f3d_flags>  (25) 
0

>  <s_epik_input>  (25) 
W0NIMl09W0NIXVtDQF0oW0NIM10pKFtDSDJdMSlbQ0gyXVtDSDJdW0NAQEhdKE8yKVtDQEBdMShbT0hdKVtDQF0oW0NIM10pKFtDQEBIXTNbT0hdKVtDQEBIXTJbQ0BIXShbQ0BdMzQ1KU9DKFtDSDNdKShbQ0gzXSlbQ0BIXTZbQ0BAXShbT0hdKShDKFtDSDNdKShbQ0gzXSlbQ0BASF0oW0NIMl02KVtPSF0pQyg9TylbQ0gyXVtDQEBIXTRDKE81KShbQ0gzXSlbQ0gzXQ==

>  <s_epik_cmdline>  (25) 
J2VwaWtfcHl0aG9uJywgJy1waHQnLCAnMi4wJywgJy1waCcsICc3LjAnLCAnLXRuJywgJzgnLCAnLW1hJywgJzIwMCcsICctaW1hZScsICc8aW5maWxlLm1hZT4nLCAnLW9tYWUnLCAnPG91dGZpbGUubWFlPic=

>  <r_lp_tautomer_probability>  (25) 
1

>  <r_epik_Ionization_Penalty>  (25) 
3.50377e-07

>  <r_epik_Ionization_Penalty_Charging>  (25) 
0

>  <r_epik_Ionization_Penalty_Neutral>  (25) 
3.50377e-07

>  <r_epik_State_Penalty>  (25) 
-0

>  <r_epik_Charging_Adjusted_Penalty>  (25) 
0

>  <i_epik_Tot_Q>  (25) 
0

>  <i_epik_Tot_abs_Q>  (25) 
0

>  <s_lp_Force_Field>  (25) 
OPLS3e

>  <r_lp_Energy>  (25) 
61.5436

>  <b_lp_Chiralities_Consistent>  (25) 
1

>  <s_lp_Variant>  (25) 
5:0-1

>  <s_i_glide_gridfile>  (25) 
pfpi4k_grid

>  <i_i_glide_lignum>  (25) 
9

>  <i_i_glide_rotatable_bonds>  (25) 
5

>  <r_i_docking_score>  (25) 
-2.4447

>  <r_i_glide_ligand_efficiency>  (25) 
-0.0626846

>  <r_i_glide_ligand_efficiency_sa>  (25) 
-0.212577

>  <r_i_glide_ligand_efficiency_ln>  (25) 
-0.524213

>  <r_i_glide_gscore>  (25) 
-2.4447

>  <r_i_glide_lipo>  (25) 
-0.180715

>  <r_i_glide_hbond>  (25) 
-0.16

>  <r_i_glide_metal>  (25) 
-0

>  <r_i_glide_rewards>  (25) 
-0.571892

>  <r_i_glide_evdw>  (25) 
-20.344

>  <r_i_glide_ecoul>  (25) 
-3.89147

>  <r_i_glide_erotb>  (25) 
0.0688296

>  <r_i_glide_esite>  (25) 
0

>  <r_i_glide_emodel>  (25) 
-31.9377

>  <r_i_glide_energy>  (25) 
-24.2355

>  <r_i_glide_einternal>  (25) 
1.91671

>  <r_i_glide_intrahb_reward>  (25) 
-0.5

>  <i_i_glide_confnum>  (25) 
1

>  <i_i_glide_posenum>  (25) 
40

>  <r_i_glide_eff_state_penalty>  (25) 
0

>  <ligand_id>  (25) 
5

>  <original_smiles>  (25) 
C=CC1(C)CCC2OC3C4OC(C)(C)C5CC(O)C(C)(C)C5(O)C(=O)CC5C(C)(C)OC45C(O)C3(C)C2(O)C1

>  <smiles>  (25) 
[H]OC1([H])C([H])([H])C2([H])C(O[H])(C(=O)C([H])([H])C3([H])C(C([H])([H])[H])(C([H])([H])[H])OC34C([H])(OC2(C([H])([H])[H])C([H])([H])[H])C2([H])OC3([H])C([H])([H])C([H])([H])C(C([H])=C([H])[H])(C([H])([H])[H])C([H])([H])C3(O[H])C2(C([H])([H])[H])C4([H])O[H])C1(C([H])([H])[H])C([H])([H])[H]

$$$$
6:0:0
     RDKit          3D

 36 38  0  0  1  0  0  0  0  0999 V2000
    3.6624   -6.7436    1.1153 C   0  0  0  0  0  0  0  0  0  0  0  0
    3.3385   -7.6801    1.9909 N   0  0  0  0  0  0  0  0  0  0  0  0
    2.0417   -7.3441    2.3525 N   0  0  0  0  0  0  0  0  0  0  0  0
    1.6300   -6.2815    1.7227 N   0  0  0  0  0  0  0  0  0  0  0  0
    2.6657   -5.8718    0.9535 N   0  0  0  0  0  0  0  0  0  0  0  0
    2.5363   -4.7077    0.0984 C   0  0  0  0  0  0  0  0  0  0  0  0
    3.8769   -3.9597   -0.1234 C   0  0  2  0  0  0  0  0  0  0  0  0
    4.4915   -3.5560    1.2375 C   0  0  0  0  0  0  0  0  0  0  0  0
    5.7972   -2.7948    1.0435 C   0  0  0  0  0  0  0  0  0  0  0  0
    5.5790   -1.5798    0.1320 C   0  0  0  0  0  0  0  0  0  0  0  0
    4.9942   -1.9692   -1.1802 N   0  0  2  0  0  0  0  0  0  0  0  0
    4.8642   -0.7925   -2.0773 C   0  0  0  0  0  0  0  0  0  0  0  0
    4.3068   -1.1669   -3.4643 C   0  0  0  0  0  0  0  0  0  0  0  0
    2.9763   -1.9025   -3.3362 C   0  0  0  0  0  0  0  0  0  0  0  0
    3.1626   -3.1136   -2.4348 C   0  0  0  0  0  0  0  0  0  0  0  0
    3.7028   -2.7144   -1.0362 C   0  0  1  0  0  0  0  0  0  0  0  0
    4.6167   -6.6853    0.6051 H   0  0  0  0  0  0  0  0  0  0  0  0
    2.0865   -5.0523   -0.8265 H   0  0  0  0  0  0  0  0  0  0  0  0
    1.8173   -4.0249    0.5445 H   0  0  0  0  0  0  0  0  0  0  0  0
    4.5795   -4.6332   -0.6230 H   0  0  0  0  0  0  0  0  0  0  0  0
    3.7800   -2.9434    1.7961 H   0  0  0  0  0  0  0  0  0  0  0  0
    4.7158   -4.4139    1.8726 H   0  0  0  0  0  0  0  0  0  0  0  0
    6.1584   -2.4681    2.0207 H   0  0  0  0  0  0  0  0  0  0  0  0
    6.5616   -3.4654    0.6410 H   0  0  0  0  0  0  0  0  0  0  0  0
    4.9221   -0.8589    0.6288 H   0  0  0  0  0  0  0  0  0  0  0  0
    6.5421   -1.0871   -0.0225 H   0  0  0  0  0  0  0  0  0  0  0  0
    4.2170   -0.0585   -1.5972 H   0  0  0  0  0  0  0  0  0  0  0  0
    5.8164   -0.3098   -2.1957 H   0  0  0  0  0  0  0  0  0  0  0  0
    4.1624   -0.2680   -4.0652 H   0  0  0  0  0  0  0  0  0  0  0  0
    5.0138   -1.8040   -3.9927 H   0  0  0  0  0  0  0  0  0  0  0  0
    2.2224   -1.2485   -2.9000 H   0  0  0  0  0  0  0  0  0  0  0  0
    2.6060   -2.2146   -4.3145 H   0  0  0  0  0  0  0  0  0  0  0  0
    2.1775   -3.5684   -2.3578 H   0  0  0  0  0  0  0  0  0  0  0  0
    3.8259   -3.8423   -2.9148 H   0  0  0  0  0  0  0  0  0  0  0  0
    2.9953   -2.0272   -0.5599 H   0  0  0  0  0  0  0  0  0  0  0  0
    5.6454   -2.6073   -1.6185 H   0  0  0  0  0  0  0  0  0  0  0  0
  1  5  1  0
  1  2  2  0
  1 17  1  0
  2  3  1  0
  3  4  2  0
  4  5  1  0
  5  6  1  0
  6  7  1  0
  6 18  1  0
  6 19  1  0
  7 16  1  0
  7  8  1  0
  7 20  1  6
  8  9  1  0
  8 21  1  0
  8 22  1  0
  9 10  1  0
  9 23  1  0
  9 24  1  0
 10 11  1  0
 10 25  1  0
 10 26  1  0
 11 16  1  0
 11 12  1  0
 11 36  1  6
 12 13  1  0
 12 27  1  0
 12 28  1  0
 13 14  1  0
 13 29  1  0
 13 30  1  0
 14 15  1  0
 14 31  1  0
 14 32  1  0
 15 16  1  0
 15 33  1  0
 15 34  1  0
 16 35  1  1
M  CHG  1  11   1
M  END
>  <i_m_ct_stereo_status>  (26) 
1

>  <s_m_source_file>  (26) 
/var/tmp/pbs.5076255.sched01/tmp4ovtozgc/0905bh7x9.sdf

>  <i_m_source_file_index>  (26) 
10

>  <i_lp_mmshare_version>  (26) 
48012

>  <i_f3d_flags>  (26) 
0

>  <s_epik_input>  (26) 
bjFubltjSF1uMVtDSDJdW0NASF0oW0NIMl1bQ0gyXVtDSDJdMilbQ0BASF0oTjIzKVtDSDJdW0NIMl1bQ0gyXVtDSDJdMw==

>  <s_epik_cmdline>  (26) 
J2VwaWtfcHl0aG9uJywgJy1waHQnLCAnMi4wJywgJy1waCcsICc3LjAnLCAnLXRuJywgJzgnLCAnLW1hJywgJzIwMCcsICctaW1hZScsICc8aW5maWxlLm1hZT4nLCAnLW9tYWUnLCAnPG91dGZpbGUubWFlPic=

>  <r_lp_tautomer_probability>  (26) 
1

>  <r_epik_Ionization_Penalty>  (26) 
0.00100072

>  <r_epik_Ionization_Penalty_Charging>  (26) 
0.00100072

>  <r_epik_Ionization_Penalty_Neutral>  (26) 
1.19773e-09

>  <r_epik_State_Penalty>  (26) 
0.00065237

>  <r_epik_Charging_Adjusted_Penalty>  (26) 
0.00165309

>  <i_epik_Tot_Q>  (26) 
1

>  <i_epik_Tot_abs_Q>  (26) 
1

>  <s_lp_Force_Field>  (26) 
OPLS3e

>  <r_lp_Energy>  (26) 
22.0197

>  <b_lp_Chiralities_Consistent>  (26) 
1

>  <s_lp_Variant>  (26) 
6:0-1

>  <s_i_glide_gridfile>  (26) 
pfpi4k_grid

>  <i_i_glide_lignum>  (26) 
10

>  <i_i_glide_rotatable_bonds>  (26) 
2

>  <r_i_docking_score>  (26) 
-3.15135

>  <r_i_glide_ligand_efficiency>  (26) 
-0.19696

>  <r_i_glide_ligand_efficiency_sa>  (26) 
-0.496307

>  <r_i_glide_ligand_efficiency_ln>  (26) 
-0.835329

>  <r_i_glide_gscore>  (26) 
-3.15135

>  <r_i_glide_lipo>  (26) 
-0.385223

>  <r_i_glide_hbond>  (26) 
0

>  <r_i_glide_metal>  (26) 
-0

>  <r_i_glide_rewards>  (26) 
-1.98963

>  <r_i_glide_evdw>  (26) 
-17.6722

>  <r_i_glide_ecoul>  (26) 
-3.13367

>  <r_i_glide_erotb>  (26) 
0.683854

>  <r_i_glide_esite>  (26) 
-0.10669

>  <r_i_glide_emodel>  (26) 
-23.7549

>  <r_i_glide_energy>  (26) 
-20.8059

>  <r_i_glide_einternal>  (26) 
1.13953

>  <r_i_glide_intrahb_reward>  (26) 
-0

>  <i_i_glide_confnum>  (26) 
1

>  <i_i_glide_posenum>  (26) 
1

>  <r_i_glide_eff_state_penalty>  (26) 
0

>  <ligand_id>  (26) 
6

>  <original_smiles>  (26) 
c1nnnn1CC1CCCN2CCCCC12

>  <smiles>  (26) 
[H]c1nnnn1C([H])([H])C1([H])C([H])([H])C([H])([H])C([H])([H])[N+]2([H])C([H])([H])C([H])([H])C([H])([H])C([H])([H])C12[H]

$$$$
6:0:1
     RDKit          3D

 36 38  0  0  1  0  0  0  0  0999 V2000
    2.0876   -5.8885    2.1444 C   0  0  0  0  0  0  0  0  0  0  0  0
    1.3807   -6.4943    3.0863 N   0  0  0  0  0  0  0  0  0  0  0  0
    1.1011   -5.4793    3.9882 N   0  0  0  0  0  0  0  0  0  0  0  0
    1.5953   -4.3466    3.5884 N   0  0  0  0  0  0  0  0  0  0  0  0
    2.2361   -4.5817    2.4205 N   0  0  0  0  0  0  0  0  0  0  0  0
    2.8150   -3.4787    1.6653 C   0  0  0  0  0  0  0  0  0  0  0  0
    3.9133   -3.9395    0.6598 C   0  0  2  0  0  0  0  0  0  0  0  0
    5.2980   -3.7884    1.3220 C   0  0  0  0  0  0  0  0  0  0  0  0
    6.4062   -4.2323    0.3656 C   0  0  0  0  0  0  0  0  0  0  0  0
    6.2964   -3.4759   -0.9720 C   0  0  0  0  0  0  0  0  0  0  0  0
    4.9546   -3.6365   -1.6034 N   0  0  2  0  0  0  0  0  0  0  0  0
    4.8987   -2.9670   -2.9322 C   0  0  0  0  0  0  0  0  0  0  0  0
    3.5392   -3.1664   -3.6361 C   0  0  0  0  0  0  0  0  0  0  0  0
    2.3934   -2.7084   -2.7309 C   0  0  0  0  0  0  0  0  0  0  0  0
    2.4687   -3.4324   -1.3893 C   0  0  0  0  0  0  0  0  0  0  0  0
    3.8444   -3.1936   -0.6998 C   0  0  1  0  0  0  0  0  0  0  0  0
    2.4373   -6.3758    1.2446 H   0  0  0  0  0  0  0  0  0  0  0  0
    2.0012   -2.9439    1.1932 H   0  0  0  0  0  0  0  0  0  0  0  0
    3.2316   -2.7542    2.3754 H   0  0  0  0  0  0  0  0  0  0  0  0
    3.8128   -4.9938    0.4084 H   0  0  0  0  0  0  0  0  0  0  0  0
    5.4704   -2.7512    1.6277 H   0  0  0  0  0  0  0  0  0  0  0  0
    5.3416   -4.3865    2.2344 H   0  0  0  0  0  0  0  0  0  0  0  0
    7.3757   -4.0354    0.8307 H   0  0  0  0  0  0  0  0  0  0  0  0
    6.3537   -5.3135    0.2102 H   0  0  0  0  0  0  0  0  0  0  0  0
    6.4968   -2.4146   -0.8047 H   0  0  0  0  0  0  0  0  0  0  0  0
    7.0731   -3.8409   -1.6471 H   0  0  0  0  0  0  0  0  0  0  0  0
    5.0861   -1.8975   -2.7974 H   0  0  0  0  0  0  0  0  0  0  0  0
    5.6934   -3.3654   -3.5661 H   0  0  0  0  0  0  0  0  0  0  0  0
    3.5025   -2.5885   -4.5614 H   0  0  0  0  0  0  0  0  0  0  0  0
    3.3897   -4.2136   -3.9105 H   0  0  0  0  0  0  0  0  0  0  0  0
    2.4560   -1.6317   -2.5607 H   0  0  0  0  0  0  0  0  0  0  0  0
    1.4289   -2.8974   -3.2035 H   0  0  0  0  0  0  0  0  0  0  0  0
    1.6440   -3.0656   -0.7889 H   0  0  0  0  0  0  0  0  0  0  0  0
    2.2476   -4.4890   -1.5181 H   0  0  0  0  0  0  0  0  0  0  0  0
    3.9726   -2.1167   -0.5204 H   0  0  0  0  0  0  0  0  0  0  0  0
    4.8206   -4.6295   -1.7775 H   0  0  0  0  0  0  0  0  0  0  0  0
  1  5  1  0
  1  2  2  0
  1 17  1  0
  2  3  1  0
  3  4  2  0
  4  5  1  0
  5  6  1  0
  6  7  1  0
  6 18  1  0
  6 19  1  0
  7 16  1  0
  7  8  1  0
  7 20  1  6
  8  9  1  0
  8 21  1  0
  8 22  1  0
  9 10  1  0
  9 23  1  0
  9 24  1  0
 10 11  1  0
 10 25  1  0
 10 26  1  0
 11 16  1  0
 11 12  1  0
 11 36  1  6
 12 13  1  0
 12 27  1  0
 12 28  1  0
 13 14  1  0
 13 29  1  0
 13 30  1  0
 14 15  1  0
 14 31  1  0
 14 32  1  0
 15 16  1  0
 15 33  1  0
 15 34  1  0
 16 35  1  1
M  CHG  1  11   1
M  END
>  <i_m_ct_stereo_status>  (27) 
1

>  <s_m_source_file>  (27) 
/var/tmp/pbs.5076255.sched01/tmp4ovtozgc/0905bh7x9.sdf

>  <i_m_source_file_index>  (27) 
10

>  <i_lp_mmshare_version>  (27) 
48012

>  <i_f3d_flags>  (27) 
0

>  <s_epik_input>  (27) 
bjFubltjSF1uMVtDSDJdW0NASF0oW0NIMl1bQ0gyXVtDSDJdMilbQ0BASF0oTjIzKVtDSDJdW0NIMl1bQ0gyXVtDSDJdMw==

>  <s_epik_cmdline>  (27) 
J2VwaWtfcHl0aG9uJywgJy1waHQnLCAnMi4wJywgJy1waCcsICc3LjAnLCAnLXRuJywgJzgnLCAnLW1hJywgJzIwMCcsICctaW1hZScsICc8aW5maWxlLm1hZT4nLCAnLW9tYWUnLCAnPG91dGZpbGUubWFlPic=

>  <r_lp_tautomer_probability>  (27) 
1

>  <r_epik_Ionization_Penalty>  (27) 
0.00100072

>  <r_epik_Ionization_Penalty_Charging>  (27) 
0.00100072

>  <r_epik_Ionization_Penalty_Neutral>  (27) 
1.19773e-09

>  <r_epik_State_Penalty>  (27) 
0.00065237

>  <r_epik_Charging_Adjusted_Penalty>  (27) 
0.00165309

>  <i_epik_Tot_Q>  (27) 
1

>  <i_epik_Tot_abs_Q>  (27) 
1

>  <s_lp_Force_Field>  (27) 
OPLS3e

>  <r_lp_Energy>  (27) 
22.0197

>  <b_lp_Chiralities_Consistent>  (27) 
1

>  <s_lp_Variant>  (27) 
6:0-1

>  <s_i_glide_gridfile>  (27) 
pfpi4k_grid

>  <i_i_glide_lignum>  (27) 
10

>  <i_i_glide_rotatable_bonds>  (27) 
2

>  <r_i_docking_score>  (27) 
-3.14247

>  <r_i_glide_ligand_efficiency>  (27) 
-0.196404

>  <r_i_glide_ligand_efficiency_sa>  (27) 
-0.494908

>  <r_i_glide_ligand_efficiency_ln>  (27) 
-0.832975

>  <r_i_glide_gscore>  (27) 
-3.14247

>  <r_i_glide_lipo>  (27) 
-0.752897

>  <r_i_glide_hbond>  (27) 
0

>  <r_i_glide_metal>  (27) 
-0

>  <r_i_glide_rewards>  (27) 
-1.89334

>  <r_i_glide_evdw>  (27) 
-15.577

>  <r_i_glide_ecoul>  (27) 
-2.201

>  <r_i_glide_erotb>  (27) 
0.683854

>  <r_i_glide_esite>  (27) 
-0.0710861

>  <r_i_glide_emodel>  (27) 
-18.0239

>  <r_i_glide_energy>  (27) 
-17.778

>  <r_i_glide_einternal>  (27) 
6.39784

>  <r_i_glide_intrahb_reward>  (27) 
-0

>  <i_i_glide_confnum>  (27) 
2

>  <i_i_glide_posenum>  (27) 
36

>  <r_i_glide_eff_state_penalty>  (27) 
0

>  <ligand_id>  (27) 
6

>  <original_smiles>  (27) 
c1nnnn1CC1CCCN2CCCCC12

>  <smiles>  (27) 
[H]c1nnnn1C([H])([H])C1([H])C([H])([H])C([H])([H])C([H])([H])[N+]2([H])C([H])([H])C([H])([H])C([H])([H])C([H])([H])C12[H]

$$$$
7:0:0
     RDKit          3D

 71 76  0  0  1  0  0  0  0  0999 V2000
    9.0847   -4.6838    1.4136 C   0  0  0  0  0  0  0  0  0  0  0  0
    9.1239   -5.5356    2.4570 C   0  0  0  0  0  0  0  0  0  0  0  0
    7.9530   -6.2563    3.0918 C   0  0  2  0  0  0  0  0  0  0  0  0
    8.3123   -7.5779    3.4545 O   0  0  0  0  0  0  0  0  0  0  0  0
    7.3307   -8.4622    3.2517 C   0  0  0  0  0  0  0  0  0  0  0  0
    7.3739   -9.6748    3.4317 O   0  0  0  0  0  0  0  0  0  0  0  0
    6.1061   -7.7270    2.7510 C   0  0  1  0  0  0  0  0  0  0  0  0
    5.4292   -8.5483    1.8025 O   0  0  0  0  0  0  0  0  0  0  0  0
    4.3743   -7.7579    1.0780 O   0  0  0  0  0  0  0  0  0  0  0  0
    3.4215   -7.1590    1.9651 C   0  0  1  0  0  0  0  0  0  0  0  0
    2.1005   -7.9565    1.9035 C   0  0  0  0  0  0  0  0  0  0  0  0
    3.7721   -7.1565    3.4701 C   0  0  2  0  0  0  0  0  0  0  0  0
    5.1726   -7.4449    3.8905 C   0  0  1  0  0  0  0  0  0  0  0  0
    4.0620   -8.3479    4.3809 C   0  0  0  0  0  0  0  0  0  0  0  0
    3.6686   -8.2535    5.8509 C   0  0  0  0  0  0  0  0  0  0  0  0
    3.9679   -9.8104    3.9744 C   0  0  0  0  0  0  0  0  0  0  0  0
    3.3598   -5.6609    1.4220 C   0  0  2  0  0  0  0  0  0  0  0  0
    2.3882   -5.4318    0.2114 C   0  0  1  0  0  0  0  0  0  0  0  0
    1.0492   -5.8858    0.4189 O   0  0  0  0  0  0  0  0  0  0  0  0
    2.2675   -3.9316   -0.1135 C   0  0  0  0  0  0  0  0  0  0  0  0
    3.5553   -3.2225   -0.4864 C   0  0  2  0  0  0  0  0  0  0  0  0
    4.0352   -3.5647   -1.9222 C   0  0  1  0  0  0  0  0  0  0  0  0
    3.0354   -3.3592   -2.8965 O   0  0  0  0  0  0  0  0  0  0  0  0
    5.2856   -2.8347   -2.3797 C   0  0  0  0  0  0  0  0  0  0  0  0
    5.8811   -2.0097   -1.2576 C   0  0  0  0  0  0  0  0  0  0  0  0
    5.9903   -2.7826    0.0645 C   0  0  1  0  0  0  0  0  0  0  0  0
    6.7455   -1.8321    1.0186 C   0  0  0  0  0  0  0  0  0  0  0  0
    4.6384   -3.4167    0.6319 C   0  0  1  0  0  0  0  0  0  0  0  0
    4.1836   -2.6020    1.8798 C   0  0  0  0  0  0  0  0  0  0  0  0
    4.7557   -4.9632    1.0721 C   0  0  2  0  0  0  0  0  0  0  0  0
    5.3348   -5.6068   -0.0463 O   0  0  0  0  0  0  0  0  0  0  0  0
    5.7895   -5.1463    2.2242 C   0  0  0  0  0  0  0  0  0  0  0  0
    6.7031   -6.4266    2.2057 C   0  0  1  0  0  0  0  0  0  0  0  0
    8.2056   -4.4883    0.8370 H   0  0  0  0  0  0  0  0  0  0  0  0
    9.9609   -4.1293    1.1225 H   0  0  0  0  0  0  0  0  0  0  0  0
   10.0694   -5.7200    2.9255 H   0  0  0  0  0  0  0  0  0  0  0  0
    7.7299   -5.7556    4.0345 H   0  0  0  0  0  0  0  0  0  0  0  0
    1.2853   -7.4402    2.4126 H   0  0  0  0  0  0  0  0  0  0  0  0
    2.1614   -8.9366    2.3605 H   0  0  0  0  0  0  0  0  0  0  0  0
    1.8068   -8.1703    0.8820 H   0  0  0  0  0  0  0  0  0  0  0  0
    3.2622   -6.3750    4.0060 H   0  0  0  0  0  0  0  0  0  0  0  0
    5.5800   -6.7950    4.6479 H   0  0  0  0  0  0  0  0  0  0  0  0
    4.3154   -8.8871    6.4618 H   0  0  0  0  0  0  0  0  0  0  0  0
    2.6361   -8.5735    5.9889 H   0  0  0  0  0  0  0  0  0  0  0  0
    3.7583   -7.2302    6.2029 H   0  0  0  0  0  0  0  0  0  0  0  0
    4.7088  -10.4025    4.5172 H   0  0  0  0  0  0  0  0  0  0  0  0
    4.1240   -9.9524    2.9169 H   0  0  0  0  0  0  0  0  0  0  0  0
    2.9726  -10.1985    4.1900 H   0  0  0  0  0  0  0  0  0  0  0  0
    2.9185   -5.0971    2.2515 H   0  0  0  0  0  0  0  0  0  0  0  0
    2.7680   -5.9308   -0.6450 H   0  0  0  0  0  0  0  0  0  0  0  0
    1.0833   -6.8134    0.4995 H   0  0  0  0  0  0  0  0  0  0  0  0
    1.5112   -3.7578   -0.8966 H   0  0  0  0  0  0  0  0  0  0  0  0
    1.8543   -3.4041    0.7617 H   0  0  0  0  0  0  0  0  0  0  0  0
    3.3009   -2.1612   -0.5179 H   0  0  0  0  0  0  0  0  0  0  0  0
    4.2845   -4.6145   -1.9688 H   0  0  0  0  0  0  0  0  0  0  0  0
    2.5119   -4.1489   -2.9204 H   0  0  0  0  0  0  0  0  0  0  0  0
    6.0124   -3.5741   -2.7241 H   0  0  0  0  0  0  0  0  0  0  0  0
    5.0729   -2.1888   -3.2347 H   0  0  0  0  0  0  0  0  0  0  0  0
    6.8756   -1.7447   -1.5829 H   0  0  0  0  0  0  0  0  0  0  0  0
    5.3036   -1.0943   -1.1152 H   0  0  0  0  0  0  0  0  0  0  0  0
    6.6678   -3.5910   -0.1940 H   0  0  0  0  0  0  0  0  0  0  0  0
    6.2365   -0.8743    1.1645 H   0  0  0  0  0  0  0  0  0  0  0  0
    7.7477   -1.6145    0.6609 H   0  0  0  0  0  0  0  0  0  0  0  0
    6.8696   -2.2702    1.9970 H   0  0  0  0  0  0  0  0  0  0  0  0
    4.8851   -2.6679    2.7063 H   0  0  0  0  0  0  0  0  0  0  0  0
    3.2476   -2.9386    2.2994 H   0  0  0  0  0  0  0  0  0  0  0  0
    4.0621   -1.5471    1.6416 H   0  0  0  0  0  0  0  0  0  0  0  0
    4.7124   -5.6470   -0.7638 H   0  0  0  0  0  0  0  0  0  0  0  0
    6.4331   -4.2852    2.2008 H   0  0  0  0  0  0  0  0  0  0  0  0
    5.3144   -4.9925    3.1898 H   0  0  0  0  0  0  0  0  0  0  0  0
    7.0903   -6.6536    1.2130 H   0  0  0  0  0  0  0  0  0  0  0  0
  1  2  2  0
  1 34  1  0
  1 35  1  0
  2  3  1  0
  2 36  1  0
  3 33  1  0
  3  4  1  0
  3 37  1  1
  4  5  1  0
  5  6  2  0
  7  5  1  1
  7 13  1  0
  7 33  1  0
  7  8  1  0
  8  9  1  0
  9 10  1  0
 10 11  1  1
 10 12  1  0
 10 17  1  0
 11 38  1  0
 11 39  1  0
 11 40  1  0
 12 14  1  0
 12 13  1  0
 12 41  1  1
 13 14  1  0
 13 42  1  1
 14 15  1  0
 14 16  1  0
 15 43  1  0
 15 44  1  0
 15 45  1  0
 16 46  1  0
 16 47  1  0
 16 48  1  0
 17 30  1  0
 17 18  1  0
 17 49  1  1
 18 19  1  0
 18 20  1  0
 18 50  1  6
 19 51  1  0
 20 21  1  0
 20 52  1  0
 20 53  1  0
 21 28  1  0
 21 22  1  0
 21 54  1  6
 22 23  1  0
 22 24  1  0
 22 55  1  1
 23 56  1  0
 24 25  1  0
 24 57  1  0
 24 58  1  0
 25 26  1  0
 25 59  1  0
 25 60  1  0
 26 27  1  0
 26 28  1  0
 26 61  1  6
 27 62  1  0
 27 63  1  0
 27 64  1  0
 28 29  1  1
 28 30  1  0
 29 65  1  0
 29 66  1  0
 29 67  1  0
 30 31  1  6
 30 32  1  0
 31 68  1  0
 32 33  1  0
 32 69  1  0
 32 70  1  0
 33 71  1  6
M  END
>  <i_m_ct_stereo_status>  (28) 
1

>  <s_m_source_file>  (28) 
/var/tmp/pbs.5076255.sched01/tmp4ovtozgc/0905bh7x9.sdf

>  <i_m_source_file_index>  (28) 
11

>  <i_lp_mmshare_version>  (28) 
48012

>  <i_f3d_flags>  (28) 
0

>  <s_epik_input>  (28) 
Tz1DMU9bQ0BASF0oW0NIXT1bQ0gyXSlbQ0BASF0yW0NIMl1bQ0BAXShbT0hdKShbQ0BASF0zW0NAXShPTzQpKFtDSDNdKVtDQEhdKFtDQEBIXTVbQ0BdMTI0KUM1KFtDSDNdKVtDSDNdKVtDQF02KFtDSDNdKVtDQEhdKFtDSDJdW0NAQEhdM1tPSF0pW0NAQEhdKFtPSF0pW0NIMl1bQ0gyXVtDQEhdNltDSDNd

>  <s_epik_cmdline>  (28) 
J2VwaWtfcHl0aG9uJywgJy1waHQnLCAnMi4wJywgJy1waCcsICc3LjAnLCAnLXRuJywgJzgnLCAnLW1hJywgJzIwMCcsICctaW1hZScsICc8aW5maWxlLm1hZT4nLCAnLW9tYWUnLCAnPG91dGZpbGUubWFlPic=

>  <r_lp_tautomer_probability>  (28) 
1

>  <r_epik_Ionization_Penalty>  (28) 
1.93058e-06

>  <r_epik_Ionization_Penalty_Charging>  (28) 
0

>  <r_epik_Ionization_Penalty_Neutral>  (28) 
1.93058e-06

>  <r_epik_State_Penalty>  (28) 
-0

>  <r_epik_Charging_Adjusted_Penalty>  (28) 
0

>  <i_epik_Tot_Q>  (28) 
0

>  <i_epik_Tot_abs_Q>  (28) 
0

>  <s_epik_Chemistry_Notes>  (28) 
This compound has an ester and may undergo hydrolysis at high or low pH.

>  <s_lp_Force_Field>  (28) 
OPLS3e

>  <r_lp_Energy>  (28) 
77.6699

>  <b_lp_Chiralities_Consistent>  (28) 
1

>  <s_lp_Variant>  (28) 
7:0-1

>  <s_i_glide_gridfile>  (28) 
pfpi4k_grid

>  <i_i_glide_lignum>  (28) 
11

>  <i_i_glide_rotatable_bonds>  (28) 
4

>  <r_i_docking_score>  (28) 
-3.50483

>  <r_i_glide_ligand_efficiency>  (28) 
-0.106207

>  <r_i_glide_ligand_efficiency_sa>  (28) 
-0.340663

>  <r_i_glide_ligand_efficiency_ln>  (28) 
-0.779457

>  <r_i_glide_gscore>  (28) 
-3.50483

>  <r_i_glide_lipo>  (28) 
-0.453137

>  <r_i_glide_hbond>  (28) 
-0.374933

>  <r_i_glide_metal>  (28) 
-0

>  <r_i_glide_rewards>  (28) 
-0.282539

>  <r_i_glide_evdw>  (28) 
-19.3255

>  <r_i_glide_ecoul>  (28) 
-10.1473

>  <r_i_glide_erotb>  (28) 
0.0941461

>  <r_i_glide_esite>  (28) 
0

>  <r_i_glide_emodel>  (28) 
-30.5815

>  <r_i_glide_energy>  (28) 
-29.4728

>  <r_i_glide_einternal>  (28) 
3.96113

>  <r_i_glide_intrahb_reward>  (28) 
-0

>  <i_i_glide_confnum>  (28) 
6

>  <i_i_glide_posenum>  (28) 
15

>  <r_i_glide_eff_state_penalty>  (28) 
0

>  <ligand_id>  (28) 
7

>  <original_smiles>  (28) 
C=CC1OC(=O)C23OOC(C)(C4C2C4(C)C)C2C(O)CC4C(O)CCC(C)C4(C)C2(O)CC13

>  <smiles>  (28) 
[H]OC1([H])C([H])([H])C2([H])C([H])(O[H])C([H])([H])C([H])([H])C([H])(C([H])([H])[H])C2(C([H])([H])[H])C2(O[H])C([H])([H])C3([H])C([H])(C([H])=C([H])[H])OC(=O)C34OOC(C([H])([H])[H])(C12[H])C1([H])C4([H])C1(C([H])([H])[H])C([H])([H])[H]

$$$$
7:0:1
     RDKit          3D

 71 76  0  0  1  0  0  0  0  0999 V2000
    1.3746   -4.0947    3.7040 C   0  0  0  0  0  0  0  0  0  0  0  0
    1.2855   -5.4140    3.9425 C   0  0  0  0  0  0  0  0  0  0  0  0
    2.4085   -6.4544    3.7791 C   0  0  2  0  0  0  0  0  0  0  0  0
    2.5514   -7.2193    4.9613 O   0  0  0  0  0  0  0  0  0  0  0  0
    3.8141   -7.5472    5.2322 C   0  0  0  0  0  0  0  0  0  0  0  0
    4.2467   -8.1546    6.2170 O   0  0  0  0  0  0  0  0  0  0  0  0
    4.7041   -7.0139    4.1436 C   0  0  1  0  0  0  0  0  0  0  0  0
    5.9308   -6.5826    4.7327 O   0  0  0  0  0  0  0  0  0  0  0  0
    6.7474   -5.7805    3.7421 O   0  0  0  0  0  0  0  0  0  0  0  0
    6.9895   -6.4884    2.5281 C   0  0  1  0  0  0  0  0  0  0  0  0
    8.4588   -6.9122    2.5451 C   0  0  0  0  0  0  0  0  0  0  0  0
    6.2132   -7.8055    2.3054 C   0  0  2  0  0  0  0  0  0  0  0  0
    5.0233   -8.0802    3.1321 C   0  0  1  0  0  0  0  0  0  0  0  0
    6.1774   -9.0538    3.1914 C   0  0  0  0  0  0  0  0  0  0  0  0
    5.9792  -10.4130    2.5314 C   0  0  0  0  0  0  0  0  0  0  0  0
    6.9982   -9.2753    4.4426 C   0  0  0  0  0  0  0  0  0  0  0  0
    6.6001   -5.4334    1.4025 C   0  0  2  0  0  0  0  0  0  0  0  0
    7.7229   -4.4213    0.9879 C   0  0  1  0  0  0  0  0  0  0  0  0
    8.9098   -5.0367    0.5289 O   0  0  0  0  0  0  0  0  0  0  0  0
    7.3414   -3.5480   -0.2033 C   0  0  0  0  0  0  0  0  0  0  0  0
    6.0670   -2.7440    0.0140 C   0  0  2  0  0  0  0  0  0  0  0  0
    6.2927   -1.5442    0.9625 C   0  0  1  0  0  0  0  0  0  0  0  0
    7.3657   -0.8177    0.4729 O   0  0  0  0  0  0  0  0  0  0  0  0
    5.0800   -0.6153    1.0724 C   0  0  0  0  0  0  0  0  0  0  0  0
    3.8431   -1.1936    0.3916 C   0  0  0  0  0  0  0  0  0  0  0  0
    3.6428   -2.6880    0.7466 C   0  0  1  0  0  0  0  0  0  0  0  0
    2.3072   -3.0877    0.1268 C   0  0  0  0  0  0  0  0  0  0  0  0
    4.8698   -3.6464    0.4450 C   0  0  1  0  0  0  0  0  0  0  0  0
    4.5160   -4.5251   -0.7749 C   0  0  0  0  0  0  0  0  0  0  0  0
    5.2546   -4.6103    1.6579 C   0  0  2  0  0  0  0  0  0  0  0  0
    5.4374   -3.7509    2.7606 O   0  0  0  0  0  0  0  0  0  0  0  0
    4.0605   -5.5391    2.0354 C   0  0  0  0  0  0  0  0  0  0  0  0
    3.8396   -5.9124    3.5354 C   0  0  1  0  0  0  0  0  0  0  0  0
    2.2815   -3.6372    3.3659 H   0  0  0  0  0  0  0  0  0  0  0  0
    0.5296   -3.4244    3.8367 H   0  0  0  0  0  0  0  0  0  0  0  0
    0.3428   -5.8117    4.2912 H   0  0  0  0  0  0  0  0  0  0  0  0
    2.0969   -7.1555    3.0042 H   0  0  0  0  0  0  0  0  0  0  0  0
    8.7035   -7.3092    1.5644 H   0  0  0  0  0  0  0  0  0  0  0  0
    8.6853   -7.7143    3.2360 H   0  0  0  0  0  0  0  0  0  0  0  0
    9.1374   -6.1019    2.8131 H   0  0  0  0  0  0  0  0  0  0  0  0
    6.1514   -8.0687    1.2622 H   0  0  0  0  0  0  0  0  0  0  0  0
    4.1480   -8.4547    2.6125 H   0  0  0  0  0  0  0  0  0  0  0  0
    5.4897  -11.1043    3.2219 H   0  0  0  0  0  0  0  0  0  0  0  0
    6.9406  -10.8352    2.2360 H   0  0  0  0  0  0  0  0  0  0  0  0
    5.3552  -10.3206    1.6503 H   0  0  0  0  0  0  0  0  0  0  0  0
    6.4364   -9.8700    5.1701 H   0  0  0  0  0  0  0  0  0  0  0  0
    7.2850   -8.3406    4.9213 H   0  0  0  0  0  0  0  0  0  0  0  0
    7.9331   -9.7836    4.1982 H   0  0  0  0  0  0  0  0  0  0  0  0
    6.4669   -6.0328    0.5109 H   0  0  0  0  0  0  0  0  0  0  0  0
    7.9696   -3.7682    1.8123 H   0  0  0  0  0  0  0  0  0  0  0  0
    9.1806   -5.6228    1.2336 H   0  0  0  0  0  0  0  0  0  0  0  0
    8.1784   -2.9087   -0.5023 H   0  0  0  0  0  0  0  0  0  0  0  0
    7.1858   -4.1869   -1.0578 H   0  0  0  0  0  0  0  0  0  0  0  0
    5.8457   -2.3265   -0.9680 H   0  0  0  0  0  0  0  0  0  0  0  0
    6.5994   -1.8571    1.9528 H   0  0  0  0  0  0  0  0  0  0  0  0
    7.5572   -0.0820    1.0760 H   0  0  0  0  0  0  0  0  0  0  0  0
    4.8767   -0.4396    2.1290 H   0  0  0  0  0  0  0  0  0  0  0  0
    5.2738    0.3668    0.6368 H   0  0  0  0  0  0  0  0  0  0  0  0
    2.9767   -0.6122    0.7024 H   0  0  0  0  0  0  0  0  0  0  0  0
    3.9124   -1.0685   -0.6902 H   0  0  0  0  0  0  0  0  0  0  0  0
    3.4645   -2.6540    1.8174 H   0  0  0  0  0  0  0  0  0  0  0  0
    2.2695   -2.9389   -0.9538 H   0  0  0  0  0  0  0  0  0  0  0  0
    1.5711   -2.4417    0.5777 H   0  0  0  0  0  0  0  0  0  0  0  0
    1.9743   -4.1105    0.3305 H   0  0  0  0  0  0  0  0  0  0  0  0
    3.6679   -5.1765   -0.5739 H   0  0  0  0  0  0  0  0  0  0  0  0
    5.3057   -5.1924   -1.0956 H   0  0  0  0  0  0  0  0  0  0  0  0
    4.2465   -3.9220   -1.6412 H   0  0  0  0  0  0  0  0  0  0  0  0
    4.6358   -3.2544    2.9237 H   0  0  0  0  0  0  0  0  0  0  0  0
    3.1549   -5.0404    1.7404 H   0  0  0  0  0  0  0  0  0  0  0  0
    4.0455   -6.4159    1.3867 H   0  0  0  0  0  0  0  0  0  0  0  0
    3.9770   -5.0603    4.2003 H   0  0  0  0  0  0  0  0  0  0  0  0
  1  2  2  0
  1 34  1  0
  1 35  1  0
  2  3  1  0
  2 36  1  0
  3 33  1  0
  3  4  1  0
  3 37  1  6
  4  5  1  0
  5  6  2  0
  7  5  1  1
  7 13  1  0
  7 33  1  0
  7  8  1  0
  8  9  1  0
  9 10  1  0
 10 11  1  6
 10 12  1  0
 10 17  1  0
 11 38  1  0
 11 39  1  0
 11 40  1  0
 12 14  1  0
 12 13  1  0
 12 41  1  6
 13 14  1  0
 13 42  1  6
 14 15  1  0
 14 16  1  0
 15 43  1  0
 15 44  1  0
 15 45  1  0
 16 46  1  0
 16 47  1  0
 16 48  1  0
 17 30  1  0
 17 18  1  0
 17 49  1  6
 18 19  1  0
 18 20  1  0
 18 50  1  1
 19 51  1  0
 20 21  1  0
 20 52  1  0
 20 53  1  0
 21 28  1  0
 21 22  1  0
 21 54  1  6
 22 23  1  0
 22 24  1  0
 22 55  1  1
 23 56  1  0
 24 25  1  0
 24 57  1  0
 24 58  1  0
 25 26  1  0
 25 59  1  0
 25 60  1  0
 26 27  1  0
 26 28  1  0
 26 61  1  1
 27 62  1  0
 27 63  1  0
 27 64  1  0
 28 29  1  6
 28 30  1  0
 29 65  1  0
 29 66  1  0
 29 67  1  0
 30 31  1  1
 30 32  1  0
 31 68  1  0
 32 33  1  0
 32 69  1  0
 32 70  1  0
 33 71  1  1
M  END
>  <i_m_ct_stereo_status>  (29) 
1

>  <s_m_source_file>  (29) 
/var/tmp/pbs.5076255.sched01/tmp4ovtozgc/0905bh7x9.sdf

>  <i_m_source_file_index>  (29) 
11

>  <i_lp_mmshare_version>  (29) 
48012

>  <i_f3d_flags>  (29) 
0

>  <s_epik_input>  (29) 
Tz1DMU9bQ0BASF0oW0NIXT1bQ0gyXSlbQ0BASF0yW0NIMl1bQ0BAXShbT0hdKShbQ0BASF0zW0NAXShPTzQpKFtDSDNdKVtDQEhdKFtDQEBIXTVbQ0BdMTI0KUM1KFtDSDNdKVtDSDNdKVtDQF02KFtDSDNdKVtDQEhdKFtDSDJdW0NAQEhdM1tPSF0pW0NAQEhdKFtPSF0pW0NIMl1bQ0gyXVtDQEhdNltDSDNd

>  <s_epik_cmdline>  (29) 
J2VwaWtfcHl0aG9uJywgJy1waHQnLCAnMi4wJywgJy1waCcsICc3LjAnLCAnLXRuJywgJzgnLCAnLW1hJywgJzIwMCcsICctaW1hZScsICc8aW5maWxlLm1hZT4nLCAnLW9tYWUnLCAnPG91dGZpbGUubWFlPic=

>  <r_lp_tautomer_probability>  (29) 
1

>  <r_epik_Ionization_Penalty>  (29) 
1.93058e-06

>  <r_epik_Ionization_Penalty_Charging>  (29) 
0

>  <r_epik_Ionization_Penalty_Neutral>  (29) 
1.93058e-06

>  <r_epik_State_Penalty>  (29) 
-0

>  <r_epik_Charging_Adjusted_Penalty>  (29) 
0

>  <i_epik_Tot_Q>  (29) 
0

>  <i_epik_Tot_abs_Q>  (29) 
0

>  <s_epik_Chemistry_Notes>  (29) 
This compound has an ester and may undergo hydrolysis at high or low pH.

>  <s_lp_Force_Field>  (29) 
OPLS3e

>  <r_lp_Energy>  (29) 
77.6699

>  <b_lp_Chiralities_Consistent>  (29) 
1

>  <s_lp_Variant>  (29) 
7:0-1

>  <s_i_glide_gridfile>  (29) 
pfpi4k_grid

>  <i_i_glide_lignum>  (29) 
11

>  <i_i_glide_rotatable_bonds>  (29) 
4

>  <r_i_docking_score>  (29) 
-3.43812

>  <r_i_glide_ligand_efficiency>  (29) 
-0.104185

>  <r_i_glide_ligand_efficiency_sa>  (29) 
-0.334178

>  <r_i_glide_ligand_efficiency_ln>  (29) 
-0.76462

>  <r_i_glide_gscore>  (29) 
-3.43812

>  <r_i_glide_lipo>  (29) 
-0.835454

>  <r_i_glide_hbond>  (29) 
-0.34577

>  <r_i_glide_metal>  (29) 
-0

>  <r_i_glide_rewards>  (29) 
-0.255166

>  <r_i_glide_evdw>  (29) 
-15.2886

>  <r_i_glide_ecoul>  (29) 
-8.87624

>  <r_i_glide_erotb>  (29) 
0.0941461

>  <r_i_glide_esite>  (29) 
-7.69128e-06

>  <r_i_glide_emodel>  (29) 
-26.4107

>  <r_i_glide_energy>  (29) 
-24.1649

>  <r_i_glide_einternal>  (29) 
3.15083

>  <r_i_glide_intrahb_reward>  (29) 
-0

>  <i_i_glide_confnum>  (29) 
1

>  <i_i_glide_posenum>  (29) 
24

>  <r_i_glide_eff_state_penalty>  (29) 
0

>  <ligand_id>  (29) 
7

>  <original_smiles>  (29) 
C=CC1OC(=O)C23OOC(C)(C4C2C4(C)C)C2C(O)CC4C(O)CCC(C)C4(C)C2(O)CC13

>  <smiles>  (29) 
[H]OC1([H])C([H])([H])C2([H])C([H])(O[H])C([H])([H])C([H])([H])C([H])(C([H])([H])[H])C2(C([H])([H])[H])C2(O[H])C([H])([H])C3([H])C([H])(C([H])=C([H])[H])OC(=O)C34OOC(C([H])([H])[H])(C12[H])C1([H])C4([H])C1(C([H])([H])[H])C([H])([H])[H]

$$$$
7:0:2
     RDKit          3D

 71 76  0  0  1  0  0  0  0  0999 V2000
   -0.1434   -6.4952    1.2669 C   0  0  0  0  0  0  0  0  0  0  0  0
    0.8824   -6.0725    1.9931 C   0  0  0  0  0  0  0  0  0  0  0  0
    2.1339   -6.8936    2.0927 C   0  0  2  0  0  0  0  0  0  0  0  0
    2.0715   -7.7003    3.2461 O   0  0  0  0  0  0  0  0  0  0  0  0
    3.2455   -7.8511    3.8307 C   0  0  0  0  0  0  0  0  0  0  0  0
    3.4669   -8.4920    4.8549 O   0  0  0  0  0  0  0  0  0  0  0  0
    4.2975   -7.1194    3.0268 C   0  0  1  0  0  0  0  0  0  0  0  0
    5.2671   -6.6066    3.9223 O   0  0  0  0  0  0  0  0  0  0  0  0
    6.1483   -5.6338    3.2229 O   0  0  0  0  0  0  0  0  0  0  0  0
    6.8203   -6.2107    2.0992 C   0  0  1  0  0  0  0  0  0  0  0  0
    8.3048   -6.4670    2.4655 C   0  0  0  0  0  0  0  0  0  0  0  0
    6.3056   -7.5951    1.6468 C   0  0  2  0  0  0  0  0  0  0  0  0
    4.9726   -8.0860    2.1008 C   0  0  1  0  0  0  0  0  0  0  0  0
    6.1981   -8.9167    2.4124 C   0  0  0  0  0  0  0  0  0  0  0  0
    6.3535  -10.2283    1.6540 C   0  0  0  0  0  0  0  0  0  0  0  0
    6.7049   -9.1257    3.8238 C   0  0  0  0  0  0  0  0  0  0  0  0
    6.5753   -5.1284    0.9422 C   0  0  2  0  0  0  0  0  0  0  0  0
    7.6098   -3.9580    0.8669 C   0  0  1  0  0  0  0  0  0  0  0  0
    8.9770   -4.3171    0.8112 O   0  0  0  0  0  0  0  0  0  0  0  0
    7.4318   -3.0961   -0.3692 C   0  0  0  0  0  0  0  0  0  0  0  0
    6.0384   -2.4408   -0.4091 C   0  0  2  0  0  0  0  0  0  0  0  0
    5.8369   -1.3502    0.6437 C   0  0  1  0  0  0  0  0  0  0  0  0
    6.8935   -0.5068    0.3938 O   0  0  0  0  0  0  0  0  0  0  0  0
    4.5253   -0.5538    0.4810 C   0  0  0  0  0  0  0  0  0  0  0  0
    3.6067   -1.2035   -0.5486 C   0  0  0  0  0  0  0  0  0  0  0  0
    3.4796   -2.7259   -0.3398 C   0  0  1  0  0  0  0  0  0  0  0  0
    2.4370   -3.2640   -1.3675 C   0  0  0  0  0  0  0  0  0  0  0  0
    4.8914   -3.4589   -0.3381 C   0  0  1  0  0  0  0  0  0  0  0  0
    4.9344   -4.2100   -1.6530 C   0  0  0  0  0  0  0  0  0  0  0  0
    5.1020   -4.4935    0.8678 C   0  0  2  0  0  0  0  0  0  0  0  0
    4.8919   -3.7276    2.0401 O   0  0  0  0  0  0  0  0  0  0  0  0
    3.9697   -5.5742    0.8883 C   0  0  0  0  0  0  0  0  0  0  0  0
    3.4409   -6.0994    2.2607 C   0  0  1  0  0  0  0  0  0  0  0  0
   -0.1287   -7.4106    0.6787 H   0  0  0  0  0  0  0  0  0  0  0  0
   -1.0686   -5.9366    1.1980 H   0  0  0  0  0  0  0  0  0  0  0  0
    0.8809   -5.1394    2.5656 H   0  0  0  0  0  0  0  0  0  0  0  0
    2.1373   -7.5559    1.2240 H   0  0  0  0  0  0  0  0  0  0  0  0
    8.8890   -6.7373    1.5796 H   0  0  0  0  0  0  0  0  0  0  0  0
    8.4407   -7.2976    3.1562 H   0  0  0  0  0  0  0  0  0  0  0  0
    8.7598   -5.6077    2.9472 H   0  0  0  0  0  0  0  0  0  0  0  0
    6.5135   -7.7568    0.6114 H   0  0  0  0  0  0  0  0  0  0  0  0
    4.3239   -8.5012    1.3314 H   0  0  0  0  0  0  0  0  0  0  0  0
    5.7977  -11.0268    2.1444 H   0  0  0  0  0  0  0  0  0  0  0  0
    7.3933  -10.5298    1.6074 H   0  0  0  0  0  0  0  0  0  0  0  0
    5.9759  -10.1443    0.6373 H   0  0  0  0  0  0  0  0  0  0  0  0
    6.0696   -9.8418    4.3450 H   0  0  0  0  0  0  0  0  0  0  0  0
    6.7295   -8.2082    4.3902 H   0  0  0  0  0  0  0  0  0  0  0  0
    7.7294   -9.4926    3.7954 H   0  0  0  0  0  0  0  0  0  0  0  0
    6.7420   -5.6877    0.0298 H   0  0  0  0  0  0  0  0  0  0  0  0
    7.4470   -3.3080    1.7190 H   0  0  0  0  0  0  0  0  0  0  0  0
    9.2135   -4.6237    1.6765 H   0  0  0  0  0  0  0  0  0  0  0  0
    8.2199   -2.3384   -0.3998 H   0  0  0  0  0  0  0  0  0  0  0  0
    7.6223   -3.6924   -1.2610 H   0  0  0  0  0  0  0  0  0  0  0  0
    6.0166   -1.9541   -1.3868 H   0  0  0  0  0  0  0  0  0  0  0  0
    5.9430   -1.6730    1.6808 H   0  0  0  0  0  0  0  0  0  0  0  0
    6.9822    0.0871    1.1304 H   0  0  0  0  0  0  0  0  0  0  0  0
    4.0188   -0.4792    1.4395 H   0  0  0  0  0  0  0  0  0  0  0  0
    4.6862    0.4777    0.1577 H   0  0  0  0  0  0  0  0  0  0  0  0
    2.6393   -0.7216   -0.4352 H   0  0  0  0  0  0  0  0  0  0  0  0
    3.9487   -0.9802   -1.5720 H   0  0  0  0  0  0  0  0  0  0  0  0
    3.0266   -2.8158    0.6447 H   0  0  0  0  0  0  0  0  0  0  0  0
    2.7038   -3.0355   -2.4028 H   0  0  0  0  0  0  0  0  0  0  0  0
    1.4776   -2.8062   -1.2186 H   0  0  0  0  0  0  0  0  0  0  0  0
    2.2202   -4.3187   -1.2744 H   0  0  0  0  0  0  0  0  0  0  0  0
    4.2267   -5.0101   -1.5771 H   0  0  0  0  0  0  0  0  0  0  0  0
    5.8187   -4.8070   -1.7462 H   0  0  0  0  0  0  0  0  0  0  0  0
    4.8308   -3.5831   -2.5603 H   0  0  0  0  0  0  0  0  0  0  0  0
    4.0481   -3.3089    1.9978 H   0  0  0  0  0  0  0  0  0  0  0  0
    3.0867   -5.1480    0.4326 H   0  0  0  0  0  0  0  0  0  0  0  0
    4.2260   -6.3869    0.2088 H   0  0  0  0  0  0  0  0  0  0  0  0
    3.2311   -5.2637    2.9324 H   0  0  0  0  0  0  0  0  0  0  0  0
  1  2  2  0
  1 34  1  0
  1 35  1  0
  2  3  1  0
  2 36  1  0
  3 33  1  0
  3  4  1  0
  3 37  1  6
  4  5  1  0
  5  6  2  0
  7  5  1  1
  7 13  1  0
  7 33  1  0
  7  8  1  0
  8  9  1  0
  9 10  1  0
 10 11  1  1
 10 12  1  0
 10 17  1  0
 11 38  1  0
 11 39  1  0
 11 40  1  0
 12 14  1  0
 12 13  1  0
 12 41  1  6
 13 14  1  0
 13 42  1  6
 14 15  1  0
 14 16  1  0
 15 43  1  0
 15 44  1  0
 15 45  1  0
 16 46  1  0
 16 47  1  0
 16 48  1  0
 17 30  1  0
 17 18  1  0
 17 49  1  6
 18 19  1  0
 18 20  1  0
 18 50  1  1
 19 51  1  0
 20 21  1  0
 20 52  1  0
 20 53  1  0
 21 28  1  0
 21 22  1  0
 21 54  1  6
 22 23  1  0
 22 24  1  0
 22 55  1  1
 23 56  1  0
 24 25  1  0
 24 57  1  0
 24 58  1  0
 25 26  1  0
 25 59  1  0
 25 60  1  0
 26 27  1  0
 26 28  1  0
 26 61  1  1
 27 62  1  0
 27 63  1  0
 27 64  1  0
 28 29  1  6
 28 30  1  0
 29 65  1  0
 29 66  1  0
 29 67  1  0
 30 31  1  1
 30 32  1  0
 31 68  1  0
 32 33  1  0
 32 69  1  0
 32 70  1  0
 33 71  1  1
M  END
>  <i_m_ct_stereo_status>  (30) 
1

>  <s_m_source_file>  (30) 
/var/tmp/pbs.5076255.sched01/tmp4ovtozgc/0905bh7x9.sdf

>  <i_m_source_file_index>  (30) 
11

>  <i_lp_mmshare_version>  (30) 
48012

>  <i_f3d_flags>  (30) 
0

>  <s_epik_input>  (30) 
Tz1DMU9bQ0BASF0oW0NIXT1bQ0gyXSlbQ0BASF0yW0NIMl1bQ0BAXShbT0hdKShbQ0BASF0zW0NAXShPTzQpKFtDSDNdKVtDQEhdKFtDQEBIXTVbQ0BdMTI0KUM1KFtDSDNdKVtDSDNdKVtDQF02KFtDSDNdKVtDQEhdKFtDSDJdW0NAQEhdM1tPSF0pW0NAQEhdKFtPSF0pW0NIMl1bQ0gyXVtDQEhdNltDSDNd

>  <s_epik_cmdline>  (30) 
J2VwaWtfcHl0aG9uJywgJy1waHQnLCAnMi4wJywgJy1waCcsICc3LjAnLCAnLXRuJywgJzgnLCAnLW1hJywgJzIwMCcsICctaW1hZScsICc8aW5maWxlLm1hZT4nLCAnLW9tYWUnLCAnPG91dGZpbGUubWFlPic=

>  <r_lp_tautomer_probability>  (30) 
1

>  <r_epik_Ionization_Penalty>  (30) 
1.93058e-06

>  <r_epik_Ionization_Penalty_Charging>  (30) 
0

>  <r_epik_Ionization_Penalty_Neutral>  (30) 
1.93058e-06

>  <r_epik_State_Penalty>  (30) 
-0

>  <r_epik_Charging_Adjusted_Penalty>  (30) 
0

>  <i_epik_Tot_Q>  (30) 
0

>  <i_epik_Tot_abs_Q>  (30) 
0

>  <s_epik_Chemistry_Notes>  (30) 
This compound has an ester and may undergo hydrolysis at high or low pH.

>  <s_lp_Force_Field>  (30) 
OPLS3e

>  <r_lp_Energy>  (30) 
77.6699

>  <b_lp_Chiralities_Consistent>  (30) 
1

>  <s_lp_Variant>  (30) 
7:0-1

>  <s_i_glide_gridfile>  (30) 
pfpi4k_grid

>  <i_i_glide_lignum>  (30) 
11

>  <i_i_glide_rotatable_bonds>  (30) 
4

>  <r_i_docking_score>  (30) 
-2.87067

>  <r_i_glide_ligand_efficiency>  (30) 
-0.08699

>  <r_i_glide_ligand_efficiency_sa>  (30) 
-0.279023

>  <r_i_glide_ligand_efficiency_ln>  (30) 
-0.638422

>  <r_i_glide_gscore>  (30) 
-2.87067

>  <r_i_glide_lipo>  (30) 
-0.948747

>  <r_i_glide_hbond>  (30) 
-0.296022

>  <r_i_glide_metal>  (30) 
-0

>  <r_i_glide_rewards>  (30) 
-0.255166

>  <r_i_glide_evdw>  (30) 
-6.1263

>  <r_i_glide_ecoul>  (30) 
-7.72268

>  <r_i_glide_erotb>  (30) 
0.0941461

>  <r_i_glide_esite>  (30) 
-0.000164472

>  <r_i_glide_emodel>  (30) 
-15.1361

>  <r_i_glide_energy>  (30) 
-13.849

>  <r_i_glide_einternal>  (30) 
1.94842

>  <r_i_glide_intrahb_reward>  (30) 
-0

>  <i_i_glide_confnum>  (30) 
1

>  <i_i_glide_posenum>  (30) 
35

>  <r_i_glide_eff_state_penalty>  (30) 
0

>  <ligand_id>  (30) 
7

>  <original_smiles>  (30) 
C=CC1OC(=O)C23OOC(C)(C4C2C4(C)C)C2C(O)CC4C(O)CCC(C)C4(C)C2(O)CC13

>  <smiles>  (30) 
[H]OC1([H])C([H])([H])C2([H])C([H])(O[H])C([H])([H])C([H])([H])C([H])(C([H])([H])[H])C2(C([H])([H])[H])C2(O[H])C([H])([H])C3([H])C([H])(C([H])=C([H])[H])OC(=O)C34OOC(C([H])([H])[H])(C12[H])C1([H])C4([H])C1(C([H])([H])[H])C([H])([H])[H]

$$$$
8:0:0
     RDKit          3D

 28 30  0  0  1  0  0  0  0  0999 V2000
    4.2164   -1.3761   -4.3963 O   0  0  0  0  0  0  0  0  0  0  0  0
    4.2071   -2.4630   -3.7744 C   0  0  0  0  0  0  0  0  0  0  0  0
    4.0479   -3.5749   -4.3203 O   0  0  0  0  0  0  0  0  0  0  0  0
    4.4566   -2.4640   -2.2488 C   0  0  1  0  0  0  0  0  0  0  0  0
    4.8495   -1.0523   -1.7439 C   0  0  0  0  0  0  0  0  0  0  0  0
    5.0926   -1.0779   -0.2234 C   0  0  2  0  0  0  0  0  0  0  0  0
    6.2327   -2.0609    0.1095 C   0  0  0  0  0  0  0  0  0  0  0  0
    5.8461   -3.4734   -0.3843 C   0  0  1  0  0  0  0  0  0  0  0  0
    4.5550   -3.9332    0.3275 C   0  0  0  0  0  0  0  0  0  0  0  0
    3.4157   -2.9417    0.0088 C   0  0  1  0  0  0  0  0  0  0  0  0
    3.7969   -1.5250    0.4850 C   0  0  0  0  0  0  0  0  0  0  0  0
    3.1699   -2.9183   -1.5144 C   0  0  0  0  0  0  0  0  0  0  0  0
    5.6059   -3.4480   -1.9067 C   0  0  0  0  0  0  0  0  0  0  0  0
    5.7497   -0.7056   -2.2507 H   0  0  0  0  0  0  0  0  0  0  0  0
    4.0653   -0.3262   -1.9727 H   0  0  0  0  0  0  0  0  0  0  0  0
    5.3605   -0.0791    0.1190 H   0  0  0  0  0  0  0  0  0  0  0  0
    7.1585   -1.7466   -0.3686 H   0  0  0  0  0  0  0  0  0  0  0  0
    6.4254   -2.0725    1.1843 H   0  0  0  0  0  0  0  0  0  0  0  0
    6.6516   -4.1713   -0.1532 H   0  0  0  0  0  0  0  0  0  0  0  0
    4.2818   -4.9340   -0.0107 H   0  0  0  0  0  0  0  0  0  0  0  0
    4.7189   -4.0011    1.4058 H   0  0  0  0  0  0  0  0  0  0  0  0
    2.5065   -3.2591    0.5182 H   0  0  0  0  0  0  0  0  0  0  0  0
    3.9172   -1.4960    1.5692 H   0  0  0  0  0  0  0  0  0  0  0  0
    2.9911   -0.8252    0.2405 H   0  0  0  0  0  0  0  0  0  0  0  0
    2.3389   -2.2548   -1.7549 H   0  0  0  0  0  0  0  0  0  0  0  0
    2.8612   -3.9049   -1.8537 H   0  0  0  0  0  0  0  0  0  0  0  0
    5.3625   -4.4551   -2.2526 H   0  0  0  0  0  0  0  0  0  0  0  0
    6.5210   -3.1613   -2.4299 H   0  0  0  0  0  0  0  0  0  0  0  0
  1  2  2  0
  2  3  1  0
  4  2  1  6
  4 12  1  0
  4 13  1  0
  4  5  1  0
  5  6  1  0
  5 14  1  0
  5 15  1  0
  6 11  1  0
  6  7  1  0
  6 16  1  1
  7  8  1  0
  7 17  1  0
  7 18  1  0
  8  9  1  0
  8 13  1  0
  8 19  1  6
  9 10  1  0
  9 20  1  0
  9 21  1  0
 10 11  1  0
 10 12  1  0
 10 22  1  1
 11 23  1  0
 11 24  1  0
 12 25  1  0
 12 26  1  0
 13 27  1  0
 13 28  1  0
M  CHG  1   3  -1
M  END
>  <i_m_ct_stereo_status>  (31) 
1

>  <s_m_source_file>  (31) 
/var/tmp/pbs.5076255.sched01/tmp4ovtozgc/0905bh7x9.sdf

>  <i_m_source_file_index>  (31) 
12

>  <i_lp_mmshare_version>  (31) 
48012

>  <i_f3d_flags>  (31) 
0

>  <s_epik_input>  (31) 
Tz1DKFtPSF0pQzEyW0NIMl1bQ0BIXTNbQ0gyXVtDQEBIXShbQ0gyXTIpW0NIMl1bQ0BIXShbQ0gyXTMpW0NIMl0x

>  <s_epik_cmdline>  (31) 
J2VwaWtfcHl0aG9uJywgJy1waHQnLCAnMi4wJywgJy1waCcsICc3LjAnLCAnLXRuJywgJzgnLCAnLW1hJywgJzIwMCcsICctaW1hZScsICc8aW5maWxlLm1hZT4nLCAnLW9tYWUnLCAnPG91dGZpbGUubWFlPic=

>  <r_epik_Ionization_Penalty>  (31) 
0.00908834

>  <r_epik_Ionization_Penalty_Charging>  (31) 
0.00908834

>  <r_epik_Ionization_Penalty_Neutral>  (31) 
0

>  <r_epik_State_Penalty>  (31) 
0.00688369

>  <r_epik_Charging_Adjusted_Penalty>  (31) 
0.015972

>  <i_epik_Tot_Q>  (31) 
-1

>  <i_epik_Tot_abs_Q>  (31) 
1

>  <s_lp_Force_Field>  (31) 
OPLS3e

>  <r_lp_Energy>  (31) 
11.5398

>  <b_lp_Chiralities_Consistent>  (31) 
1

>  <s_lp_Variant>  (31) 
8:0-1

>  <s_i_glide_gridfile>  (31) 
pfpi4k_grid

>  <i_i_glide_lignum>  (31) 
12

>  <i_i_glide_rotatable_bonds>  (31) 
1

>  <r_i_docking_score>  (31) 
-4.10531

>  <r_i_glide_ligand_efficiency>  (31) 
-0.315793

>  <r_i_glide_ligand_efficiency_sa>  (31) 
-0.742535

>  <r_i_glide_ligand_efficiency_ln>  (31) 
-1.15158

>  <r_i_glide_gscore>  (31) 
-4.10531

>  <r_i_glide_lipo>  (31) 
-0.318888

>  <r_i_glide_hbond>  (31) 
-0.216446

>  <r_i_glide_metal>  (31) 
-0

>  <r_i_glide_rewards>  (31) 
-2.32988

>  <r_i_glide_evdw>  (31) 
-18.2154

>  <r_i_glide_ecoul>  (31) 
-2.19554

>  <r_i_glide_erotb>  (31) 
0

>  <r_i_glide_esite>  (31) 
0

>  <r_i_glide_emodel>  (31) 
-27.2155

>  <r_i_glide_energy>  (31) 
-20.4109

>  <r_i_glide_einternal>  (31) 
0.0834632

>  <r_i_glide_intrahb_reward>  (31) 
-0

>  <i_i_glide_confnum>  (31) 
2

>  <i_i_glide_posenum>  (31) 
1

>  <r_i_glide_eff_state_penalty>  (31) 
0

>  <ligand_id>  (31) 
8

>  <original_smiles>  (31) 
O=C(O)C12CC3CC(CC(C3)C1)C2

>  <smiles>  (31) 
[H]C1([H])C2([H])C([H])([H])C3([H])C([H])([H])C1([H])C([H])([H])C(C(=O)[O-])(C2([H])[H])C3([H])[H]

$$$$
8:0:1
     RDKit          3D

 28 30  0  0  1  0  0  0  0  0999 V2000
    1.3581   -5.8172    0.1235 O   0  0  0  0  0  0  0  0  0  0  0  0
    2.2169   -5.4527    0.9619 C   0  0  0  0  0  0  0  0  0  0  0  0
    2.2607   -5.8881    2.1319 O   0  0  0  0  0  0  0  0  0  0  0  0
    3.2426   -4.3584    0.5649 C   0  0  1  0  0  0  0  0  0  0  0  0
    2.7810   -3.5598   -0.6881 C   0  0  0  0  0  0  0  0  0  0  0  0
    3.8422   -2.5001   -1.0634 C   0  0  2  0  0  0  0  0  0  0  0  0
    5.1832   -3.1979   -1.3770 C   0  0  0  0  0  0  0  0  0  0  0  0
    5.6528   -3.9752   -0.1285 C   0  0  1  0  0  0  0  0  0  0  0  0
    5.8476   -2.9989    1.0467 C   0  0  0  0  0  0  0  0  0  0  0  0
    4.5083   -2.2953    1.3495 C   0  0  1  0  0  0  0  0  0  0  0  0
    4.0217   -1.5169    0.1090 C   0  0  0  0  0  0  0  0  0  0  0  0
    3.4540   -3.3550    1.7381 C   0  0  0  0  0  0  0  0  0  0  0  0
    4.5979   -5.0431    0.2457 C   0  0  0  0  0  0  0  0  0  0  0  0
    2.6214   -4.2369   -1.5285 H   0  0  0  0  0  0  0  0  0  0  0  0
    1.8289   -3.0609   -0.5006 H   0  0  0  0  0  0  0  0  0  0  0  0
    3.5036   -1.9484   -1.9411 H   0  0  0  0  0  0  0  0  0  0  0  0
    5.0630   -3.8808   -2.2190 H   0  0  0  0  0  0  0  0  0  0  0  0
    5.9347   -2.4660   -1.6734 H   0  0  0  0  0  0  0  0  0  0  0  0
    6.6024   -4.4681   -0.3335 H   0  0  0  0  0  0  0  0  0  0  0  0
    6.1903   -3.5430    1.9298 H   0  0  0  0  0  0  0  0  0  0  0  0
    6.6209   -2.2685    0.8093 H   0  0  0  0  0  0  0  0  0  0  0  0
    4.6466   -1.6018    2.1787 H   0  0  0  0  0  0  0  0  0  0  0  0
    4.7274   -0.7283   -0.1486 H   0  0  0  0  0  0  0  0  0  0  0  0
    3.0747   -1.0242    0.3255 H   0  0  0  0  0  0  0  0  0  0  0  0
    2.5147   -2.8635    1.9946 H   0  0  0  0  0  0  0  0  0  0  0  0
    3.7857   -3.8722    2.6408 H   0  0  0  0  0  0  0  0  0  0  0  0
    4.9427   -5.6193    1.1067 H   0  0  0  0  0  0  0  0  0  0  0  0
    4.4821   -5.7569   -0.5742 H   0  0  0  0  0  0  0  0  0  0  0  0
  1  2  2  0
  2  3  1  0
  4  2  1  1
  4 12  1  0
  4 13  1  0
  4  5  1  0
  5  6  1  0
  5 14  1  0
  5 15  1  0
  6 11  1  0
  6  7  1  0
  6 16  1  6
  7  8  1  0
  7 17  1  0
  7 18  1  0
  8  9  1  0
  8 13  1  0
  8 19  1  6
  9 10  1  0
  9 20  1  0
  9 21  1  0
 10 11  1  0
 10 12  1  0
 10 22  1  1
 11 23  1  0
 11 24  1  0
 12 25  1  0
 12 26  1  0
 13 27  1  0
 13 28  1  0
M  CHG  1   3  -1
M  END
>  <i_m_ct_stereo_status>  (32) 
1

>  <s_m_source_file>  (32) 
/var/tmp/pbs.5076255.sched01/tmp4ovtozgc/0905bh7x9.sdf

>  <i_m_source_file_index>  (32) 
12

>  <i_lp_mmshare_version>  (32) 
48012

>  <i_f3d_flags>  (32) 
0

>  <s_epik_input>  (32) 
Tz1DKFtPSF0pQzEyW0NIMl1bQ0BIXTNbQ0gyXVtDQEBIXShbQ0gyXTIpW0NIMl1bQ0BIXShbQ0gyXTMpW0NIMl0x

>  <s_epik_cmdline>  (32) 
J2VwaWtfcHl0aG9uJywgJy1waHQnLCAnMi4wJywgJy1waCcsICc3LjAnLCAnLXRuJywgJzgnLCAnLW1hJywgJzIwMCcsICctaW1hZScsICc8aW5maWxlLm1hZT4nLCAnLW9tYWUnLCAnPG91dGZpbGUubWFlPic=

>  <r_epik_Ionization_Penalty>  (32) 
0.00908834

>  <r_epik_Ionization_Penalty_Charging>  (32) 
0.00908834

>  <r_epik_Ionization_Penalty_Neutral>  (32) 
0

>  <r_epik_State_Penalty>  (32) 
0.00688369

>  <r_epik_Charging_Adjusted_Penalty>  (32) 
0.015972

>  <i_epik_Tot_Q>  (32) 
-1

>  <i_epik_Tot_abs_Q>  (32) 
1

>  <s_lp_Force_Field>  (32) 
OPLS3e

>  <r_lp_Energy>  (32) 
11.5398

>  <b_lp_Chiralities_Consistent>  (32) 
1

>  <s_lp_Variant>  (32) 
8:0-1

>  <s_i_glide_gridfile>  (32) 
pfpi4k_grid

>  <i_i_glide_lignum>  (32) 
12

>  <i_i_glide_rotatable_bonds>  (32) 
1

>  <r_i_docking_score>  (32) 
-3.66956

>  <r_i_glide_ligand_efficiency>  (32) 
-0.282274

>  <r_i_glide_ligand_efficiency_sa>  (32) 
-0.66372

>  <r_i_glide_ligand_efficiency_ln>  (32) 
-1.02934

>  <r_i_glide_gscore>  (32) 
-3.66956

>  <r_i_glide_lipo>  (32) 
-0.256137

>  <r_i_glide_hbond>  (32) 
-0.223665

>  <r_i_glide_metal>  (32) 
-0

>  <r_i_glide_rewards>  (32) 
-2.18703

>  <r_i_glide_evdw>  (32) 
-13.9337

>  <r_i_glide_ecoul>  (32) 
-1.73299

>  <r_i_glide_erotb>  (32) 
0

>  <r_i_glide_esite>  (32) 
-0.0460976

>  <r_i_glide_emodel>  (32) 
-21.7796

>  <r_i_glide_energy>  (32) 
-15.6667

>  <r_i_glide_einternal>  (32) 
0.0195285

>  <r_i_glide_intrahb_reward>  (32) 
-0

>  <i_i_glide_confnum>  (32) 
2

>  <i_i_glide_posenum>  (32) 
7

>  <r_i_glide_eff_state_penalty>  (32) 
0

>  <ligand_id>  (32) 
8

>  <original_smiles>  (32) 
O=C(O)C12CC3CC(CC(C3)C1)C2

>  <smiles>  (32) 
[H]C1([H])C2([H])C([H])([H])C3([H])C([H])([H])C1([H])C([H])([H])C(C(=O)[O-])(C2([H])[H])C3([H])[H]

$$$$
8:0:2
     RDKit          3D

 28 30  0  0  1  0  0  0  0  0999 V2000
    1.8180   -5.1193    0.1568 O   0  0  0  0  0  0  0  0  0  0  0  0
    2.6234   -4.2567    0.5813 C   0  0  0  0  0  0  0  0  0  0  0  0
    2.7921   -4.0042    1.7922 O   0  0  0  0  0  0  0  0  0  0  0  0
    3.4356   -3.4372   -0.4583 C   0  0  1  0  0  0  0  0  0  0  0  0
    4.7654   -4.1821   -0.7485 C   0  0  0  0  0  0  0  0  0  0  0  0
    5.5850   -3.3866   -1.7891 C   0  0  2  0  0  0  0  0  0  0  0  0
    5.9139   -1.9994   -1.2289 C   0  0  0  0  0  0  0  0  0  0  0  0
    4.6073   -1.2416   -0.9576 C   0  0  1  0  0  0  0  0  0  0  0  0
    3.8096   -1.1064   -2.2708 C   0  0  0  0  0  0  0  0  0  0  0  0
    3.4854   -2.4988   -2.8270 C   0  0  1  0  0  0  0  0  0  0  0  0
    4.7848   -3.2716   -3.1016 C   0  0  0  0  0  0  0  0  0  0  0  0
    2.6422   -3.2658   -1.7897 C   0  0  0  0  0  0  0  0  0  0  0  0
    3.7808   -2.0191    0.0877 C   0  0  0  0  0  0  0  0  0  0  0  0
    5.3413   -4.3086    0.1698 H   0  0  0  0  0  0  0  0  0  0  0  0
    4.5664   -5.1905   -1.1159 H   0  0  0  0  0  0  0  0  0  0  0  0
    6.5413   -3.8546   -2.0020 H   0  0  0  0  0  0  0  0  0  0  0  0
    6.5023   -2.0922   -0.3144 H   0  0  0  0  0  0  0  0  0  0  0  0
    6.5242   -1.4588   -1.9416 H   0  0  0  0  0  0  0  0  0  0  0  0
    4.8440   -0.2535   -0.5601 H   0  0  0  0  0  0  0  0  0  0  0  0
    2.8603   -0.6112   -2.0835 H   0  0  0  0  0  0  0  0  0  0  0  0
    4.3557   -0.5012   -2.9926 H   0  0  0  0  0  0  0  0  0  0  0  0
    2.9120   -2.3942   -3.7482 H   0  0  0  0  0  0  0  0  0  0  0  0
    5.3689   -2.7650   -3.8622 H   0  0  0  0  0  0  0  0  0  0  0  0
    4.5501   -4.2614   -3.4913 H   0  0  0  0  0  0  0  0  0  0  0  0
    2.3288   -4.2261   -2.1952 H   0  0  0  0  0  0  0  0  0  0  0  0
    1.7136   -2.7277   -1.6135 H   0  0  0  0  0  0  0  0  0  0  0  0
    2.8679   -1.4649    0.3238 H   0  0  0  0  0  0  0  0  0  0  0  0
    4.3485   -2.0797    1.0205 H   0  0  0  0  0  0  0  0  0  0  0  0
  1  2  2  0
  2  3  1  0
  4  2  1  1
  4 12  1  0
  4 13  1  0
  4  5  1  0
  5  6  1  0
  5 14  1  0
  5 15  1  0
  6 11  1  0
  6  7  1  0
  6 16  1  6
  7  8  1  0
  7 17  1  0
  7 18  1  0
  8  9  1  0
  8 13  1  0
  8 19  1  1
  9 10  1  0
  9 20  1  0
  9 21  1  0
 10 11  1  0
 10 12  1  0
 10 22  1  6
 11 23  1  0
 11 24  1  0
 12 25  1  0
 12 26  1  0
 13 27  1  0
 13 28  1  0
M  CHG  1   3  -1
M  END
>  <i_m_ct_stereo_status>  (33) 
1

>  <s_m_source_file>  (33) 
/var/tmp/pbs.5076255.sched01/tmp4ovtozgc/0905bh7x9.sdf

>  <i_m_source_file_index>  (33) 
12

>  <i_lp_mmshare_version>  (33) 
48012

>  <i_f3d_flags>  (33) 
0

>  <s_epik_input>  (33) 
Tz1DKFtPSF0pQzEyW0NIMl1bQ0BIXTNbQ0gyXVtDQEBIXShbQ0gyXTIpW0NIMl1bQ0BIXShbQ0gyXTMpW0NIMl0x

>  <s_epik_cmdline>  (33) 
J2VwaWtfcHl0aG9uJywgJy1waHQnLCAnMi4wJywgJy1waCcsICc3LjAnLCAnLXRuJywgJzgnLCAnLW1hJywgJzIwMCcsICctaW1hZScsICc8aW5maWxlLm1hZT4nLCAnLW9tYWUnLCAnPG91dGZpbGUubWFlPic=

>  <r_epik_Ionization_Penalty>  (33) 
0.00908834

>  <r_epik_Ionization_Penalty_Charging>  (33) 
0.00908834

>  <r_epik_Ionization_Penalty_Neutral>  (33) 
0

>  <r_epik_State_Penalty>  (33) 
0.00688369

>  <r_epik_Charging_Adjusted_Penalty>  (33) 
0.015972

>  <i_epik_Tot_Q>  (33) 
-1

>  <i_epik_Tot_abs_Q>  (33) 
1

>  <s_lp_Force_Field>  (33) 
OPLS3e

>  <r_lp_Energy>  (33) 
11.5398

>  <b_lp_Chiralities_Consistent>  (33) 
1

>  <s_lp_Variant>  (33) 
8:0-1

>  <s_i_glide_gridfile>  (33) 
pfpi4k_grid

>  <i_i_glide_lignum>  (33) 
12

>  <i_i_glide_rotatable_bonds>  (33) 
1

>  <r_i_docking_score>  (33) 
-3.55574

>  <r_i_glide_ligand_efficiency>  (33) 
-0.273518

>  <r_i_glide_ligand_efficiency_sa>  (33) 
-0.643133

>  <r_i_glide_ligand_efficiency_ln>  (33) 
-0.997417

>  <r_i_glide_gscore>  (33) 
-3.55574

>  <r_i_glide_lipo>  (33) 
-0.476304

>  <r_i_glide_hbond>  (33) 
-0.0950698

>  <r_i_glide_metal>  (33) 
-0

>  <r_i_glide_rewards>  (33) 
-2.18703

>  <r_i_glide_evdw>  (33) 
-15.2981

>  <r_i_glide_ecoul>  (33) 
-0.0108066

>  <r_i_glide_erotb>  (33) 
0

>  <r_i_glide_esite>  (33) 
-0.0308101

>  <r_i_glide_emodel>  (33) 
-21.2065

>  <r_i_glide_energy>  (33) 
-15.3089

>  <r_i_glide_einternal>  (33) 
0.0166309

>  <r_i_glide_intrahb_reward>  (33) 
-0

>  <i_i_glide_confnum>  (33) 
1

>  <i_i_glide_posenum>  (33) 
28

>  <r_i_glide_eff_state_penalty>  (33) 
0

>  <ligand_id>  (33) 
8

>  <original_smiles>  (33) 
O=C(O)C12CC3CC(CC(C3)C1)C2

>  <smiles>  (33) 
[H]C1([H])C2([H])C([H])([H])C3([H])C([H])([H])C1([H])C([H])([H])C(C(=O)[O-])(C2([H])[H])C3([H])[H]

$$$$
8:1:0
     RDKit          3D

 29 31  0  0  1  0  0  0  0  0999 V2000
    0.6136   -5.8587    2.4326 O   0  0  0  0  0  0  0  0  0  0  0  0
    0.6143   -7.0309    2.0659 C   0  0  0  0  0  0  0  0  0  0  0  0
    0.0764   -7.4480    0.8861 O   0  0  0  0  0  0  0  0  0  0  0  0
    1.1952   -8.1690    2.9187 C   0  0  2  0  0  0  0  0  0  0  0  0
    2.2353   -8.9756    2.0913 C   0  0  0  0  0  0  0  0  0  0  0  0
    2.7996  -10.1241    2.9390 C   0  0  1  0  0  0  0  0  0  0  0  0
    3.5063   -9.5444    4.1781 C   0  0  0  0  0  0  0  0  0  0  0  0
    2.4887   -8.7578    5.0276 C   0  0  2  0  0  0  0  0  0  0  0  0
    1.3473   -9.6948    5.4714 C   0  0  0  0  0  0  0  0  0  0  0  0
    0.6453  -10.2605    4.2250 C   0  0  2  0  0  0  0  0  0  0  0  0
    1.6479  -11.0525    3.3733 C   0  0  0  0  0  0  0  0  0  0  0  0
    0.0526   -9.1131    3.3851 C   0  0  0  0  0  0  0  0  0  0  0  0
    1.9061   -7.6044    4.1891 C   0  0  0  0  0  0  0  0  0  0  0  0
    0.1715   -8.3853    0.7100 H   0  0  0  0  0  0  0  0  0  0  0  0
    1.8016   -9.4097    1.1897 H   0  0  0  0  0  0  0  0  0  0  0  0
    3.0458   -8.3230    1.7526 H   0  0  0  0  0  0  0  0  0  0  0  0
    3.5145  -10.6876    2.3402 H   0  0  0  0  0  0  0  0  0  0  0  0
    3.9473  -10.3463    4.7739 H   0  0  0  0  0  0  0  0  0  0  0  0
    4.3265   -8.8890    3.8709 H   0  0  0  0  0  0  0  0  0  0  0  0
    2.9897   -8.3559    5.9098 H   0  0  0  0  0  0  0  0  0  0  0  0
    1.7471  -10.5090    6.0779 H   0  0  0  0  0  0  0  0  0  0  0  0
    0.6357   -9.1564    6.0957 H   0  0  0  0  0  0  0  0  0  0  0  0
   -0.1473  -10.9359    4.5393 H   0  0  0  0  0  0  0  0  0  0  0  0
    1.1360  -11.4570    2.5026 H   0  0  0  0  0  0  0  0  0  0  0  0
    2.0402  -11.9006    3.9328 H   0  0  0  0  0  0  0  0  0  0  0  0
   -0.6822   -8.5695    3.9811 H   0  0  0  0  0  0  0  0  0  0  0  0
   -0.4936   -9.5303    2.5377 H   0  0  0  0  0  0  0  0  0  0  0  0
    2.7067   -6.9114    3.9113 H   0  0  0  0  0  0  0  0  0  0  0  0
    1.2111   -7.0264    4.8054 H   0  0  0  0  0  0  0  0  0  0  0  0
  1  2  2  0
  2  3  1  0
  4  2  1  6
  3 14  1  0
  4 12  1  0
  4 13  1  0
  4  5  1  0
  5  6  1  0
  5 15  1  0
  5 16  1  0
  6 11  1  0
  6  7  1  0
  6 17  1  6
  7  8  1  0
  7 18  1  0
  7 19  1  0
  8  9  1  0
  8 13  1  0
  8 20  1  1
  9 10  1  0
  9 21  1  0
  9 22  1  0
 10 11  1  0
 10 12  1  0
 10 23  1  1
 11 24  1  0
 11 25  1  0
 12 26  1  0
 12 27  1  0
 13 28  1  0
 13 29  1  0
M  END
>  <i_m_ct_stereo_status>  (34) 
1

>  <s_m_source_file>  (34) 
/var/tmp/pbs.5076255.sched01/tmp4ovtozgc/0905bh7x9.sdf

>  <i_m_source_file_index>  (34) 
13

>  <i_lp_mmshare_version>  (34) 
48012

>  <i_f3d_flags>  (34) 
0

>  <s_epik_input>  (34) 
Tz1DKFtPSF0pQzEyW0NIMl1bQ0BIXTNbQ0gyXVtDQEBIXShbQ0gyXTIpW0NIMl1bQ0BIXShbQ0gyXTMpW0NIMl0x

>  <s_epik_cmdline>  (34) 
J2VwaWtfcHl0aG9uJywgJy1waHQnLCAnMi4wJywgJy1waCcsICc3LjAnLCAnLXRuJywgJzgnLCAnLW1hJywgJzIwMCcsICctaW1hZScsICc8aW5maWxlLm1hZT4nLCAnLW9tYWUnLCAnPG91dGZpbGUubWFlPic=

>  <r_epik_Ionization_Penalty>  (34) 
2.47955

>  <r_epik_Ionization_Penalty_Charging>  (34) 
0

>  <r_epik_Ionization_Penalty_Neutral>  (34) 
2.47955

>  <r_epik_State_Penalty>  (34) 
2.64306

>  <r_epik_Charging_Adjusted_Penalty>  (34) 
2.64306

>  <i_epik_Tot_Q>  (34) 
0

>  <i_epik_Tot_abs_Q>  (34) 
0

>  <s_lp_Force_Field>  (34) 
OPLS3e

>  <r_lp_Energy>  (34) 
1.92064

>  <b_lp_Chiralities_Consistent>  (34) 
1

>  <s_lp_Variant>  (34) 
8:0-2

>  <s_i_glide_gridfile>  (34) 
pfpi4k_grid

>  <i_i_glide_lignum>  (34) 
13

>  <i_i_glide_rotatable_bonds>  (34) 
2

>  <r_i_docking_score>  (34) 
-4.3252

>  <r_i_glide_ligand_efficiency>  (34) 
-0.332707

>  <r_i_glide_ligand_efficiency_sa>  (34) 
-0.782307

>  <r_i_glide_ligand_efficiency_ln>  (34) 
-1.21326

>  <r_i_glide_gscore>  (34) 
-4.3252

>  <r_i_glide_lipo>  (34) 
-0.182929

>  <r_i_glide_hbond>  (34) 
-0.117682

>  <r_i_glide_metal>  (34) 
-0

>  <r_i_glide_rewards>  (34) 
-2.18016

>  <r_i_glide_evdw>  (34) 
-14.7039

>  <r_i_glide_ecoul>  (34) 
-6.94696

>  <r_i_glide_erotb>  (34) 
0

>  <r_i_glide_esite>  (34) 
-0.0671868

>  <r_i_glide_emodel>  (34) 
-27.8069

>  <r_i_glide_energy>  (34) 
-21.6509

>  <r_i_glide_einternal>  (34) 
1.27346

>  <r_i_glide_intrahb_reward>  (34) 
-0

>  <i_i_glide_confnum>  (34) 
1

>  <i_i_glide_posenum>  (34) 
16

>  <r_i_glide_eff_state_penalty>  (34) 
0

>  <ligand_id>  (34) 
8

>  <original_smiles>  (34) 
O=C(O)C12CC3CC(CC(C3)C1)C2

>  <smiles>  (34) 
[H]OC(=O)C12C([H])([H])C3([H])C([H])([H])C([H])(C([H])([H])C([H])(C3([H])[H])C1([H])[H])C2([H])[H]

$$$$
8:1:1
     RDKit          3D

 29 31  0  0  1  0  0  0  0  0999 V2000
    1.8336   -5.4912    0.4453 O   0  0  0  0  0  0  0  0  0  0  0  0
    3.0153   -5.3053    0.7406 C   0  0  0  0  0  0  0  0  0  0  0  0
    3.7397   -6.1397    1.5414 O   0  0  0  0  0  0  0  0  0  0  0  0
    3.8398   -4.0830    0.2750 C   0  0  2  0  0  0  0  0  0  0  0  0
    4.1892   -3.1816    1.4905 C   0  0  0  0  0  0  0  0  0  0  0  0
    5.0175   -1.9608    1.0348 C   0  0  1  0  0  0  0  0  0  0  0  0
    6.3256   -2.4453    0.3773 C   0  0  0  0  0  0  0  0  0  0  0  0
    5.9863   -3.3105   -0.8521 C   0  0  2  0  0  0  0  0  0  0  0  0
    5.1724   -2.4841   -1.8684 C   0  0  0  0  0  0  0  0  0  0  0  0
    3.8656   -2.0110   -1.2025 C   0  0  2  0  0  0  0  0  0  0  0  0
    4.1911   -1.1379    0.0262 C   0  0  0  0  0  0  0  0  0  0  0  0
    3.0389   -3.2342   -0.7529 C   0  0  0  0  0  0  0  0  0  0  0  0
    5.1614   -4.5381   -0.4024 C   0  0  0  0  0  0  0  0  0  0  0  0
    3.2371   -6.8918    1.8157 H   0  0  0  0  0  0  0  0  0  0  0  0
    3.2820   -2.8437    1.9939 H   0  0  0  0  0  0  0  0  0  0  0  0
    4.7566   -3.7388    2.2378 H   0  0  0  0  0  0  0  0  0  0  0  0
    5.2557   -1.3390    1.8979 H   0  0  0  0  0  0  0  0  0  0  0  0
    6.9452   -1.5963    0.0873 H   0  0  0  0  0  0  0  0  0  0  0  0
    6.9106   -3.0244    1.0934 H   0  0  0  0  0  0  0  0  0  0  0  0
    6.9102   -3.6454   -1.3209 H   0  0  0  0  0  0  0  0  0  0  0  0
    5.7547   -1.6280   -2.2141 H   0  0  0  0  0  0  0  0  0  0  0  0
    4.9488   -3.0865   -2.7506 H   0  0  0  0  0  0  0  0  0  0  0  0
    3.2813   -1.4267   -1.9153 H   0  0  0  0  0  0  0  0  0  0  0  0
    3.2668   -0.7903    0.4879 H   0  0  0  0  0  0  0  0  0  0  0  0
    4.7362   -0.2448   -0.2745 H   0  0  0  0  0  0  0  0  0  0  0  0
    2.7723   -3.8350   -1.6250 H   0  0  0  0  0  0  0  0  0  0  0  0
    2.1009   -2.8909   -0.3163 H   0  0  0  0  0  0  0  0  0  0  0  0
    5.7650   -5.1415    0.2783 H   0  0  0  0  0  0  0  0  0  0  0  0
    4.9477   -5.1765   -1.2632 H   0  0  0  0  0  0  0  0  0  0  0  0
  1  2  2  0
  2  3  1  0
  4  2  1  1
  3 14  1  0
  4 12  1  0
  4 13  1  0
  4  5  1  0
  5  6  1  0
  5 15  1  0
  5 16  1  0
  6 11  1  0
  6  7  1  0
  6 17  1  1
  7  8  1  0
  7 18  1  0
  7 19  1  0
  8  9  1  0
  8 13  1  0
  8 20  1  6
  9 10  1  0
  9 21  1  0
  9 22  1  0
 10 11  1  0
 10 12  1  0
 10 23  1  6
 11 24  1  0
 11 25  1  0
 12 26  1  0
 12 27  1  0
 13 28  1  0
 13 29  1  0
M  END
>  <i_m_ct_stereo_status>  (35) 
1

>  <s_m_source_file>  (35) 
/var/tmp/pbs.5076255.sched01/tmp4ovtozgc/0905bh7x9.sdf

>  <i_m_source_file_index>  (35) 
13

>  <i_lp_mmshare_version>  (35) 
48012

>  <i_f3d_flags>  (35) 
0

>  <s_epik_input>  (35) 
Tz1DKFtPSF0pQzEyW0NIMl1bQ0BIXTNbQ0gyXVtDQEBIXShbQ0gyXTIpW0NIMl1bQ0BIXShbQ0gyXTMpW0NIMl0x

>  <s_epik_cmdline>  (35) 
J2VwaWtfcHl0aG9uJywgJy1waHQnLCAnMi4wJywgJy1waCcsICc3LjAnLCAnLXRuJywgJzgnLCAnLW1hJywgJzIwMCcsICctaW1hZScsICc8aW5maWxlLm1hZT4nLCAnLW9tYWUnLCAnPG91dGZpbGUubWFlPic=

>  <r_epik_Ionization_Penalty>  (35) 
2.47955

>  <r_epik_Ionization_Penalty_Charging>  (35) 
0

>  <r_epik_Ionization_Penalty_Neutral>  (35) 
2.47955

>  <r_epik_State_Penalty>  (35) 
2.64306

>  <r_epik_Charging_Adjusted_Penalty>  (35) 
2.64306

>  <i_epik_Tot_Q>  (35) 
0

>  <i_epik_Tot_abs_Q>  (35) 
0

>  <s_lp_Force_Field>  (35) 
OPLS3e

>  <r_lp_Energy>  (35) 
1.92064

>  <b_lp_Chiralities_Consistent>  (35) 
1

>  <s_lp_Variant>  (35) 
8:0-2

>  <s_i_glide_gridfile>  (35) 
pfpi4k_grid

>  <i_i_glide_lignum>  (35) 
13

>  <i_i_glide_rotatable_bonds>  (35) 
2

>  <r_i_docking_score>  (35) 
-3.75298

>  <r_i_glide_ligand_efficiency>  (35) 
-0.288691

>  <r_i_glide_ligand_efficiency_sa>  (35) 
-0.678808

>  <r_i_glide_ligand_efficiency_ln>  (35) 
-1.05274

>  <r_i_glide_gscore>  (35) 
-3.75298

>  <r_i_glide_lipo>  (35) 
-0.299637

>  <r_i_glide_hbond>  (35) 
-0.0923522

>  <r_i_glide_metal>  (35) 
-0

>  <r_i_glide_rewards>  (35) 
-2.18016

>  <r_i_glide_evdw>  (35) 
-17.4434

>  <r_i_glide_ecoul>  (35) 
-1.91633

>  <r_i_glide_erotb>  (35) 
0

>  <r_i_glide_esite>  (35) 
-0.0212107

>  <r_i_glide_emodel>  (35) 
-25.1995

>  <r_i_glide_energy>  (35) 
-19.3597

>  <r_i_glide_einternal>  (35) 
0.124732

>  <r_i_glide_intrahb_reward>  (35) 
-0

>  <i_i_glide_confnum>  (35) 
2

>  <i_i_glide_posenum>  (35) 
22

>  <r_i_glide_eff_state_penalty>  (35) 
0

>  <ligand_id>  (35) 
8

>  <original_smiles>  (35) 
O=C(O)C12CC3CC(CC(C3)C1)C2

>  <smiles>  (35) 
[H]OC(=O)C12C([H])([H])C3([H])C([H])([H])C([H])(C([H])([H])C([H])(C3([H])[H])C1([H])[H])C2([H])[H]

$$$$
8:1:2
     RDKit          3D

 29 31  0  0  1  0  0  0  0  0999 V2000
    2.0756   -5.5177    1.7864 O   0  0  0  0  0  0  0  0  0  0  0  0
    1.4080   -6.5293    1.5671 C   0  0  0  0  0  0  0  0  0  0  0  0
    0.5997   -6.6923    0.4803 O   0  0  0  0  0  0  0  0  0  0  0  0
    1.3485   -7.7566    2.5053 C   0  0  2  0  0  0  0  0  0  0  0  0
    1.8990   -7.3860    3.9106 C   0  0  0  0  0  0  0  0  0  0  0  0
    1.8200   -8.6014    4.8539 C   0  0  1  0  0  0  0  0  0  0  0  0
    0.3498   -9.0487    4.9929 C   0  0  0  0  0  0  0  0  0  0  0  0
   -0.1847   -9.4492    3.6054 C   0  0  2  0  0  0  0  0  0  0  0  0
    0.6556  -10.6053    3.0364 C   0  0  0  0  0  0  0  0  0  0  0  0
    2.1213  -10.1451    2.8870 C   0  0  2  0  0  0  0  0  0  0  0  0
    2.6736   -9.7449    4.2703 C   0  0  0  0  0  0  0  0  0  0  0  0
    2.1961   -8.9293    1.9352 C   0  0  0  0  0  0  0  0  0  0  0  0
   -0.1246   -8.2421    2.6610 C   0  0  0  0  0  0  0  0  0  0  0  0
    0.2392   -7.5725    0.4697 H   0  0  0  0  0  0  0  0  0  0  0  0
    2.9323   -7.0418    3.8427 H   0  0  0  0  0  0  0  0  0  0  0  0
    1.3304   -6.5583    4.3344 H   0  0  0  0  0  0  0  0  0  0  0  0
    2.2094   -8.3248    5.8337 H   0  0  0  0  0  0  0  0  0  0  0  0
    0.2675   -9.8900    5.6836 H   0  0  0  0  0  0  0  0  0  0  0  0
   -0.2505   -8.2389    5.4090 H   0  0  0  0  0  0  0  0  0  0  0  0
   -1.2244   -9.7711    3.6808 H   0  0  0  0  0  0  0  0  0  0  0  0
    0.5957  -11.4748    3.6950 H   0  0  0  0  0  0  0  0  0  0  0  0
    0.2488  -10.9185    2.0762 H   0  0  0  0  0  0  0  0  0  0  0  0
    2.7171  -10.9640    2.4801 H   0  0  0  0  0  0  0  0  0  0  0  0
    3.7140   -9.4323    4.1806 H   0  0  0  0  0  0  0  0  0  0  0  0
    2.6698  -10.6009    4.9451 H   0  0  0  0  0  0  0  0  0  0  0  0
    1.8444   -9.2280    0.9470 H   0  0  0  0  0  0  0  0  0  0  0  0
    3.2373   -8.6280    1.8046 H   0  0  0  0  0  0  0  0  0  0  0  0
   -0.7533   -7.4394    3.0484 H   0  0  0  0  0  0  0  0  0  0  0  0
   -0.5679   -8.5526    1.7125 H   0  0  0  0  0  0  0  0  0  0  0  0
  1  2  2  0
  2  3  1  0
  4  2  1  6
  3 14  1  0
  4 12  1  0
  4 13  1  0
  4  5  1  0
  5  6  1  0
  5 15  1  0
  5 16  1  0
  6 11  1  0
  6  7  1  0
  6 17  1  1
  7  8  1  0
  7 18  1  0
  7 19  1  0
  8  9  1  0
  8 13  1  0
  8 20  1  1
  9 10  1  0
  9 21  1  0
  9 22  1  0
 10 11  1  0
 10 12  1  0
 10 23  1  6
 11 24  1  0
 11 25  1  0
 12 26  1  0
 12 27  1  0
 13 28  1  0
 13 29  1  0
M  END
>  <i_m_ct_stereo_status>  (36) 
1

>  <s_m_source_file>  (36) 
/var/tmp/pbs.5076255.sched01/tmp4ovtozgc/0905bh7x9.sdf

>  <i_m_source_file_index>  (36) 
13

>  <i_lp_mmshare_version>  (36) 
48012

>  <i_f3d_flags>  (36) 
0

>  <s_epik_input>  (36) 
Tz1DKFtPSF0pQzEyW0NIMl1bQ0BIXTNbQ0gyXVtDQEBIXShbQ0gyXTIpW0NIMl1bQ0BIXShbQ0gyXTMpW0NIMl0x

>  <s_epik_cmdline>  (36) 
J2VwaWtfcHl0aG9uJywgJy1waHQnLCAnMi4wJywgJy1waCcsICc3LjAnLCAnLXRuJywgJzgnLCAnLW1hJywgJzIwMCcsICctaW1hZScsICc8aW5maWxlLm1hZT4nLCAnLW9tYWUnLCAnPG91dGZpbGUubWFlPic=

>  <r_epik_Ionization_Penalty>  (36) 
2.47955

>  <r_epik_Ionization_Penalty_Charging>  (36) 
0

>  <r_epik_Ionization_Penalty_Neutral>  (36) 
2.47955

>  <r_epik_State_Penalty>  (36) 
2.64306

>  <r_epik_Charging_Adjusted_Penalty>  (36) 
2.64306

>  <i_epik_Tot_Q>  (36) 
0

>  <i_epik_Tot_abs_Q>  (36) 
0

>  <s_lp_Force_Field>  (36) 
OPLS3e

>  <r_lp_Energy>  (36) 
1.92064

>  <b_lp_Chiralities_Consistent>  (36) 
1

>  <s_lp_Variant>  (36) 
8:0-2

>  <s_i_glide_gridfile>  (36) 
pfpi4k_grid

>  <i_i_glide_lignum>  (36) 
13

>  <i_i_glide_rotatable_bonds>  (36) 
2

>  <r_i_docking_score>  (36) 
-3.73115

>  <r_i_glide_ligand_efficiency>  (36) 
-0.287012

>  <r_i_glide_ligand_efficiency_sa>  (36) 
-0.674861

>  <r_i_glide_ligand_efficiency_ln>  (36) 
-1.04662

>  <r_i_glide_gscore>  (36) 
-3.73115

>  <r_i_glide_lipo>  (36) 
-0.164911

>  <r_i_glide_hbond>  (36) 
0

>  <r_i_glide_metal>  (36) 
-0

>  <r_i_glide_rewards>  (36) 
-2.18016

>  <r_i_glide_evdw>  (36) 
-17.1187

>  <r_i_glide_ecoul>  (36) 
-3.16213

>  <r_i_glide_erotb>  (36) 
0

>  <r_i_glide_esite>  (36) 
-0.0558316

>  <r_i_glide_emodel>  (36) 
-25.2127

>  <r_i_glide_energy>  (36) 
-20.2808

>  <r_i_glide_einternal>  (36) 
1.69963

>  <r_i_glide_intrahb_reward>  (36) 
-0

>  <i_i_glide_confnum>  (36) 
2

>  <i_i_glide_posenum>  (36) 
25

>  <r_i_glide_eff_state_penalty>  (36) 
0

>  <ligand_id>  (36) 
8

>  <original_smiles>  (36) 
O=C(O)C12CC3CC(CC(C3)C1)C2

>  <smiles>  (36) 
[H]OC(=O)C12C([H])([H])C3([H])C([H])([H])C([H])(C([H])([H])C([H])(C3([H])[H])C1([H])[H])C2([H])[H]

$$$$
9:0:0
     RDKit          3D

 78 83  0  0  1  0  0  0  0  0999 V2000
    0.6088   -9.1791    5.1140 C   0  0  0  0  0  0  0  0  0  0  0  0
    1.1416   -8.5074    3.8062 C   0  0  0  0  0  0  0  0  0  0  0  0
    2.0764   -9.6280    3.2450 C   0  0  0  0  0  0  0  0  0  0  0  0
   -0.0391   -8.3100    2.8294 C   0  0  1  0  0  0  0  0  0  0  0  0
   -1.1116   -7.6075    3.4177 O   0  0  0  0  0  0  0  0  0  0  0  0
    0.3587   -7.5599    1.5636 C   0  0  0  0  0  0  0  0  0  0  0  0
    1.0895   -6.2569    1.8432 C   0  0  0  0  0  0  0  0  0  0  0  0
    2.3239   -6.3642    2.7816 C   0  0  1  0  0  0  0  0  0  0  0  0
    3.4283   -7.1114    1.9586 C   0  0  0  0  0  0  0  0  0  0  0  0
    2.9458   -4.9196    3.0465 C   0  0  2  0  0  0  0  0  0  0  0  0
    4.3650   -4.9185    3.7223 C   0  0  1  0  0  0  0  0  0  0  0  0
    5.3522   -4.6960    2.7288 O   0  0  0  0  0  0  0  0  0  0  0  0
    4.6525   -3.9648    4.9261 C   0  0  0  0  0  0  0  0  0  0  0  0
    3.5060   -2.9926    5.3886 C   0  0  2  0  0  0  0  0  0  0  0  0
    2.1420   -3.7850    5.1959 C   0  0  2  0  0  0  0  0  0  0  0  0
    0.8826   -3.1445    5.8572 C   0  0  0  0  0  0  0  0  0  0  0  0
    2.1539   -5.2144    5.8525 C   0  0  0  0  0  0  0  0  0  0  0  0
    1.2553   -6.2744    5.1730 C   0  0  0  0  0  0  0  0  0  0  0  0
    1.9473   -7.1639    4.0869 C   0  0  1  0  0  0  0  0  0  0  0  0
    1.9734   -3.8726    3.6679 C   0  0  1  0  0  0  0  0  0  0  0  0
    2.0379   -2.4908    2.9721 C   0  0  0  0  0  0  0  0  0  0  0  0
    3.3310   -1.7160    3.2532 C   0  0  1  0  0  0  0  0  0  0  0  0
    3.4448   -0.4827    2.5548 O   0  0  0  0  0  0  0  0  0  0  0  0
    2.6984    0.6493    2.9996 C   0  0  1  0  0  0  0  0  0  0  0  0
    1.3969    0.9487    2.2471 C   0  0  0  0  0  0  0  0  0  0  0  0
    0.6122    1.8241    3.2183 C   0  0  1  0  0  0  0  0  0  0  0  0
   -0.8055    1.7548    2.9859 N   0  0  0  0  0  0  0  0  0  0  0  0
   -1.7810    2.4643    2.9896 C   0  0  0  0  0  0  0  0  0  0  0  0
   -3.1177    3.3246    2.8732 S   0  0  0  0  0  0  0  0  0  0  0  0
    0.9891    1.2985    4.6043 C   0  0  0  0  0  0  0  0  0  0  0  0
    2.4598    0.7938    4.5253 C   0  0  1  0  0  0  0  0  0  0  0  0
    2.6016   -0.5326    5.3261 C   0  0  0  0  0  0  0  0  0  0  0  0
    3.6251   -1.5489    4.7437 C   0  0  1  0  0  0  0  0  0  0  0  0
    5.0334   -0.9631    4.9622 C   0  0  0  0  0  0  0  0  0  0  0  0
    5.5870   -1.0160    6.0603 O   0  0  0  0  0  0  0  0  0  0  0  0
    0.1852  -10.1657    4.9345 H   0  0  0  0  0  0  0  0  0  0  0  0
   -0.1937   -8.6120    5.5768 H   0  0  0  0  0  0  0  0  0  0  0  0
    1.3939   -9.2975    5.8631 H   0  0  0  0  0  0  0  0  0  0  0  0
    2.1798   -9.5955    2.1625 H   0  0  0  0  0  0  0  0  0  0  0  0
    1.7030  -10.6402    3.4361 H   0  0  0  0  0  0  0  0  0  0  0  0
    3.0894   -9.5846    3.6713 H   0  0  0  0  0  0  0  0  0  0  0  0
   -0.4288   -9.2880    2.5357 H   0  0  0  0  0  0  0  0  0  0  0  0
   -1.4579   -8.1672    4.0851 H   0  0  0  0  0  0  0  0  0  0  0  0
    0.9819   -8.1884    0.9350 H   0  0  0  0  0  0  0  0  0  0  0  0
   -0.5269   -7.3708    0.9525 H   0  0  0  0  0  0  0  0  0  0  0  0
    1.3871   -5.7853    0.9036 H   0  0  0  0  0  0  0  0  0  0  0  0
    0.3404   -5.6314    2.2927 H   0  0  0  0  0  0  0  0  0  0  0  0
    4.1839   -7.5851    2.5944 H   0  0  0  0  0  0  0  0  0  0  0  0
    3.9611   -6.4524    1.2572 H   0  0  0  0  0  0  0  0  0  0  0  0
    3.0472   -7.8959    1.3112 H   0  0  0  0  0  0  0  0  0  0  0  0
    3.1023   -4.5220    2.0432 H   0  0  0  0  0  0  0  0  0  0  0  0
    4.5548   -5.9207    4.1027 H   0  0  0  0  0  0  0  0  0  0  0  0
    5.3138   -5.4005    2.1067 H   0  0  0  0  0  0  0  0  0  0  0  0
    4.9563   -4.5884    5.7742 H   0  0  0  0  0  0  0  0  0  0  0  0
    5.5806   -3.4349    4.7199 H   0  0  0  0  0  0  0  0  0  0  0  0
    3.6510   -2.8715    6.4733 H   0  0  0  0  0  0  0  0  0  0  0  0
    0.1054   -3.8728    6.0914 H   0  0  0  0  0  0  0  0  0  0  0  0
    0.3603   -2.4445    5.2004 H   0  0  0  0  0  0  0  0  0  0  0  0
    1.1298   -2.6389    6.7911 H   0  0  0  0  0  0  0  0  0  0  0  0
    3.1341   -5.6525    5.9496 H   0  0  0  0  0  0  0  0  0  0  0  0
    1.8528   -5.1037    6.8955 H   0  0  0  0  0  0  0  0  0  0  0  0
    0.9907   -6.8959    6.0211 H   0  0  0  0  0  0  0  0  0  0  0  0
    0.3125   -5.8577    4.8285 H   0  0  0  0  0  0  0  0  0  0  0  0
    2.8776   -7.4832    4.5569 H   0  0  0  0  0  0  0  0  0  0  0  0
    0.9415   -4.1666    3.5030 H   0  0  0  0  0  0  0  0  0  0  0  0
    1.9071   -2.5819    1.9009 H   0  0  0  0  0  0  0  0  0  0  0  0
    1.2002   -1.8680    3.2762 H   0  0  0  0  0  0  0  0  0  0  0  0
    4.1555   -2.2917    2.8322 H   0  0  0  0  0  0  0  0  0  0  0  0
    3.3571    1.4952    2.7748 H   0  0  0  0  0  0  0  0  0  0  0  0
    1.5717    1.4249    1.2833 H   0  0  0  0  0  0  0  0  0  0  0  0
    0.8631    0.0189    2.0511 H   0  0  0  0  0  0  0  0  0  0  0  0
    0.9730    2.8463    3.1227 H   0  0  0  0  0  0  0  0  0  0  0  0
    0.8546    2.0683    5.3713 H   0  0  0  0  0  0  0  0  0  0  0  0
    0.2888    0.4963    4.8538 H   0  0  0  0  0  0  0  0  0  0  0  0
    3.1125    1.5714    4.9170 H   0  0  0  0  0  0  0  0  0  0  0  0
    2.9418   -0.2369    6.3307 H   0  0  0  0  0  0  0  0  0  0  0  0
    1.6316   -0.9127    5.4948 H   0  0  0  0  0  0  0  0  0  0  0  0
    5.4842   -0.4872    4.1051 H   0  0  0  0  0  0  0  0  0  0  0  0
  1  2  1  0
  1 36  1  0
  1 37  1  0
  1 38  1  0
  2 19  1  0
  2  3  1  0
  2  4  1  0
  3 39  1  0
  3 40  1  0
  3 41  1  0
  4  5  1  0
  4  6  1  0
  4 42  1  6
  5 43  1  0
  6  7  1  0
  6 44  1  0
  6 45  1  0
  7  8  1  0
  7 46  1  0
  7 47  1  0
  8 19  1  0
  8  9  1  6
  8 10  1  0
  9 48  1  0
  9 49  1  0
  9 50  1  0
 10 20  1  0
 10 11  1  0
 10 51  1  6
 11 12  1  0
 11 13  1  0
 11 52  1  1
 12 53  1  0
 13 14  1  0
 13 54  1  0
 13 55  1  0
 14 33  1  0
 14 15  1  0
 14 56  1  1
 15 16  1  1
 15 17  1  0
 15 20  1  0
 16 57  1  0
 16 58  1  0
 16 59  1  0
 17 18  1  0
 17 60  1  0
 17 61  1  0
 18 19  1  0
 18 62  1  0
 18 63  1  0
 19 64  1  1
 20 21  1  0
 20 65  1  1
 21 22  1  0
 21 66  1  0
 21 67  1  0
 22 33  1  0
 22 23  1  0
 22 68  1  6
 23 24  1  0
 24 31  1  0
 24 25  1  0
 24 69  1  6
 25 26  1  0
 25 70  1  0
 25 71  1  0
 26 27  1  0
 26 30  1  0
 26 72  1  1
 27 28  2  0
 28 29  2  0
 30 31  1  0
 30 73  1  0
 30 74  1  0
 31 32  1  0
 31 75  1  1
 32 33  1  0
 32 76  1  0
 32 77  1  0
 33 34  1  6
 34 35  2  0
 34 78  1  0
M  END
>  <i_m_ct_stereo_status>  (37) 
1

>  <s_m_source_file>  (37) 
/var/tmp/pbs.5076255.sched01/tmp4ovtozgc/0905bh7x9.sdf

>  <i_m_source_file_index>  (37) 
14

>  <i_lp_mmshare_version>  (37) 
48012

>  <i_f3d_flags>  (37) 
0

>  <s_epik_input>  (37) 
W0NIMl0xW0NIMl1bQ0BIXShbT0hdKUMoW0NIM10pKFtDSDNdKVtDQEBIXTJbQ0gyXVtDSDJdW0NAXShbQ0gzXSkoW0NAQEhdM1tDSF00W0NAXTEyW0NIM10pW0NAQEhdKFtDSDJdW0NAQEhdNFtPSF0pW0NAQF01KFtDSF09TylbQ0BASF0oW0NIMl0zKU9bQ0BASF02W0NASF0oW0NIMl01KVtDSDJdW0NAQEhdKFtDSDJdNilOPUM9Uw==

>  <s_epik_cmdline>  (37) 
J2VwaWtfcHl0aG9uJywgJy1waHQnLCAnMi4wJywgJy1waCcsICc3LjAnLCAnLXRuJywgJzgnLCAnLW1hJywgJzIwMCcsICctaW1hZScsICc8aW5maWxlLm1hZT4nLCAnLW9tYWUnLCAnPG91dGZpbGUubWFlPic=

>  <r_lp_tautomer_probability>  (37) 
1

>  <r_epik_Ionization_Penalty>  (37) 
4.3585e-06

>  <r_epik_Ionization_Penalty_Charging>  (37) 
0

>  <r_epik_Ionization_Penalty_Neutral>  (37) 
4.3585e-06

>  <r_epik_State_Penalty>  (37) 
-0

>  <r_epik_Charging_Adjusted_Penalty>  (37) 
0

>  <i_epik_Tot_Q>  (37) 
0

>  <i_epik_Tot_abs_Q>  (37) 
0

>  <s_epik_Chemistry_Notes>  (37) 
This compound has an imine and may undergo hydrolysis.

>  <s_lp_Force_Field>  (37) 
OPLS3e

>  <r_lp_Energy>  (37) 
118.033

>  <b_lp_Chiralities_Consistent>  (37) 
1

>  <s_lp_Variant>  (37) 
9:0-1

>  <s_i_glide_gridfile>  (37) 
pfpi4k_grid

>  <i_i_glide_lignum>  (37) 
14

>  <i_i_glide_rotatable_bonds>  (37) 
4

>  <r_i_docking_score>  (37) 
-2.16311

>  <r_i_glide_ligand_efficiency>  (37) 
-0.0618031

>  <r_i_glide_ligand_efficiency_sa>  (37) 
-0.202162

>  <r_i_glide_ligand_efficiency_ln>  (37) 
-0.47485

>  <r_i_glide_gscore>  (37) 
-2.16311

>  <r_i_glide_lipo>  (37) 
-0.0477054

>  <r_i_glide_hbond>  (37) 
0

>  <r_i_glide_metal>  (37) 
-0

>  <r_i_glide_rewards>  (37) 
-0.0590293

>  <r_i_glide_evdw>  (37) 
-35.3006

>  <r_i_glide_ecoul>  (37) 
-2.05059

>  <r_i_glide_erotb>  (37) 
0.0811535

>  <r_i_glide_esite>  (37) 
-0.0649097

>  <r_i_glide_emodel>  (37) 
-41.855

>  <r_i_glide_energy>  (37) 
-37.3512

>  <r_i_glide_einternal>  (37) 
0.680325

>  <r_i_glide_intrahb_reward>  (37) 
-0

>  <i_i_glide_confnum>  (37) 
3

>  <i_i_glide_posenum>  (37) 
28

>  <r_i_glide_eff_state_penalty>  (37) 
0

>  <ligand_id>  (37) 
9

>  <original_smiles>  (37) 
CC1(C)C(O)CCC2(C)C3C(O)CC4C(C)(CCC12)C3CC1OC2CC(N=C=S)CC2CC14C=O

>  <smiles>  (37) 
[H]OC1([H])C([H])([H])C2([H])C3(C([H])=O)C([H])([H])C4([H])C([H])([H])C([H])(N=C=S)C([H])([H])C4([H])OC3([H])C([H])([H])C3([H])C1([H])C1(C([H])([H])[H])C([H])([H])C([H])([H])C([H])(O[H])C(C([H])([H])[H])(C([H])([H])[H])C1([H])C([H])([H])C([H])([H])C32C([H])([H])[H]

$$$$
9:0:1
     RDKit          3D

 78 83  0  0  1  0  0  0  0  0999 V2000
    0.6322   -9.1471    4.9117 C   0  0  0  0  0  0  0  0  0  0  0  0
    1.1799   -8.4617    3.6256 C   0  0  0  0  0  0  0  0  0  0  0  0
    2.1234   -9.5452    3.0225 C   0  0  0  0  0  0  0  0  0  0  0  0
   -0.0026   -8.2273    2.6354 C   0  0  1  0  0  0  0  0  0  0  0  0
   -1.0869   -7.5429    3.2439 O   0  0  0  0  0  0  0  0  0  0  0  0
    0.3983   -7.4437    1.3841 C   0  0  0  0  0  0  0  0  0  0  0  0
    1.1271   -6.1423    1.7188 C   0  0  0  0  0  0  0  0  0  0  0  0
    2.3718   -6.2667    2.6477 C   0  0  1  0  0  0  0  0  0  0  0  0
    3.4715   -6.9954    1.8119 C   0  0  0  0  0  0  0  0  0  0  0  0
    2.9676   -4.8217    2.9579 C   0  0  2  0  0  0  0  0  0  0  0  0
    4.3839   -4.8379    3.6414 C   0  0  1  0  0  0  0  0  0  0  0  0
    5.3996   -4.5918    2.6745 O   0  0  0  0  0  0  0  0  0  0  0  0
    4.6702   -3.9124    4.8718 C   0  0  0  0  0  0  0  0  0  0  0  0
    3.5083   -2.9803    5.3739 C   0  0  2  0  0  0  0  0  0  0  0  0
    2.1471   -3.7527    5.1413 C   0  0  2  0  0  0  0  0  0  0  0  0
    0.8814   -3.1291    5.8094 C   0  0  0  0  0  0  0  0  0  0  0  0
    2.1678   -5.1984    5.7521 C   0  0  0  0  0  0  0  0  0  0  0  0
    1.2769   -6.2487    5.0512 C   0  0  0  0  0  0  0  0  0  0  0  0
    1.9698   -7.1064    3.9377 C   0  0  1  0  0  0  0  0  0  0  0  0
    1.9812   -3.8004    3.6069 C   0  0  1  0  0  0  0  0  0  0  0  0
    2.0510   -2.3879    2.9484 C   0  0  0  0  0  0  0  0  0  0  0  0
    3.3541   -1.6263    3.2494 C   0  0  1  0  0  0  0  0  0  0  0  0
    3.4378   -0.3705    2.5797 O   0  0  0  0  0  0  0  0  0  0  0  0
    2.7058    0.7504    3.0687 C   0  0  1  0  0  0  0  0  0  0  0  0
    1.4000    1.0447    2.3186 C   0  0  0  0  0  0  0  0  0  0  0  0
    0.6113    1.9016    3.3036 C   0  0  1  0  0  0  0  0  0  0  0  0
   -0.8032    1.8228    3.0583 N   0  0  0  0  0  0  0  0  0  0  0  0
   -1.7822    2.5362    2.9271 C   0  0  0  0  0  0  0  0  0  0  0  0
   -3.0963    3.4300    2.8783 S   0  0  0  0  0  0  0  0  0  0  0  0
    0.9707    1.3440    4.6824 C   0  0  0  0  0  0  0  0  0  0  0  0
    2.4300    0.8366    4.5846 C   0  0  1  0  0  0  0  0  0  0  0  0
    2.6272   -0.4783    5.3708 C   0  0  0  0  0  0  0  0  0  0  0  0
    3.6161   -1.5114    4.7608 C   0  0  1  0  0  0  0  0  0  0  0  0
    5.0200   -0.9111    4.9875 C   0  0  0  0  0  0  0  0  0  0  0  0
    5.5991   -0.9960    6.0793 O   0  0  0  0  0  0  0  0  0  0  0  0
    0.2155  -10.1322    4.7007 H   0  0  0  0  0  0  0  0  0  0  0  0
   -0.1768   -8.5925    5.3828 H   0  0  0  0  0  0  0  0  0  0  0  0
    1.4168   -9.2837    5.6555 H   0  0  0  0  0  0  0  0  0  0  0  0
    2.2211   -9.4831    1.9447 H   0  0  0  0  0  0  0  0  0  0  0  0
    1.7536  -10.5568    3.1924 H   0  0  0  0  0  0  0  0  0  0  0  0
    3.1237   -9.5040    3.4504 H   0  0  0  0  0  0  0  0  0  0  0  0
   -0.3947   -9.1954    2.3221 H   0  0  0  0  0  0  0  0  0  0  0  0
   -1.4358   -8.1152    3.9022 H   0  0  0  0  0  0  0  0  0  0  0  0
    1.0237   -8.0612    0.7502 H   0  0  0  0  0  0  0  0  0  0  0  0
   -0.4876   -7.2371    0.7874 H   0  0  0  0  0  0  0  0  0  0  0  0
    1.4175   -5.6438    0.7924 H   0  0  0  0  0  0  0  0  0  0  0  0
    0.3654   -5.5272    2.1811 H   0  0  0  0  0  0  0  0  0  0  0  0
    4.2171   -7.4770    2.4408 H   0  0  0  0  0  0  0  0  0  0  0  0
    3.9984   -6.3114    1.1471 H   0  0  0  0  0  0  0  0  0  0  0  0
    3.0895   -7.7583    1.1448 H   0  0  0  0  0  0  0  0  0  0  0  0
    3.1323   -4.4049    1.9643 H   0  0  0  0  0  0  0  0  0  0  0  0
    4.5772   -5.8552    3.9914 H   0  0  0  0  0  0  0  0  0  0  0  0
    6.2235   -4.8473    3.0336 H   0  0  0  0  0  0  0  0  0  0  0  0
    4.9654   -4.5593    5.7017 H   0  0  0  0  0  0  0  0  0  0  0  0
    5.5935   -3.3727    4.6962 H   0  0  0  0  0  0  0  0  0  0  0  0
    3.6465   -2.8734    6.4482 H   0  0  0  0  0  0  0  0  0  0  0  0
    0.1106   -3.8677    6.0224 H   0  0  0  0  0  0  0  0  0  0  0  0
    0.3595   -2.4202    5.1741 H   0  0  0  0  0  0  0  0  0  0  0  0
    1.1283   -2.6517    6.7591 H   0  0  0  0  0  0  0  0  0  0  0  0
    3.1545   -5.6374    5.8434 H   0  0  0  0  0  0  0  0  0  0  0  0
    1.8669   -5.1232    6.7997 H   0  0  0  0  0  0  0  0  0  0  0  0
    1.0109   -6.8933    5.8784 H   0  0  0  0  0  0  0  0  0  0  0  0
    0.3354   -5.8249    4.7085 H   0  0  0  0  0  0  0  0  0  0  0  0
    2.9026   -7.4292    4.3992 H   0  0  0  0  0  0  0  0  0  0  0  0
    0.9591   -4.0944    3.4303 H   0  0  0  0  0  0  0  0  0  0  0  0
    1.9260   -2.4698    1.8699 H   0  0  0  0  0  0  0  0  0  0  0  0
    1.2001   -1.7882    3.2759 H   0  0  0  0  0  0  0  0  0  0  0  0
    4.1653   -2.1987    2.8101 H   0  0  0  0  0  0  0  0  0  0  0  0
    3.3603    1.5928    2.8497 H   0  0  0  0  0  0  0  0  0  0  0  0
    1.5758    1.5651    1.3750 H   0  0  0  0  0  0  0  0  0  0  0  0
    0.8656    0.1239    2.0867 H   0  0  0  0  0  0  0  0  0  0  0  0
    0.9522    2.9360    3.2409 H   0  0  0  0  0  0  0  0  0  0  0  0
    0.8384    2.0887    5.4679 H   0  0  0  0  0  0  0  0  0  0  0  0
    0.2829    0.5330    4.9084 H   0  0  0  0  0  0  0  0  0  0  0  0
    3.0942    1.6047    5.0034 H   0  0  0  0  0  0  0  0  0  0  0  0
    2.9304   -0.2368    6.3884 H   0  0  0  0  0  0  0  0  0  0  0  0
    1.6403   -0.8963    5.4887 H   0  0  0  0  0  0  0  0  0  0  0  0
    5.4836   -0.4058    4.1378 H   0  0  0  0  0  0  0  0  0  0  0  0
  1  2  1  0
  1 36  1  0
  1 37  1  0
  1 38  1  0
  2 19  1  0
  2  3  1  0
  2  4  1  0
  3 39  1  0
  3 40  1  0
  3 41  1  0
  4  5  1  0
  4  6  1  0
  4 42  1  6
  5 43  1  0
  6  7  1  0
  6 44  1  0
  6 45  1  0
  7  8  1  0
  7 46  1  0
  7 47  1  0
  8 19  1  0
  8  9  1  6
  8 10  1  0
  9 48  1  0
  9 49  1  0
  9 50  1  0
 10 20  1  0
 10 11  1  0
 10 51  1  6
 11 12  1  0
 11 13  1  0
 11 52  1  1
 12 53  1  0
 13 14  1  0
 13 54  1  0
 13 55  1  0
 14 33  1  0
 14 15  1  0
 14 56  1  1
 15 16  1  1
 15 17  1  0
 15 20  1  0
 16 57  1  0
 16 58  1  0
 16 59  1  0
 17 18  1  0
 17 60  1  0
 17 61  1  0
 18 19  1  0
 18 62  1  0
 18 63  1  0
 19 64  1  1
 20 21  1  0
 20 65  1  1
 21 22  1  0
 21 66  1  0
 21 67  1  0
 22 33  1  0
 22 23  1  0
 22 68  1  6
 23 24  1  0
 24 31  1  0
 24 25  1  0
 24 69  1  6
 25 26  1  0
 25 70  1  0
 25 71  1  0
 26 27  1  0
 26 30  1  0
 26 72  1  1
 27 28  2  0
 28 29  2  0
 30 31  1  0
 30 73  1  0
 30 74  1  0
 31 32  1  0
 31 75  1  1
 32 33  1  0
 32 76  1  0
 32 77  1  0
 33 34  1  6
 34 35  2  0
 34 78  1  0
M  END
>  <i_m_ct_stereo_status>  (38) 
1

>  <s_m_source_file>  (38) 
/var/tmp/pbs.5076255.sched01/tmp4ovtozgc/0905bh7x9.sdf

>  <i_m_source_file_index>  (38) 
14

>  <i_lp_mmshare_version>  (38) 
48012

>  <i_f3d_flags>  (38) 
0

>  <s_epik_input>  (38) 
W0NIMl0xW0NIMl1bQ0BIXShbT0hdKUMoW0NIM10pKFtDSDNdKVtDQEBIXTJbQ0gyXVtDSDJdW0NAXShbQ0gzXSkoW0NAQEhdM1tDSF00W0NAXTEyW0NIM10pW0NAQEhdKFtDSDJdW0NAQEhdNFtPSF0pW0NAQF01KFtDSF09TylbQ0BASF0oW0NIMl0zKU9bQ0BASF02W0NASF0oW0NIMl01KVtDSDJdW0NAQEhdKFtDSDJdNilOPUM9Uw==

>  <s_epik_cmdline>  (38) 
J2VwaWtfcHl0aG9uJywgJy1waHQnLCAnMi4wJywgJy1waCcsICc3LjAnLCAnLXRuJywgJzgnLCAnLW1hJywgJzIwMCcsICctaW1hZScsICc8aW5maWxlLm1hZT4nLCAnLW9tYWUnLCAnPG91dGZpbGUubWFlPic=

>  <r_lp_tautomer_probability>  (38) 
1

>  <r_epik_Ionization_Penalty>  (38) 
4.3585e-06

>  <r_epik_Ionization_Penalty_Charging>  (38) 
0

>  <r_epik_Ionization_Penalty_Neutral>  (38) 
4.3585e-06

>  <r_epik_State_Penalty>  (38) 
-0

>  <r_epik_Charging_Adjusted_Penalty>  (38) 
0

>  <i_epik_Tot_Q>  (38) 
0

>  <i_epik_Tot_abs_Q>  (38) 
0

>  <s_epik_Chemistry_Notes>  (38) 
This compound has an imine and may undergo hydrolysis.

>  <s_lp_Force_Field>  (38) 
OPLS3e

>  <r_lp_Energy>  (38) 
118.033

>  <b_lp_Chiralities_Consistent>  (38) 
1

>  <s_lp_Variant>  (38) 
9:0-1

>  <s_i_glide_gridfile>  (38) 
pfpi4k_grid

>  <i_i_glide_lignum>  (38) 
14

>  <i_i_glide_rotatable_bonds>  (38) 
4

>  <r_i_docking_score>  (38) 
-2.15778

>  <r_i_glide_ligand_efficiency>  (38) 
-0.0616509

>  <r_i_glide_ligand_efficiency_sa>  (38) 
-0.201664

>  <r_i_glide_ligand_efficiency_ln>  (38) 
-0.473681

>  <r_i_glide_gscore>  (38) 
-2.15778

>  <r_i_glide_lipo>  (38) 
-0.0659408

>  <r_i_glide_hbond>  (38) 
0

>  <r_i_glide_metal>  (38) 
-0

>  <r_i_glide_rewards>  (38) 
-0.0580909

>  <r_i_glide_evdw>  (38) 
-34.9832

>  <r_i_glide_ecoul>  (38) 
-1.96217

>  <r_i_glide_erotb>  (38) 
0.0811535

>  <r_i_glide_esite>  (38) 
-0.0714176

>  <r_i_glide_emodel>  (38) 
-41.5186

>  <r_i_glide_energy>  (38) 
-36.9454

>  <r_i_glide_einternal>  (38) 
0.71307

>  <r_i_glide_intrahb_reward>  (38) 
-0

>  <i_i_glide_confnum>  (38) 
1

>  <i_i_glide_posenum>  (38) 
18

>  <r_i_glide_eff_state_penalty>  (38) 
0

>  <ligand_id>  (38) 
9

>  <original_smiles>  (38) 
CC1(C)C(O)CCC2(C)C3C(O)CC4C(C)(CCC12)C3CC1OC2CC(N=C=S)CC2CC14C=O

>  <smiles>  (38) 
[H]OC1([H])C([H])([H])C2([H])C3(C([H])=O)C([H])([H])C4([H])C([H])([H])C([H])(N=C=S)C([H])([H])C4([H])OC3([H])C([H])([H])C3([H])C1([H])C1(C([H])([H])[H])C([H])([H])C([H])([H])C([H])(O[H])C(C([H])([H])[H])(C([H])([H])[H])C1([H])C([H])([H])C([H])([H])C32C([H])([H])[H]

$$$$
9:0:2
     RDKit          3D

 78 83  0  0  1  0  0  0  0  0999 V2000
    0.6385   -9.1358    5.2761 C   0  0  0  0  0  0  0  0  0  0  0  0
    1.1373   -8.5069    3.9424 C   0  0  0  0  0  0  0  0  0  0  0  0
    2.0527   -9.6191    3.3501 C   0  0  0  0  0  0  0  0  0  0  0  0
   -0.0803   -8.3077    2.9853 C   0  0  1  0  0  0  0  0  0  0  0  0
   -1.1422   -7.5988    3.6069 O   0  0  0  0  0  0  0  0  0  0  0  0
    0.2754   -7.5797    1.6882 C   0  0  0  0  0  0  0  0  0  0  0  0
    1.0119   -6.2597    1.9425 C   0  0  0  0  0  0  0  0  0  0  0  0
    2.2934   -6.3577    2.8261 C   0  0  1  0  0  0  0  0  0  0  0  0
    3.3567   -7.1270    1.9797 C   0  0  0  0  0  0  0  0  0  0  0  0
    2.9059   -4.9062    3.0515 C   0  0  2  0  0  0  0  0  0  0  0  0
    4.3549   -4.8980    3.6747 C   0  0  1  0  0  0  0  0  0  0  0  0
    5.3312   -4.7099    2.6510 O   0  0  0  0  0  0  0  0  0  0  0  0
    4.6893   -3.9215    4.8535 C   0  0  0  0  0  0  0  0  0  0  0  0
    3.5537   -2.9620    5.3619 C   0  0  2  0  0  0  0  0  0  0  0  0
    2.1810   -3.7411    5.2200 C   0  0  2  0  0  0  0  0  0  0  0  0
    0.9430   -3.0879    5.9116 C   0  0  0  0  0  0  0  0  0  0  0  0
    2.2202   -5.1619    5.8894 C   0  0  0  0  0  0  0  0  0  0  0  0
    1.2971   -6.2375    5.2692 C   0  0  0  0  0  0  0  0  0  0  0  0
    1.9416   -7.1420    4.1650 C   0  0  1  0  0  0  0  0  0  0  0  0
    1.9498   -3.8568    3.6982 C   0  0  1  0  0  0  0  0  0  0  0  0
    1.9933   -2.4763    2.9791 C   0  0  0  0  0  0  0  0  0  0  0  0
    3.3071   -1.7028    3.1908 C   0  0  1  0  0  0  0  0  0  0  0  0
    3.3277   -0.4917    2.4408 O   0  0  0  0  0  0  0  0  0  0  0  0
    2.6610    0.6660    2.9351 C   0  0  1  0  0  0  0  0  0  0  0  0
    1.3283    0.9384    2.2342 C   0  0  0  0  0  0  0  0  0  0  0  0
    0.5898    1.8403    3.2143 C   0  0  1  0  0  0  0  0  0  0  0  0
   -0.8301    1.7626    3.0281 N   0  0  0  0  0  0  0  0  0  0  0  0
   -1.8045    2.4851    2.9176 C   0  0  0  0  0  0  0  0  0  0  0  0
   -3.1374    3.3520    2.8830 S   0  0  0  0  0  0  0  0  0  0  0  0
    1.0005    1.3350    4.5974 C   0  0  0  0  0  0  0  0  0  0  0  0
    2.4506    0.8147    4.4568 C   0  0  1  0  0  0  0  0  0  0  0  0
    2.6789   -0.4636    5.2885 C   0  0  0  0  0  0  0  0  0  0  0  0
    3.6429   -1.5197    4.6826 C   0  0  1  0  0  0  0  0  0  0  0  0
    5.0660   -0.9334    4.8739 C   0  0  0  0  0  0  0  0  0  0  0  0
    5.5866   -0.1301    4.0800 O   0  0  0  0  0  0  0  0  0  0  0  0
    0.2133  -10.1279    5.1220 H   0  0  0  0  0  0  0  0  0  0  0  0
   -0.1498   -8.5592    5.7543 H   0  0  0  0  0  0  0  0  0  0  0  0
    1.4520   -9.2460    5.9928 H   0  0  0  0  0  0  0  0  0  0  0  0
    2.1089   -9.6028    2.2677 H   0  0  0  0  0  0  0  0  0  0  0  0
    1.6857  -10.6211    3.5771 H   0  0  0  0  0  0  0  0  0  0  0  0
    3.0686   -9.5654    3.7380 H   0  0  0  0  0  0  0  0  0  0  0  0
   -0.4873   -9.2878    2.7310 H   0  0  0  0  0  0  0  0  0  0  0  0
   -1.4798   -8.1530    4.2863 H   0  0  0  0  0  0  0  0  0  0  0  0
    0.8715   -8.2260    1.0582 H   0  0  0  0  0  0  0  0  0  0  0  0
   -0.6312   -7.3953    1.1159 H   0  0  0  0  0  0  0  0  0  0  0  0
    1.2665   -5.8064    0.9842 H   0  0  0  0  0  0  0  0  0  0  0  0
    0.2655   -5.6254    2.4060 H   0  0  0  0  0  0  0  0  0  0  0  0
    4.1258   -7.5843    2.6000 H   0  0  0  0  0  0  0  0  0  0  0  0
    3.8617   -6.4750    1.2676 H   0  0  0  0  0  0  0  0  0  0  0  0
    2.9485   -7.9162    1.3600 H   0  0  0  0  0  0  0  0  0  0  0  0
    3.0278   -4.5334    2.0359 H   0  0  0  0  0  0  0  0  0  0  0  0
    4.5573   -5.8956    4.0638 H   0  0  0  0  0  0  0  0  0  0  0  0
    5.2043   -3.8705    2.2563 H   0  0  0  0  0  0  0  0  0  0  0  0
    5.0105   -4.5383    5.6977 H   0  0  0  0  0  0  0  0  0  0  0  0
    5.6114   -3.4014    4.6220 H   0  0  0  0  0  0  0  0  0  0  0  0
    3.7334   -2.8101    6.4223 H   0  0  0  0  0  0  0  0  0  0  0  0
    0.1792   -3.8158    6.1851 H   0  0  0  0  0  0  0  0  0  0  0  0
    0.3967   -2.4050    5.2686 H   0  0  0  0  0  0  0  0  0  0  0  0
    1.2273   -2.5739    6.8313 H   0  0  0  0  0  0  0  0  0  0  0  0
    3.2080   -5.6028    5.9609 H   0  0  0  0  0  0  0  0  0  0  0  0
    1.9595   -5.0427    6.9445 H   0  0  0  0  0  0  0  0  0  0  0  0
    1.0622   -6.8456    6.1320 H   0  0  0  0  0  0  0  0  0  0  0  0
    0.3438   -5.8240    4.9466 H   0  0  0  0  0  0  0  0  0  0  0  0
    2.8914   -7.4505    4.6028 H   0  0  0  0  0  0  0  0  0  0  0  0
    0.9207   -4.1539    3.5775 H   0  0  0  0  0  0  0  0  0  0  0  0
    1.8251   -2.6027    1.9106 H   0  0  0  0  0  0  0  0  0  0  0  0
    1.1578   -1.8590    3.3139 H   0  0  0  0  0  0  0  0  0  0  0  0
    4.1014   -2.2907    2.7418 H   0  0  0  0  0  0  0  0  0  0  0  0
    3.3199    1.4860    2.6562 H   0  0  0  0  0  0  0  0  0  0  0  0
    1.4730    1.4191    1.2667 H   0  0  0  0  0  0  0  0  0  0  0  0
    0.7839    0.0109    2.0591 H   0  0  0  0  0  0  0  0  0  0  0  0
    0.9353    2.8677    3.0931 H   0  0  0  0  0  0  0  0  0  0  0  0
    0.9023    2.1122    5.3560 H   0  0  0  0  0  0  0  0  0  0  0  0
    0.3198    0.5364    4.8815 H   0  0  0  0  0  0  0  0  0  0  0  0
    3.1364    1.5948    4.8170 H   0  0  0  0  0  0  0  0  0  0  0  0
    3.0250   -0.1808    6.2796 H   0  0  0  0  0  0  0  0  0  0  0  0
    1.6950   -0.8727    5.4665 H   0  0  0  0  0  0  0  0  0  0  0  0
    5.6122   -1.2636    5.7571 H   0  0  0  0  0  0  0  0  0  0  0  0
  1  2  1  0
  1 36  1  0
  1 37  1  0
  1 38  1  0
  2 19  1  0
  2  3  1  0
  2  4  1  0
  3 39  1  0
  3 40  1  0
  3 41  1  0
  4  5  1  0
  4  6  1  0
  4 42  1  6
  5 43  1  0
  6  7  1  0
  6 44  1  0
  6 45  1  0
  7  8  1  0
  7 46  1  0
  7 47  1  0
  8 19  1  0
  8  9  1  6
  8 10  1  0
  9 48  1  0
  9 49  1  0
  9 50  1  0
 10 20  1  0
 10 11  1  0
 10 51  1  6
 11 12  1  0
 11 13  1  0
 11 52  1  1
 12 53  1  0
 13 14  1  0
 13 54  1  0
 13 55  1  0
 14 33  1  0
 14 15  1  0
 14 56  1  1
 15 16  1  1
 15 17  1  0
 15 20  1  0
 16 57  1  0
 16 58  1  0
 16 59  1  0
 17 18  1  0
 17 60  1  0
 17 61  1  0
 18 19  1  0
 18 62  1  0
 18 63  1  0
 19 64  1  1
 20 21  1  0
 20 65  1  1
 21 22  1  0
 21 66  1  0
 21 67  1  0
 22 33  1  0
 22 23  1  0
 22 68  1  6
 23 24  1  0
 24 31  1  0
 24 25  1  0
 24 69  1  6
 25 26  1  0
 25 70  1  0
 25 71  1  0
 26 27  1  0
 26 30  1  0
 26 72  1  1
 27 28  2  0
 28 29  2  0
 30 31  1  0
 30 73  1  0
 30 74  1  0
 31 32  1  0
 31 75  1  1
 32 33  1  0
 32 76  1  0
 32 77  1  0
 33 34  1  6
 34 35  2  0
 34 78  1  0
M  END
>  <i_m_ct_stereo_status>  (39) 
1

>  <s_m_source_file>  (39) 
/var/tmp/pbs.5076255.sched01/tmp4ovtozgc/0905bh7x9.sdf

>  <i_m_source_file_index>  (39) 
14

>  <i_lp_mmshare_version>  (39) 
48012

>  <i_f3d_flags>  (39) 
0

>  <s_epik_input>  (39) 
W0NIMl0xW0NIMl1bQ0BIXShbT0hdKUMoW0NIM10pKFtDSDNdKVtDQEBIXTJbQ0gyXVtDSDJdW0NAXShbQ0gzXSkoW0NAQEhdM1tDSF00W0NAXTEyW0NIM10pW0NAQEhdKFtDSDJdW0NAQEhdNFtPSF0pW0NAQF01KFtDSF09TylbQ0BASF0oW0NIMl0zKU9bQ0BASF02W0NASF0oW0NIMl01KVtDSDJdW0NAQEhdKFtDSDJdNilOPUM9Uw==

>  <s_epik_cmdline>  (39) 
J2VwaWtfcHl0aG9uJywgJy1waHQnLCAnMi4wJywgJy1waCcsICc3LjAnLCAnLXRuJywgJzgnLCAnLW1hJywgJzIwMCcsICctaW1hZScsICc8aW5maWxlLm1hZT4nLCAnLW9tYWUnLCAnPG91dGZpbGUubWFlPic=

>  <r_lp_tautomer_probability>  (39) 
1

>  <r_epik_Ionization_Penalty>  (39) 
4.3585e-06

>  <r_epik_Ionization_Penalty_Charging>  (39) 
0

>  <r_epik_Ionization_Penalty_Neutral>  (39) 
4.3585e-06

>  <r_epik_State_Penalty>  (39) 
-0

>  <r_epik_Charging_Adjusted_Penalty>  (39) 
0

>  <i_epik_Tot_Q>  (39) 
0

>  <i_epik_Tot_abs_Q>  (39) 
0

>  <s_epik_Chemistry_Notes>  (39) 
This compound has an imine and may undergo hydrolysis.

>  <s_lp_Force_Field>  (39) 
OPLS3e

>  <r_lp_Energy>  (39) 
118.033

>  <b_lp_Chiralities_Consistent>  (39) 
1

>  <s_lp_Variant>  (39) 
9:0-1

>  <s_i_glide_gridfile>  (39) 
pfpi4k_grid

>  <i_i_glide_lignum>  (39) 
14

>  <i_i_glide_rotatable_bonds>  (39) 
4

>  <r_i_docking_score>  (39) 
-2.11995

>  <r_i_glide_ligand_efficiency>  (39) 
-0.0605699

>  <r_i_glide_ligand_efficiency_sa>  (39) 
-0.198128

>  <r_i_glide_ligand_efficiency_ln>  (39) 
-0.465375

>  <r_i_glide_gscore>  (39) 
-2.11995

>  <r_i_glide_lipo>  (39) 
-0.045704

>  <r_i_glide_hbond>  (39) 
0

>  <r_i_glide_metal>  (39) 
-0

>  <r_i_glide_rewards>  (39) 
-0.0657254

>  <r_i_glide_evdw>  (39) 
-35.8892

>  <r_i_glide_ecoul>  (39) 
-1.53397

>  <r_i_glide_erotb>  (39) 
0.0811535

>  <r_i_glide_esite>  (39) 
-0.065113

>  <r_i_glide_emodel>  (39) 
-41.8368

>  <r_i_glide_energy>  (39) 
-37.4232

>  <r_i_glide_einternal>  (39) 
0.884975

>  <r_i_glide_intrahb_reward>  (39) 
-0

>  <i_i_glide_confnum>  (39) 
1

>  <i_i_glide_posenum>  (39) 
21

>  <r_i_glide_eff_state_penalty>  (39) 
0

>  <ligand_id>  (39) 
9

>  <original_smiles>  (39) 
CC1(C)C(O)CCC2(C)C3C(O)CC4C(C)(CCC12)C3CC1OC2CC(N=C=S)CC2CC14C=O

>  <smiles>  (39) 
[H]OC1([H])C([H])([H])C2([H])C3(C([H])=O)C([H])([H])C4([H])C([H])([H])C([H])(N=C=S)C([H])([H])C4([H])OC3([H])C([H])([H])C3([H])C1([H])C1(C([H])([H])[H])C([H])([H])C([H])([H])C([H])(O[H])C(C([H])([H])[H])(C([H])([H])[H])C1([H])C([H])([H])C([H])([H])C32C([H])([H])[H]

$$$$
10:0:0
     RDKit          3D

 31 33  0  0  1  0  0  0  0  0999 V2000
   -3.3091    3.2845   10.0589 C   0  0  0  0  0  0  0  0  0  0  0  0
   -1.9484    2.6004    9.9389 C   0  0  2  0  0  0  0  0  0  0  0  0
   -0.7452    3.5836    9.8880 C   0  0  0  0  0  0  0  0  0  0  0  0
   -0.4822    3.5350    8.4124 C   0  0  1  0  0  0  0  0  0  0  0  0
    0.8361    3.8303    7.6991 C   0  0  0  0  0  0  0  0  0  0  0  0
    0.5446    3.1084    6.3788 C   0  0  0  0  0  0  0  0  0  0  0  0
   -0.5076    2.0947    6.7181 N   0  0  0  0  0  0  0  0  0  0  0  0
   -1.1442    1.1946    5.8105 C   0  0  0  0  0  0  0  0  0  0  0  0
   -1.8941    0.3203    6.2362 O   0  0  0  0  0  0  0  0  0  0  0  0
   -0.7359    1.3387    4.3491 C   0  0  0  0  0  0  0  0  0  0  0  0
   -0.5568    2.4823    3.6213 C   0  0  0  0  0  0  0  0  0  0  0  0
   -0.0665    2.0876    2.3943 N   0  0  0  0  0  0  0  0  0  0  0  0
   -0.0871    0.7599    2.3553 C   0  0  0  0  0  0  0  0  0  0  0  0
   -0.4820    0.2271    3.5110 N   0  0  0  0  0  0  0  0  0  0  0  0
   -0.6896    2.0726    8.1933 C   0  0  2  0  0  0  0  0  0  0  0  0
   -1.9503    1.8689    8.6878 O   0  0  0  0  0  0  0  0  0  0  0  0
    0.1935    2.7200    1.6385 H   0  0  0  0  0  0  0  0  0  0  0  0
   -3.3580    3.8368   10.9979 H   0  0  0  0  0  0  0  0  0  0  0  0
   -4.1050    2.5374   10.0506 H   0  0  0  0  0  0  0  0  0  0  0  0
   -3.4666    3.9768    9.2311 H   0  0  0  0  0  0  0  0  0  0  0  0
   -1.7953    1.9087   10.7683 H   0  0  0  0  0  0  0  0  0  0  0  0
   -0.9685    4.5843   10.2662 H   0  0  0  0  0  0  0  0  0  0  0  0
    0.1310    3.1918   10.3977 H   0  0  0  0  0  0  0  0  0  0  0  0
   -1.3053    4.0663    7.9173 H   0  0  0  0  0  0  0  0  0  0  0  0
    0.9787    4.8883    7.4945 H   0  0  0  0  0  0  0  0  0  0  0  0
    1.6901    3.4487    8.2453 H   0  0  0  0  0  0  0  0  0  0  0  0
    0.1571    3.8515    5.7033 H   0  0  0  0  0  0  0  0  0  0  0  0
    1.4412    2.6395    5.9634 H   0  0  0  0  0  0  0  0  0  0  0  0
   -0.6703    3.5344    3.8714 H   0  0  0  0  0  0  0  0  0  0  0  0
    0.1485    0.1708    1.4654 H   0  0  0  0  0  0  0  0  0  0  0  0
    0.0929    1.4331    8.6124 H   0  0  0  0  0  0  0  0  0  0  0  0
  1  2  1  0
  1 18  1  0
  1 19  1  0
  1 20  1  0
  2 16  1  0
  2  3  1  0
  2 21  1  1
  3  4  1  0
  3 22  1  0
  3 23  1  0
  4 15  1  0
  4  5  1  0
  4 24  1  6
  5  6  1  0
  5 25  1  0
  5 26  1  0
  6  7  1  0
  6 27  1  0
  6 28  1  0
  7  8  1  0
  7 15  1  0
  8  9  2  0
  8 10  1  0
 10 14  1  0
 10 11  2  0
 11 12  1  0
 11 29  1  0
 12 17  1  0
 12 13  1  0
 13 14  2  0
 13 30  1  0
 15 16  1  0
 15 31  1  1
M  END
>  <i_m_ct_stereo_status>  (40) 
1

>  <s_m_source_file>  (40) 
/var/tmp/pbs.5076255.sched01/tmp4ovtozgc/0905bh7x9.sdf

>  <i_m_source_file_index>  (40) 
15

>  <i_lp_mmshare_version>  (40) 
48012

>  <i_f3d_flags>  (40) 
0

>  <s_epik_input>  (40) 
W0NIM11bQ0BIXShbQ0gyXTEpT1tDQEhdKFtDQEBIXTEyKU4oW0NIMl1bQ0gyXTIpQyg9TyljM1tjSF1bbkhdW2NIXW4z

>  <s_epik_cmdline>  (40) 
J2VwaWtfcHl0aG9uJywgJy1waHQnLCAnMi4wJywgJy1waCcsICc3LjAnLCAnLXRuJywgJzgnLCAnLW1hJywgJzIwMCcsICctaW1hZScsICc8aW5maWxlLm1hZT4nLCAnLW9tYWUnLCAnPG91dGZpbGUubWFlPic=

>  <r_lp_tautomer_probability>  (40) 
0.5

>  <r_epik_Ionization_Penalty>  (40) 
0.000949031

>  <r_epik_Ionization_Penalty_Charging>  (40) 
0.000946144

>  <r_epik_Ionization_Penalty_Neutral>  (40) 
2.88714e-06

>  <r_epik_State_Penalty>  (40) 
0.0331946

>  <r_epik_Charging_Adjusted_Penalty>  (40) 
0.0341407

>  <i_epik_Tot_Q>  (40) 
0

>  <i_epik_Tot_abs_Q>  (40) 
0

>  <s_epik_Chemistry_Notes>  (40) 
This compound contains an acetal/aminal-like group ( X-CH(R)-Y where X, Y are N, S, or O) that may be acid/base labile, releasing an aldehyde.

>  <s_lp_Force_Field>  (40) 
OPLS3e

>  <r_lp_Energy>  (40) 
24.5726

>  <b_lp_Chiralities_Consistent>  (40) 
1

>  <s_lp_Variant>  (40) 
10:0-1

>  <s_i_glide_gridfile>  (40) 
pfpi4k_grid

>  <i_i_glide_lignum>  (40) 
15

>  <i_i_glide_rotatable_bonds>  (40) 
2

>  <r_i_docking_score>  (40) 
-3.38492

>  <r_i_glide_ligand_efficiency>  (40) 
-0.211557

>  <r_i_glide_ligand_efficiency_sa>  (40) 
-0.533091

>  <r_i_glide_ligand_efficiency_ln>  (40) 
-0.89724

>  <r_i_glide_gscore>  (40) 
-3.38492

>  <r_i_glide_lipo>  (40) 
0

>  <r_i_glide_hbond>  (40) 
-0.32

>  <r_i_glide_metal>  (40) 
-0

>  <r_i_glide_rewards>  (40) 
-1.90053

>  <r_i_glide_evdw>  (40) 
-15.5431

>  <r_i_glide_ecoul>  (40) 
-5.82599

>  <r_i_glide_erotb>  (40) 
0.689367

>  <r_i_glide_esite>  (40) 
-0.202702

>  <r_i_glide_emodel>  (40) 
-25.1055

>  <r_i_glide_energy>  (40) 
-21.3691

>  <r_i_glide_einternal>  (40) 
3.5352

>  <r_i_glide_intrahb_reward>  (40) 
-0

>  <i_i_glide_confnum>  (40) 
5

>  <i_i_glide_posenum>  (40) 
9

>  <r_i_glide_eff_state_penalty>  (40) 
0

>  <ligand_id>  (40) 
10

>  <original_smiles>  (40) 
CC1CC2CCN(C(=O)c3c[nH]cn3)C2O1

>  <smiles>  (40) 
[H]c1nc(C(=O)N2C([H])([H])C([H])([H])C3([H])C2([H])OC([H])(C([H])([H])[H])C3([H])[H])c([H])n1[H]

$$$$
10:0:1
     RDKit          3D

 31 33  0  0  1  0  0  0  0  0999 V2000
   -1.4932   -7.8937    3.6709 C   0  0  0  0  0  0  0  0  0  0  0  0
   -0.6888   -8.4659    2.5027 C   0  0  2  0  0  0  0  0  0  0  0  0
    0.2168   -9.6708    2.8902 C   0  0  0  0  0  0  0  0  0  0  0  0
    1.5274   -8.9413    2.9992 C   0  0  1  0  0  0  0  0  0  0  0  0
    2.9239   -9.5108    2.8471 C   0  0  0  0  0  0  0  0  0  0  0  0
    3.6901   -8.2459    2.4412 C   0  0  0  0  0  0  0  0  0  0  0  0
    2.6481   -7.3371    1.8755 N   0  0  0  0  0  0  0  0  0  0  0  0
    2.8462   -6.0169    1.4306 C   0  0  0  0  0  0  0  0  0  0  0  0
    1.8787   -5.3116    1.1386 O   0  0  0  0  0  0  0  0  0  0  0  0
    4.2693   -5.5216    1.3478 C   0  0  0  0  0  0  0  0  0  0  0  0
    5.3409   -6.1942    0.8088 C   0  0  0  0  0  0  0  0  0  0  0  0
    6.4458   -5.3769    0.9794 N   0  0  0  0  0  0  0  0  0  0  0  0
    6.0165   -4.2578    1.5270 C   0  0  0  0  0  0  0  0  0  0  0  0
    4.7056   -4.2602    1.7792 N   0  0  0  0  0  0  0  0  0  0  0  0
    1.3805   -8.0705    1.7933 C   0  0  2  0  0  0  0  0  0  0  0  0
    0.1898   -7.4091    2.0496 O   0  0  0  0  0  0  0  0  0  0  0  0
    7.3974   -5.6138    0.7235 H   0  0  0  0  0  0  0  0  0  0  0  0
   -2.1767   -8.6470    4.0694 H   0  0  0  0  0  0  0  0  0  0  0  0
   -2.0804   -7.0296    3.3490 H   0  0  0  0  0  0  0  0  0  0  0  0
   -0.8265   -7.5725    4.4752 H   0  0  0  0  0  0  0  0  0  0  0  0
   -1.3566   -8.7653    1.6981 H   0  0  0  0  0  0  0  0  0  0  0  0
   -0.0775  -10.1689    3.8173 H   0  0  0  0  0  0  0  0  0  0  0  0
    0.2616  -10.4150    2.0929 H   0  0  0  0  0  0  0  0  0  0  0  0
    1.4940   -8.3054    3.8810 H   0  0  0  0  0  0  0  0  0  0  0  0
    3.3250   -9.9820    3.7384 H   0  0  0  0  0  0  0  0  0  0  0  0
    2.9598  -10.2375    2.0361 H   0  0  0  0  0  0  0  0  0  0  0  0
    4.1696   -7.7621    3.2944 H   0  0  0  0  0  0  0  0  0  0  0  0
    4.4516   -8.5665    1.7313 H   0  0  0  0  0  0  0  0  0  0  0  0
    5.4005   -7.1791    0.3530 H   0  0  0  0  0  0  0  0  0  0  0  0
    6.6596   -3.4095    1.7285 H   0  0  0  0  0  0  0  0  0  0  0  0
    1.4093   -8.6032    0.8448 H   0  0  0  0  0  0  0  0  0  0  0  0
  1  2  1  0
  1 18  1  0
  1 19  1  0
  1 20  1  0
  2 16  1  0
  2  3  1  0
  2 21  1  6
  3  4  1  0
  3 22  1  0
  3 23  1  0
  4 15  1  0
  4  5  1  0
  4 24  1  1
  5  6  1  0
  5 25  1  0
  5 26  1  0
  6  7  1  0
  6 27  1  0
  6 28  1  0
  7  8  1  0
  7 15  1  0
  8  9  2  0
  8 10  1  0
 10 14  1  0
 10 11  2  0
 11 12  1  0
 11 29  1  0
 12 17  1  0
 12 13  1  0
 13 14  2  0
 13 30  1  0
 15 16  1  0
 15 31  1  6
M  END
>  <i_m_ct_stereo_status>  (41) 
1

>  <s_m_source_file>  (41) 
/var/tmp/pbs.5076255.sched01/tmp4ovtozgc/0905bh7x9.sdf

>  <i_m_source_file_index>  (41) 
15

>  <i_lp_mmshare_version>  (41) 
48012

>  <i_f3d_flags>  (41) 
0

>  <s_epik_input>  (41) 
W0NIM11bQ0BIXShbQ0gyXTEpT1tDQEhdKFtDQEBIXTEyKU4oW0NIMl1bQ0gyXTIpQyg9TyljM1tjSF1bbkhdW2NIXW4z

>  <s_epik_cmdline>  (41) 
J2VwaWtfcHl0aG9uJywgJy1waHQnLCAnMi4wJywgJy1waCcsICc3LjAnLCAnLXRuJywgJzgnLCAnLW1hJywgJzIwMCcsICctaW1hZScsICc8aW5maWxlLm1hZT4nLCAnLW9tYWUnLCAnPG91dGZpbGUubWFlPic=

>  <r_lp_tautomer_probability>  (41) 
0.5

>  <r_epik_Ionization_Penalty>  (41) 
0.000949031

>  <r_epik_Ionization_Penalty_Charging>  (41) 
0.000946144

>  <r_epik_Ionization_Penalty_Neutral>  (41) 
2.88714e-06

>  <r_epik_State_Penalty>  (41) 
0.0331946

>  <r_epik_Charging_Adjusted_Penalty>  (41) 
0.0341407

>  <i_epik_Tot_Q>  (41) 
0

>  <i_epik_Tot_abs_Q>  (41) 
0

>  <s_epik_Chemistry_Notes>  (41) 
This compound contains an acetal/aminal-like group ( X-CH(R)-Y where X, Y are N, S, or O) that may be acid/base labile, releasing an aldehyde.

>  <s_lp_Force_Field>  (41) 
OPLS3e

>  <r_lp_Energy>  (41) 
24.5726

>  <b_lp_Chiralities_Consistent>  (41) 
1

>  <s_lp_Variant>  (41) 
10:0-1

>  <s_i_glide_gridfile>  (41) 
pfpi4k_grid

>  <i_i_glide_lignum>  (41) 
15

>  <i_i_glide_rotatable_bonds>  (41) 
2

>  <r_i_docking_score>  (41) 
-2.84503

>  <r_i_glide_ligand_efficiency>  (41) 
-0.177814

>  <r_i_glide_ligand_efficiency_sa>  (41) 
-0.448064

>  <r_i_glide_ligand_efficiency_ln>  (41) 
-0.754132

>  <r_i_glide_gscore>  (41) 
-2.84503

>  <r_i_glide_lipo>  (41) 
-0.142952

>  <r_i_glide_hbond>  (41) 
-0.0757683

>  <r_i_glide_metal>  (41) 
-0

>  <r_i_glide_rewards>  (41) 
-1.99382

>  <r_i_glide_evdw>  (41) 
-20.1571

>  <r_i_glide_ecoul>  (41) 
-1.82892

>  <r_i_glide_erotb>  (41) 
0.689367

>  <r_i_glide_esite>  (41) 
-0.0396636

>  <r_i_glide_emodel>  (41) 
-25.4875

>  <r_i_glide_energy>  (41) 
-21.986

>  <r_i_glide_einternal>  (41) 
3.1169

>  <r_i_glide_intrahb_reward>  (41) 
-0

>  <i_i_glide_confnum>  (41) 
5

>  <i_i_glide_posenum>  (41) 
32

>  <r_i_glide_eff_state_penalty>  (41) 
0

>  <ligand_id>  (41) 
10

>  <original_smiles>  (41) 
CC1CC2CCN(C(=O)c3c[nH]cn3)C2O1

>  <smiles>  (41) 
[H]c1nc(C(=O)N2C([H])([H])C([H])([H])C3([H])C2([H])OC([H])(C([H])([H])[H])C3([H])[H])c([H])n1[H]

$$$$
10:0:2
     RDKit          3D

 31 33  0  0  1  0  0  0  0  0999 V2000
   -1.5259   -7.9723    3.9369 C   0  0  0  0  0  0  0  0  0  0  0  0
   -0.7309   -8.7359    2.8817 C   0  0  2  0  0  0  0  0  0  0  0  0
    0.2044   -9.8324    3.4471 C   0  0  0  0  0  0  0  0  0  0  0  0
    1.4958   -9.0852    3.3840 C   0  0  1  0  0  0  0  0  0  0  0  0
    2.8832   -9.6839    3.2908 C   0  0  0  0  0  0  0  0  0  0  0  0
    3.5928   -8.4426    2.7341 C   0  0  0  0  0  0  0  0  0  0  0  0
    2.5805   -7.6187    2.0583 N   0  0  0  0  0  0  0  0  0  0  0  0
    2.7911   -6.4036    1.4039 C   0  0  0  0  0  0  0  0  0  0  0  0
    1.8185   -5.8125    0.9315 O   0  0  0  0  0  0  0  0  0  0  0  0
    4.2024   -5.8699    1.2807 C   0  0  0  0  0  0  0  0  0  0  0  0
    5.3385   -6.1784    2.0097 C   0  0  0  0  0  0  0  0  0  0  0  0
    6.3944   -5.5117    1.4101 N   0  0  0  0  0  0  0  0  0  0  0  0
    5.9332   -4.7894    0.4005 C   0  0  0  0  0  0  0  0  0  0  0  0
    4.6177   -4.9839    0.2723 N   0  0  0  0  0  0  0  0  0  0  0  0
    1.3287   -8.4027    2.0700 C   0  0  2  0  0  0  0  0  0  0  0  0
    0.1205   -7.7638    2.2405 O   0  0  0  0  0  0  0  0  0  0  0  0
    7.3825   -5.5496    1.6828 H   0  0  0  0  0  0  0  0  0  0  0  0
   -2.1768   -8.6685    4.4615 H   0  0  0  0  0  0  0  0  0  0  0  0
   -2.1390   -7.1986    3.4719 H   0  0  0  0  0  0  0  0  0  0  0  0
   -0.8512   -7.5126    4.6600 H   0  0  0  0  0  0  0  0  0  0  0  0
   -1.3815   -9.1786    2.1332 H   0  0  0  0  0  0  0  0  0  0  0  0
   -0.0471  -10.1649    4.4606 H   0  0  0  0  0  0  0  0  0  0  0  0
    0.2779  -10.6993    2.7912 H   0  0  0  0  0  0  0  0  0  0  0  0
    1.4718   -8.3177    4.1585 H   0  0  0  0  0  0  0  0  0  0  0  0
    3.3158   -9.9564    4.2491 H   0  0  0  0  0  0  0  0  0  0  0  0
    2.9404  -10.5670    2.6323 H   0  0  0  0  0  0  0  0  0  0  0  0
    3.9705   -7.8858    3.5642 H   0  0  0  0  0  0  0  0  0  0  0  0
    4.4021   -8.7621    2.0950 H   0  0  0  0  0  0  0  0  0  0  0  0
    5.5099   -6.7543    2.8901 H   0  0  0  0  0  0  0  0  0  0  0  0
    6.5351   -4.1455   -0.2540 H   0  0  0  0  0  0  0  0  0  0  0  0
    1.3619   -9.0911    1.2339 H   0  0  0  0  0  0  0  0  0  0  0  0
  1  2  1  0
  1 18  1  0
  1 19  1  0
  1 20  1  0
  2 16  1  0
  2  3  1  0
  2 21  1  6
  3  4  1  0
  3 22  1  0
  3 23  1  0
  4 15  1  0
  4  5  1  0
  4 24  1  1
  5  6  1  0
  5 25  1  0
  5 26  1  0
  6  7  1  0
  6 27  1  0
  6 28  1  0
  7  8  1  0
  7 15  1  0
  8  9  2  0
  8 10  1  0
 10 14  1  0
 10 11  2  0
 11 12  1  0
 11 29  1  0
 12 17  1  0
 12 13  1  0
 13 14  2  0
 13 30  1  0
 15 16  1  0
 15 31  1  6
M  END
>  <i_m_ct_stereo_status>  (42) 
1

>  <s_m_source_file>  (42) 
/var/tmp/pbs.5076255.sched01/tmp4ovtozgc/0905bh7x9.sdf

>  <i_m_source_file_index>  (42) 
15

>  <i_lp_mmshare_version>  (42) 
48012

>  <i_f3d_flags>  (42) 
0

>  <s_epik_input>  (42) 
W0NIM11bQ0BIXShbQ0gyXTEpT1tDQEhdKFtDQEBIXTEyKU4oW0NIMl1bQ0gyXTIpQyg9TyljM1tjSF1bbkhdW2NIXW4z

>  <s_epik_cmdline>  (42) 
J2VwaWtfcHl0aG9uJywgJy1waHQnLCAnMi4wJywgJy1waCcsICc3LjAnLCAnLXRuJywgJzgnLCAnLW1hJywgJzIwMCcsICctaW1hZScsICc8aW5maWxlLm1hZT4nLCAnLW9tYWUnLCAnPG91dGZpbGUubWFlPic=

>  <r_lp_tautomer_probability>  (42) 
0.5

>  <r_epik_Ionization_Penalty>  (42) 
0.000949031

>  <r_epik_Ionization_Penalty_Charging>  (42) 
0.000946144

>  <r_epik_Ionization_Penalty_Neutral>  (42) 
2.88714e-06

>  <r_epik_State_Penalty>  (42) 
0.0331946

>  <r_epik_Charging_Adjusted_Penalty>  (42) 
0.0341407

>  <i_epik_Tot_Q>  (42) 
0

>  <i_epik_Tot_abs_Q>  (42) 
0

>  <s_epik_Chemistry_Notes>  (42) 
This compound contains an acetal/aminal-like group ( X-CH(R)-Y where X, Y are N, S, or O) that may be acid/base labile, releasing an aldehyde.

>  <s_lp_Force_Field>  (42) 
OPLS3e

>  <r_lp_Energy>  (42) 
24.5726

>  <b_lp_Chiralities_Consistent>  (42) 
1

>  <s_lp_Variant>  (42) 
10:0-1

>  <s_i_glide_gridfile>  (42) 
pfpi4k_grid

>  <i_i_glide_lignum>  (42) 
15

>  <i_i_glide_rotatable_bonds>  (42) 
2

>  <r_i_docking_score>  (42) 
-2.84186

>  <r_i_glide_ligand_efficiency>  (42) 
-0.177616

>  <r_i_glide_ligand_efficiency_sa>  (42) 
-0.447565

>  <r_i_glide_ligand_efficiency_ln>  (42) 
-0.753291

>  <r_i_glide_gscore>  (42) 
-2.84186

>  <r_i_glide_lipo>  (42) 
-0.0857105

>  <r_i_glide_hbond>  (42) 
-0.0674369

>  <r_i_glide_metal>  (42) 
-0

>  <r_i_glide_rewards>  (42) 
-2.06347

>  <r_i_glide_evdw>  (42) 
-20.6023

>  <r_i_glide_ecoul>  (42) 
-1.65091

>  <r_i_glide_erotb>  (42) 
0.689367

>  <r_i_glide_esite>  (42) 
-0.0368539

>  <r_i_glide_emodel>  (42) 
-25.1506

>  <r_i_glide_energy>  (42) 
-22.2532

>  <r_i_glide_einternal>  (42) 
2.95614

>  <r_i_glide_intrahb_reward>  (42) 
-0

>  <i_i_glide_confnum>  (42) 
5

>  <i_i_glide_posenum>  (42) 
36

>  <r_i_glide_eff_state_penalty>  (42) 
0

>  <ligand_id>  (42) 
10

>  <original_smiles>  (42) 
CC1CC2CCN(C(=O)c3c[nH]cn3)C2O1

>  <smiles>  (42) 
[H]c1nc(C(=O)N2C([H])([H])C([H])([H])C3([H])C2([H])OC([H])(C([H])([H])[H])C3([H])[H])c([H])n1[H]

$$$$
10:1:0
     RDKit          3D

 31 33  0  0  1  0  0  0  0  0999 V2000
    2.8735   -3.0511   -3.3771 C   0  0  0  0  0  0  0  0  0  0  0  0
    3.0835   -2.6488   -1.9142 C   0  0  2  0  0  0  0  0  0  0  0  0
    4.5764   -2.5804   -1.4777 C   0  0  0  0  0  0  0  0  0  0  0  0
    4.6491   -3.8940   -0.7636 C   0  0  1  0  0  0  0  0  0  0  0  0
    5.6346   -4.2976    0.3104 C   0  0  0  0  0  0  0  0  0  0  0  0
    4.8318   -5.3978    1.0073 C   0  0  0  0  0  0  0  0  0  0  0  0
    3.4127   -5.1759    0.6223 N   0  0  0  0  0  0  0  0  0  0  0  0
    2.3521   -6.0446    0.9214 C   0  0  0  0  0  0  0  0  0  0  0  0
    1.2264   -5.8686    0.4781 O   0  0  0  0  0  0  0  0  0  0  0  0
    2.6102   -7.2618    1.7310 C   0  0  0  0  0  0  0  0  0  0  0  0
    3.5698   -7.6130    2.6589 C   0  0  0  0  0  0  0  0  0  0  0  0
    3.3343   -8.9047    3.1407 N   0  0  0  0  0  0  0  0  0  0  0  0
    2.2192   -9.3049    2.5119 C   0  0  0  0  0  0  0  0  0  0  0  0
    1.7525   -8.3593    1.6872 N   0  0  0  0  0  0  0  0  0  0  0  0
    3.3344   -3.8395   -0.0449 C   0  0  2  0  0  0  0  0  0  0  0  0
    2.4474   -3.6627   -1.0855 O   0  0  0  0  0  0  0  0  0  0  0  0
    0.9294   -8.4270    1.1101 H   0  0  0  0  0  0  0  0  0  0  0  0
    3.3120   -2.3061   -4.0367 H   0  0  0  0  0  0  0  0  0  0  0  0
    1.8034   -3.1294   -3.5946 H   0  0  0  0  0  0  0  0  0  0  0  0
    3.3359   -4.0206   -3.5819 H   0  0  0  0  0  0  0  0  0  0  0  0
    2.6062   -1.6902   -1.7258 H   0  0  0  0  0  0  0  0  0  0  0  0
    5.2735   -2.4955   -2.3086 H   0  0  0  0  0  0  0  0  0  0  0  0
    4.7508   -1.7615   -0.7795 H   0  0  0  0  0  0  0  0  0  0  0  0
    4.6144   -4.6793   -1.5222 H   0  0  0  0  0  0  0  0  0  0  0  0
    6.5917   -4.6414   -0.0566 H   0  0  0  0  0  0  0  0  0  0  0  0
    5.8162   -3.4812    1.0022 H   0  0  0  0  0  0  0  0  0  0  0  0
    5.1478   -6.3802    0.6640 H   0  0  0  0  0  0  0  0  0  0  0  0
    4.9762   -5.3236    2.0726 H   0  0  0  0  0  0  0  0  0  0  0  0
    4.4269   -7.0650    3.0439 H   0  0  0  0  0  0  0  0  0  0  0  0
    1.7619  -10.2603    2.6532 H   0  0  0  0  0  0  0  0  0  0  0  0
    3.2343   -3.0964    0.7408 H   0  0  0  0  0  0  0  0  0  0  0  0
  1  2  1  0
  1 18  1  0
  1 19  1  0
  1 20  1  0
  2 16  1  0
  2  3  1  0
  2 21  1  6
  3  4  1  0
  3 22  1  0
  3 23  1  0
  4 15  1  0
  4  5  1  0
  4 24  1  6
  5  6  1  0
  5 25  1  0
  5 26  1  0
  6  7  1  0
  6 27  1  0
  6 28  1  0
  7  8  1  0
  7 15  1  0
  8  9  2  0
  8 10  1  0
 10 11  2  0
 10 14  1  0
 11 29  1  0
 11 12  1  0
 12 13  2  0
 13 14  1  0
 13 30  1  0
 14 17  1  0
 15 16  1  0
 15 31  1  1
M  END
>  <i_m_ct_stereo_status>  (43) 
1

>  <s_m_source_file>  (43) 
/var/tmp/pbs.5076255.sched01/tmp4ovtozgc/0905bh7x9.sdf

>  <i_m_source_file_index>  (43) 
16

>  <i_lp_mmshare_version>  (43) 
48012

>  <i_f3d_flags>  (43) 
0

>  <s_epik_input>  (43) 
W0NIM11bQ0BIXShbQ0gyXTEpT1tDQEhdKFtDQEBIXTEyKU4oW0NIMl1bQ0gyXTIpQyg9TyljM1tjSF1bbkhdW2NIXW4z

>  <s_epik_cmdline>  (43) 
J2VwaWtfcHl0aG9uJywgJy1waHQnLCAnMi4wJywgJy1waCcsICc3LjAnLCAnLXRuJywgJzgnLCAnLW1hJywgJzIwMCcsICctaW1hZScsICc8aW5maWxlLm1hZT4nLCAnLW9tYWUnLCAnPG91dGZpbGUubWFlPic=

>  <r_lp_tautomer_probability>  (43) 
0.5

>  <r_epik_Ionization_Penalty>  (43) 
0.0208876

>  <r_epik_Ionization_Penalty_Charging>  (43) 
0.0201964

>  <r_epik_Ionization_Penalty_Neutral>  (43) 
0.000691224

>  <r_epik_State_Penalty>  (43) 
1.73738

>  <r_epik_Charging_Adjusted_Penalty>  (43) 
1.75758

>  <i_epik_Tot_Q>  (43) 
0

>  <i_epik_Tot_abs_Q>  (43) 
0

>  <s_epik_Chemistry_Notes>  (43) 
This compound contains an acetal/aminal-like group ( X-CH(R)-Y where X, Y are N, S, or O) that may be acid/base labile, releasing an aldehyde.

>  <s_lp_Force_Field>  (43) 
OPLS3e

>  <r_lp_Energy>  (43) 
20.1985

>  <b_lp_Chiralities_Consistent>  (43) 
1

>  <s_lp_Variant>  (43) 
10:0-2

>  <s_i_glide_gridfile>  (43) 
pfpi4k_grid

>  <i_i_glide_lignum>  (43) 
16

>  <i_i_glide_rotatable_bonds>  (43) 
2

>  <r_i_docking_score>  (43) 
-3.68903

>  <r_i_glide_ligand_efficiency>  (43) 
-0.230564

>  <r_i_glide_ligand_efficiency_sa>  (43) 
-0.580986

>  <r_i_glide_ligand_efficiency_ln>  (43) 
-0.977851

>  <r_i_glide_gscore>  (43) 
-3.68903

>  <r_i_glide_lipo>  (43) 
-0.301675

>  <r_i_glide_hbond>  (43) 
-0.319702

>  <r_i_glide_metal>  (43) 
-0

>  <r_i_glide_rewards>  (43) 
-1.95077

>  <r_i_glide_evdw>  (43) 
-20.7797

>  <r_i_glide_ecoul>  (43) 
-4.59194

>  <r_i_glide_erotb>  (43) 
0.689367

>  <r_i_glide_esite>  (43) 
-0.0784728

>  <r_i_glide_emodel>  (43) 
-30.9248

>  <r_i_glide_energy>  (43) 
-25.3716

>  <r_i_glide_einternal>  (43) 
1.35265

>  <r_i_glide_intrahb_reward>  (43) 
-0

>  <i_i_glide_confnum>  (43) 
4

>  <i_i_glide_posenum>  (43) 
15

>  <r_i_glide_eff_state_penalty>  (43) 
0

>  <ligand_id>  (43) 
10

>  <original_smiles>  (43) 
CC1CC2CCN(C(=O)c3c[nH]cn3)C2O1

>  <smiles>  (43) 
[H]c1nc([H])n([H])c1C(=O)N1C([H])([H])C([H])([H])C2([H])C1([H])OC([H])(C([H])([H])[H])C2([H])[H]

$$$$
10:1:1
     RDKit          3D

 31 33  0  0  1  0  0  0  0  0999 V2000
   -1.7464   -8.0094    3.7907 C   0  0  0  0  0  0  0  0  0  0  0  0
   -0.7795   -8.8257    2.9365 C   0  0  2  0  0  0  0  0  0  0  0  0
    0.3207   -9.5714    3.7405 C   0  0  0  0  0  0  0  0  0  0  0  0
    1.4532   -8.6335    3.4749 C   0  0  1  0  0  0  0  0  0  0  0  0
    2.9367   -8.9517    3.5101 C   0  0  0  0  0  0  0  0  0  0  0  0
    3.4315   -7.7684    2.6743 C   0  0  0  0  0  0  0  0  0  0  0  0
    2.2827   -7.3313    1.8443 N   0  0  0  0  0  0  0  0  0  0  0  0
    2.2783   -6.2026    1.0080 C   0  0  0  0  0  0  0  0  0  0  0  0
    1.2620   -5.9227    0.3626 O   0  0  0  0  0  0  0  0  0  0  0  0
    3.5112   -5.3939    0.8066 C   0  0  0  0  0  0  0  0  0  0  0  0
    4.6780   -5.2134    1.5328 C   0  0  0  0  0  0  0  0  0  0  0  0
    5.5338   -4.3591    0.8215 N   0  0  0  0  0  0  0  0  0  0  0  0
    4.8706   -4.0112   -0.2680 C   0  0  0  0  0  0  0  0  0  0  0  0
    3.6634   -4.5963   -0.3140 N   0  0  0  0  0  0  0  0  0  0  0  0
    1.1899   -8.3174    2.0393 C   0  0  2  0  0  0  0  0  0  0  0  0
   -0.1095   -7.8665    2.0912 O   0  0  0  0  0  0  0  0  0  0  0  0
    3.0032   -4.5602   -1.0628 H   0  0  0  0  0  0  0  0  0  0  0  0
   -2.2546   -8.6848    4.4786 H   0  0  0  0  0  0  0  0  0  0  0  0
   -2.4839   -7.4982    3.1621 H   0  0  0  0  0  0  0  0  0  0  0  0
   -1.2012   -7.2637    4.3755 H   0  0  0  0  0  0  0  0  0  0  0  0
   -1.3187   -9.5432    2.3202 H   0  0  0  0  0  0  0  0  0  0  0  0
    0.0849   -9.6974    4.7989 H   0  0  0  0  0  0  0  0  0  0  0  0
    0.5545  -10.5431    3.3131 H   0  0  0  0  0  0  0  0  0  0  0  0
    1.2585   -7.7233    4.0513 H   0  0  0  0  0  0  0  0  0  0  0  0
    3.3636   -8.8959    4.5068 H   0  0  0  0  0  0  0  0  0  0  0  0
    3.1721   -9.9303    3.0923 H   0  0  0  0  0  0  0  0  0  0  0  0
    3.6922   -6.9509    3.3418 H   0  0  0  0  0  0  0  0  0  0  0  0
    4.2903   -8.0311    2.0921 H   0  0  0  0  0  0  0  0  0  0  0  0
    5.0234   -5.6410    2.4715 H   0  0  0  0  0  0  0  0  0  0  0  0
    5.2542   -3.3402   -1.0272 H   0  0  0  0  0  0  0  0  0  0  0  0
    1.3494   -9.1470    1.3498 H   0  0  0  0  0  0  0  0  0  0  0  0
  1  2  1  0
  1 18  1  0
  1 19  1  0
  1 20  1  0
  2 16  1  0
  2  3  1  0
  2 21  1  6
  3  4  1  0
  3 22  1  0
  3 23  1  0
  4 15  1  0
  4  5  1  0
  4 24  1  1
  5  6  1  0
  5 25  1  0
  5 26  1  0
  6  7  1  0
  6 27  1  0
  6 28  1  0
  7  8  1  0
  7 15  1  0
  8  9  2  0
  8 10  1  0
 10 11  2  0
 10 14  1  0
 11 29  1  0
 11 12  1  0
 12 13  2  0
 13 14  1  0
 13 30  1  0
 14 17  1  0
 15 16  1  0
 15 31  1  6
M  END
>  <i_m_ct_stereo_status>  (44) 
1

>  <s_m_source_file>  (44) 
/var/tmp/pbs.5076255.sched01/tmp4ovtozgc/0905bh7x9.sdf

>  <i_m_source_file_index>  (44) 
16

>  <i_lp_mmshare_version>  (44) 
48012

>  <i_f3d_flags>  (44) 
0

>  <s_epik_input>  (44) 
W0NIM11bQ0BIXShbQ0gyXTEpT1tDQEhdKFtDQEBIXTEyKU4oW0NIMl1bQ0gyXTIpQyg9TyljM1tjSF1bbkhdW2NIXW4z

>  <s_epik_cmdline>  (44) 
J2VwaWtfcHl0aG9uJywgJy1waHQnLCAnMi4wJywgJy1waCcsICc3LjAnLCAnLXRuJywgJzgnLCAnLW1hJywgJzIwMCcsICctaW1hZScsICc8aW5maWxlLm1hZT4nLCAnLW9tYWUnLCAnPG91dGZpbGUubWFlPic=

>  <r_lp_tautomer_probability>  (44) 
0.5

>  <r_epik_Ionization_Penalty>  (44) 
0.0208876

>  <r_epik_Ionization_Penalty_Charging>  (44) 
0.0201964

>  <r_epik_Ionization_Penalty_Neutral>  (44) 
0.000691224

>  <r_epik_State_Penalty>  (44) 
1.73738

>  <r_epik_Charging_Adjusted_Penalty>  (44) 
1.75758

>  <i_epik_Tot_Q>  (44) 
0

>  <i_epik_Tot_abs_Q>  (44) 
0

>  <s_epik_Chemistry_Notes>  (44) 
This compound contains an acetal/aminal-like group ( X-CH(R)-Y where X, Y are N, S, or O) that may be acid/base labile, releasing an aldehyde.

>  <s_lp_Force_Field>  (44) 
OPLS3e

>  <r_lp_Energy>  (44) 
20.1985

>  <b_lp_Chiralities_Consistent>  (44) 
1

>  <s_lp_Variant>  (44) 
10:0-2

>  <s_i_glide_gridfile>  (44) 
pfpi4k_grid

>  <i_i_glide_lignum>  (44) 
16

>  <i_i_glide_rotatable_bonds>  (44) 
2

>  <r_i_docking_score>  (44) 
-3.60811

>  <r_i_glide_ligand_efficiency>  (44) 
-0.225507

>  <r_i_glide_ligand_efficiency_sa>  (44) 
-0.568241

>  <r_i_glide_ligand_efficiency_ln>  (44) 
-0.956401

>  <r_i_glide_gscore>  (44) 
-3.60811

>  <r_i_glide_lipo>  (44) 
-0.0308787

>  <r_i_glide_hbond>  (44) 
-0.243469

>  <r_i_glide_metal>  (44) 
-0

>  <r_i_glide_rewards>  (44) 
-1.95371

>  <r_i_glide_evdw>  (44) 
-19.3732

>  <r_i_glide_ecoul>  (44) 
-6.63618

>  <r_i_glide_erotb>  (44) 
0.689367

>  <r_i_glide_esite>  (44) 
-0.105332

>  <r_i_glide_emodel>  (44) 
-31.3227

>  <r_i_glide_energy>  (44) 
-26.0094

>  <r_i_glide_einternal>  (44) 
1.21348

>  <r_i_glide_intrahb_reward>  (44) 
-0

>  <i_i_glide_confnum>  (44) 
4

>  <i_i_glide_posenum>  (44) 
2

>  <r_i_glide_eff_state_penalty>  (44) 
0

>  <ligand_id>  (44) 
10

>  <original_smiles>  (44) 
CC1CC2CCN(C(=O)c3c[nH]cn3)C2O1

>  <smiles>  (44) 
[H]c1nc([H])n([H])c1C(=O)N1C([H])([H])C([H])([H])C2([H])C1([H])OC([H])(C([H])([H])[H])C2([H])[H]

$$$$
10:1:2
     RDKit          3D

 31 33  0  0  1  0  0  0  0  0999 V2000
    0.1296   -6.7970    2.7002 C   0  0  0  0  0  0  0  0  0  0  0  0
    1.3238   -7.2274    1.8457 C   0  0  2  0  0  0  0  0  0  0  0  0
    2.6492   -7.3721    2.6440 C   0  0  0  0  0  0  0  0  0  0  0  0
    3.2745   -6.0594    2.2761 C   0  0  1  0  0  0  0  0  0  0  0  0
    4.7558   -5.7118    2.2604 C   0  0  0  0  0  0  0  0  0  0  0  0
    4.7687   -4.5726    1.2344 C   0  0  0  0  0  0  0  0  0  0  0  0
    3.5107   -4.7452    0.4591 N   0  0  0  0  0  0  0  0  0  0  0  0
    3.0280   -3.8535   -0.5136 C   0  0  0  0  0  0  0  0  0  0  0  0
    1.8701   -3.9240   -0.9443 O   0  0  0  0  0  0  0  0  0  0  0  0
    3.9367   -2.7697   -0.9657 C   0  0  0  0  0  0  0  0  0  0  0  0
    5.3092   -2.6501   -1.0931 C   0  0  0  0  0  0  0  0  0  0  0  0
    5.6306   -1.3995   -1.5951 N   0  0  0  0  0  0  0  0  0  0  0  0
    4.4556   -0.8078   -1.8041 C   0  0  0  0  0  0  0  0  0  0  0  0
    3.4162   -1.5801   -1.4396 N   0  0  0  0  0  0  0  0  0  0  0  0
    2.9120   -6.0502    0.8255 C   0  0  2  0  0  0  0  0  0  0  0  0
    1.5367   -6.1744    0.8774 O   0  0  0  0  0  0  0  0  0  0  0  0
    2.4390   -1.3461   -1.4746 H   0  0  0  0  0  0  0  0  0  0  0  0
   -0.0875   -7.5480    3.4641 H   0  0  0  0  0  0  0  0  0  0  0  0
   -0.7567   -6.6727    2.0728 H   0  0  0  0  0  0  0  0  0  0  0  0
    0.3382   -5.8464    3.1977 H   0  0  0  0  0  0  0  0  0  0  0  0
    1.1014   -8.1651    1.3377 H   0  0  0  0  0  0  0  0  0  0  0  0
    2.5142   -7.4969    3.7183 H   0  0  0  0  0  0  0  0  0  0  0  0
    3.2570   -8.1950    2.2693 H   0  0  0  0  0  0  0  0  0  0  0  0
    2.7244   -5.2562    2.7709 H   0  0  0  0  0  0  0  0  0  0  0  0
    5.1702   -5.4204    3.2245 H   0  0  0  0  0  0  0  0  0  0  0  0
    5.3363   -6.5465    1.8731 H   0  0  0  0  0  0  0  0  0  0  0  0
    4.7382   -3.5977    1.7158 H   0  0  0  0  0  0  0  0  0  0  0  0
    5.6662   -4.6627    0.6331 H   0  0  0  0  0  0  0  0  0  0  0  0
    6.0962   -3.3655   -0.8795 H   0  0  0  0  0  0  0  0  0  0  0  0
    4.3509    0.1886   -2.2062 H   0  0  0  0  0  0  0  0  0  0  0  0
    3.4006   -6.8070    0.2102 H   0  0  0  0  0  0  0  0  0  0  0  0
  1  2  1  0
  1 18  1  0
  1 19  1  0
  1 20  1  0
  2 16  1  0
  2  3  1  0
  2 21  1  6
  3  4  1  0
  3 22  1  0
  3 23  1  0
  4 15  1  0
  4  5  1  0
  4 24  1  1
  5  6  1  0
  5 25  1  0
  5 26  1  0
  6  7  1  0
  6 27  1  0
  6 28  1  0
  7  8  1  0
  7 15  1  0
  8  9  2  0
  8 10  1  0
 10 11  2  0
 10 14  1  0
 11 29  1  0
 11 12  1  0
 12 13  2  0
 13 14  1  0
 13 30  1  0
 14 17  1  0
 15 16  1  0
 15 31  1  6
M  END
>  <i_m_ct_stereo_status>  (45) 
1

>  <s_m_source_file>  (45) 
/var/tmp/pbs.5076255.sched01/tmp4ovtozgc/0905bh7x9.sdf

>  <i_m_source_file_index>  (45) 
16

>  <i_lp_mmshare_version>  (45) 
48012

>  <i_f3d_flags>  (45) 
0

>  <s_epik_input>  (45) 
W0NIM11bQ0BIXShbQ0gyXTEpT1tDQEhdKFtDQEBIXTEyKU4oW0NIMl1bQ0gyXTIpQyg9TyljM1tjSF1bbkhdW2NIXW4z

>  <s_epik_cmdline>  (45) 
J2VwaWtfcHl0aG9uJywgJy1waHQnLCAnMi4wJywgJy1waCcsICc3LjAnLCAnLXRuJywgJzgnLCAnLW1hJywgJzIwMCcsICctaW1hZScsICc8aW5maWxlLm1hZT4nLCAnLW9tYWUnLCAnPG91dGZpbGUubWFlPic=

>  <r_lp_tautomer_probability>  (45) 
0.5

>  <r_epik_Ionization_Penalty>  (45) 
0.0208876

>  <r_epik_Ionization_Penalty_Charging>  (45) 
0.0201964

>  <r_epik_Ionization_Penalty_Neutral>  (45) 
0.000691224

>  <r_epik_State_Penalty>  (45) 
1.73738

>  <r_epik_Charging_Adjusted_Penalty>  (45) 
1.75758

>  <i_epik_Tot_Q>  (45) 
0

>  <i_epik_Tot_abs_Q>  (45) 
0

>  <s_epik_Chemistry_Notes>  (45) 
This compound contains an acetal/aminal-like group ( X-CH(R)-Y where X, Y are N, S, or O) that may be acid/base labile, releasing an aldehyde.

>  <s_lp_Force_Field>  (45) 
OPLS3e

>  <r_lp_Energy>  (45) 
20.1985

>  <b_lp_Chiralities_Consistent>  (45) 
1

>  <s_lp_Variant>  (45) 
10:0-2

>  <s_i_glide_gridfile>  (45) 
pfpi4k_grid

>  <i_i_glide_lignum>  (45) 
16

>  <i_i_glide_rotatable_bonds>  (45) 
2

>  <r_i_docking_score>  (45) 
-3.44389

>  <r_i_glide_ligand_efficiency>  (45) 
-0.215243

>  <r_i_glide_ligand_efficiency_sa>  (45) 
-0.542378

>  <r_i_glide_ligand_efficiency_ln>  (45) 
-0.912871

>  <r_i_glide_gscore>  (45) 
-3.44389

>  <r_i_glide_lipo>  (45) 
-0.0440357

>  <r_i_glide_hbond>  (45) 
-0.288163

>  <r_i_glide_metal>  (45) 
-0

>  <r_i_glide_rewards>  (45) 
-1.90053

>  <r_i_glide_evdw>  (45) 
-17.7686

>  <r_i_glide_ecoul>  (45) 
-5.61162

>  <r_i_glide_erotb>  (45) 
0.689367

>  <r_i_glide_esite>  (45) 
-0.170355

>  <r_i_glide_emodel>  (45) 
-28.3477

>  <r_i_glide_energy>  (45) 
-23.3802

>  <r_i_glide_einternal>  (45) 
1.88781

>  <r_i_glide_intrahb_reward>  (45) 
-0

>  <i_i_glide_confnum>  (45) 
4

>  <i_i_glide_posenum>  (45) 
31

>  <r_i_glide_eff_state_penalty>  (45) 
0

>  <ligand_id>  (45) 
10

>  <original_smiles>  (45) 
CC1CC2CCN(C(=O)c3c[nH]cn3)C2O1

>  <smiles>  (45) 
[H]c1nc([H])n([H])c1C(=O)N1C([H])([H])C([H])([H])C2([H])C1([H])OC([H])(C([H])([H])[H])C2([H])[H]

$$$$
11:0:0
     RDKit          3D

 40 45  0  0  1  0  0  0  0  0999 V2000
    3.2368   -1.9433    2.0392 C   0  0  0  0  0  0  0  0  0  0  0  0
    4.4064   -2.7036    1.3149 C   0  0  2  0  0  0  0  0  0  0  0  0
    5.4485   -1.5628    1.1201 C   0  0  0  0  0  0  0  0  0  0  0  0
    6.7801   -2.0138    0.5321 C   0  0  0  0  0  0  0  0  0  0  0  0
    6.5099   -2.8559   -0.7003 C   0  0  0  0  0  0  0  0  0  0  0  0
    5.4037   -3.9188   -0.4539 C   0  0  2  0  0  0  0  0  0  0  0  0
    3.9816   -3.4560    0.0301 C   0  0  1  0  0  0  0  0  0  0  0  0
    3.2357   -4.8800    0.3212 C   0  0  2  0  0  0  0  0  0  0  0  0
    2.2615   -5.0068    1.5767 C   0  0  1  0  0  0  0  0  0  0  0  0
    1.3943   -6.2859    1.5777 C   0  0  0  0  0  0  0  0  0  0  0  0
    0.3835   -6.2635    0.8356 O   0  0  0  0  0  0  0  0  0  0  0  0
    1.7382   -7.2123    2.3315 O   0  0  0  0  0  0  0  0  0  0  0  0
    2.9058   -4.7647    2.9764 C   0  0  0  0  0  0  0  0  0  0  0  0
    2.2218   -4.4310    3.9383 O   0  0  0  0  0  0  0  0  0  0  0  0
    4.4065   -4.8717    3.0167 C   0  0  2  0  0  0  0  0  0  0  0  0
    5.3595   -3.8496    3.3889 O   0  0  0  0  0  0  0  0  0  0  0  0
    5.0582   -3.9265    1.9791 C   0  0  2  0  0  0  0  0  0  0  0  0
    5.5774   -4.8078    0.7835 C   0  0  2  0  0  0  0  0  0  0  0  0
    6.7910   -5.7336    1.0359 C   0  0  0  0  0  0  0  0  0  0  0  0
    6.1727   -6.9661    1.4328 O   0  0  0  0  0  0  0  0  0  0  0  0
    4.8840   -7.0816    1.0371 C   0  0  0  0  0  0  0  0  0  0  0  0
    4.1386   -8.0658    1.1636 O   0  0  0  0  0  0  0  0  0  0  0  0
    4.5041   -5.7956    0.3214 C   0  0  1  0  0  0  0  0  0  0  0  0
    3.4114   -1.8912    3.1087 H   0  0  0  0  0  0  0  0  0  0  0  0
    2.2566   -2.3555    1.8408 H   0  0  0  0  0  0  0  0  0  0  0  0
    3.1670   -0.9086    1.6783 H   0  0  0  0  0  0  0  0  0  0  0  0
    5.0400   -0.7938    0.4632 H   0  0  0  0  0  0  0  0  0  0  0  0
    5.6538   -1.0700    2.0725 H   0  0  0  0  0  0  0  0  0  0  0  0
    7.3971   -1.1458    0.2887 H   0  0  0  0  0  0  0  0  0  0  0  0
    7.3489   -2.5862    1.2559 H   0  0  0  0  0  0  0  0  0  0  0  0
    6.2154   -2.2111   -1.5252 H   0  0  0  0  0  0  0  0  0  0  0  0
    7.4400   -3.3468   -0.9981 H   0  0  0  0  0  0  0  0  0  0  0  0
    5.3351   -4.4439   -1.4095 H   0  0  0  0  0  0  0  0  0  0  0  0
    3.4741   -2.8016   -0.6935 H   0  0  0  0  0  0  0  0  0  0  0  0
    2.6457   -5.0981   -0.5785 H   0  0  0  0  0  0  0  0  0  0  0  0
    1.5483   -4.2048    1.4679 H   0  0  0  0  0  0  0  0  0  0  0  0
    4.8004   -5.8337    3.2986 H   0  0  0  0  0  0  0  0  0  0  0  0
    7.3367   -5.8932    0.1006 H   0  0  0  0  0  0  0  0  0  0  0  0
    7.4705   -5.3523    1.8003 H   0  0  0  0  0  0  0  0  0  0  0  0
    4.6421   -6.1378   -0.7021 H   0  0  0  0  0  0  0  0  0  0  0  0
  2  1  1  1
  1 24  1  0
  1 25  1  0
  1 26  1  0
  2  7  1  0
  2 17  1  0
  2  3  1  0
  3  4  1  0
  3 27  1  0
  3 28  1  0
  4  5  1  0
  4 29  1  0
  4 30  1  0
  5  6  1  0
  5 31  1  0
  5 32  1  0
  6 18  1  0
  6  7  1  0
  6 33  1  6
  7  8  1  0
  7 34  1  6
  8 23  1  0
  8  9  1  0
  8 35  1  6
  9 10  1  0
  9 13  1  0
  9 36  1  6
 10 11  2  0
 10 12  1  0
 13 14  2  0
 13 15  1  0
 15 17  1  0
 15 16  1  0
 15 37  1  6
 17 16  1  1
 17 18  1  0
 18 23  1  0
 18 19  1  1
 19 20  1  0
 19 38  1  0
 19 39  1  0
 20 21  1  0
 21 22  2  0
 21 23  1  0
 23 40  1  6
M  CHG  1  12  -1
M  END
>  <i_m_ct_stereo_status>  (46) 
1

>  <s_m_source_file>  (46) 
/var/tmp/pbs.5076255.sched01/tmp4ovtozgc/0905bh7x9.sdf

>  <i_m_source_file_index>  (46) 
17

>  <i_lp_mmshare_version>  (46) 
48012

>  <i_f3d_flags>  (46) 
0

>  <s_epik_input>  (46) 
W0NIMl0xW0NIMl1bQ0gyXVtDQEBdMihbQ0gzXSlbQ0BASF0oW0NAQEhdMVtDQF0zNFtDQEBdMjU2KVtDQEhdKFtDQEBIXShDKD1PKVtPSF0pQyg9TylbQ0BASF01TzYpW0NAQEhdNEMoPU8pT1tDSDJdMw==

>  <s_epik_cmdline>  (46) 
J2VwaWtfcHl0aG9uJywgJy1waHQnLCAnMi4wJywgJy1waCcsICc3LjAnLCAnLXRuJywgJzgnLCAnLW1hJywgJzIwMCcsICctaW1hZScsICc8aW5maWxlLm1hZT4nLCAnLW9tYWUnLCAnPG91dGZpbGUubWFlPic=

>  <r_lp_tautomer_probability>  (46) 
1

>  <r_epik_Ionization_Penalty>  (46) 
4.76199e-05

>  <r_epik_Ionization_Penalty_Charging>  (46) 
4.73807e-05

>  <r_epik_Ionization_Penalty_Neutral>  (46) 
2.39239e-07

>  <r_epik_State_Penalty>  (46) 
-0

>  <r_epik_Charging_Adjusted_Penalty>  (46) 
4.73807e-05

>  <i_epik_Tot_Q>  (46) 
-1

>  <i_epik_Tot_abs_Q>  (46) 
1

>  <s_epik_Chemistry_Notes>  (46) 
This compound has an ester and may undergo hydrolysis at high or low pH.

>  <s_lp_Force_Field>  (46) 
OPLS3e

>  <r_lp_Energy>  (46) 
101.886

>  <b_lp_Chiralities_Consistent>  (46) 
1

>  <s_lp_Variant>  (46) 
11:0-1

>  <s_i_glide_gridfile>  (46) 
pfpi4k_grid

>  <i_i_glide_lignum>  (46) 
17

>  <i_i_glide_rotatable_bonds>  (46) 
1

>  <r_i_docking_score>  (46) 
-3.73835

>  <r_i_glide_ligand_efficiency>  (46) 
-0.162537

>  <r_i_glide_ligand_efficiency_sa>  (46) 
-0.462233

>  <r_i_glide_ligand_efficiency_ln>  (46) 
-0.903967

>  <r_i_glide_gscore>  (46) 
-3.73835

>  <r_i_glide_lipo>  (46) 
-0.538184

>  <r_i_glide_hbond>  (46) 
-0.2

>  <r_i_glide_metal>  (46) 
-0

>  <r_i_glide_rewards>  (46) 
-1.36201

>  <r_i_glide_evdw>  (46) 
-21.0479

>  <r_i_glide_ecoul>  (46) 
-3.478

>  <r_i_glide_erotb>  (46) 
0

>  <r_i_glide_esite>  (46) 
-0.0640633

>  <r_i_glide_emodel>  (46) 
-30.9315

>  <r_i_glide_energy>  (46) 
-24.5259

>  <r_i_glide_einternal>  (46) 
1.18556

>  <r_i_glide_intrahb_reward>  (46) 
-0

>  <i_i_glide_confnum>  (46) 
2

>  <i_i_glide_posenum>  (46) 
36

>  <r_i_glide_eff_state_penalty>  (46) 
0

>  <ligand_id>  (46) 
11

>  <original_smiles>  (46) 
CC12CCCC3C1C1C(C(=O)O)C(=O)C4OC42C32COC(=O)C12

>  <smiles>  (46) 
[H]C([H])([H])C12C([H])([H])C([H])([H])C([H])([H])C3([H])C1([H])C1([H])C([H])(C(=O)[O-])C(=O)C4([H])OC42C32C([H])([H])OC(=O)C12[H]

$$$$
11:0:1
     RDKit          3D

 40 45  0  0  1  0  0  0  0  0999 V2000
    3.2426   -1.5045    0.8655 C   0  0  0  0  0  0  0  0  0  0  0  0
    4.1736   -2.1146   -0.2300 C   0  0  2  0  0  0  0  0  0  0  0  0
    3.7288   -1.3799   -1.5198 C   0  0  0  0  0  0  0  0  0  0  0  0
    4.5356   -1.6701   -2.7633 C   0  0  0  0  0  0  0  0  0  0  0  0
    4.6952   -3.1709   -2.9040 C   0  0  0  0  0  0  0  0  0  0  0  0
    5.0782   -3.8492   -1.5694 C   0  0  2  0  0  0  0  0  0  0  0  0
    4.1509   -3.6590   -0.3249 C   0  0  1  0  0  0  0  0  0  0  0  0
    5.0042   -4.3632    0.8585 C   0  0  2  0  0  0  0  0  0  0  0  0
    5.0007   -3.7218    2.3018 C   0  0  1  0  0  0  0  0  0  0  0  0
    5.5609   -4.6741    3.3745 C   0  0  0  0  0  0  0  0  0  0  0  0
    5.5054   -4.2867    4.5624 O   0  0  0  0  0  0  0  0  0  0  0  0
    6.0020   -5.7905    3.0138 O   0  0  0  0  0  0  0  0  0  0  0  0
    5.6053   -2.2815    2.3967 C   0  0  0  0  0  0  0  0  0  0  0  0
    5.3486   -1.5301    3.3431 O   0  0  0  0  0  0  0  0  0  0  0  0
    6.4523   -1.8141    1.2287 C   0  0  2  0  0  0  0  0  0  0  0  0
    6.2116   -0.7231    0.3365 O   0  0  0  0  0  0  0  0  0  0  0  0
    5.6909   -1.9939   -0.0750 C   0  0  2  0  0  0  0  0  0  0  0  0
    6.2828   -3.2485   -0.8182 C   0  0  2  0  0  0  0  0  0  0  0  0
    7.7111   -3.1554   -1.3887 C   0  0  0  0  0  0  0  0  0  0  0  0
    8.5295   -3.6676   -0.3310 O   0  0  0  0  0  0  0  0  0  0  0  0
    7.8474   -4.3671    0.6005 C   0  0  0  0  0  0  0  0  0  0  0  0
    8.3311   -4.8792    1.6042 O   0  0  0  0  0  0  0  0  0  0  0  0
    6.3885   -4.4311    0.1398 C   0  0  1  0  0  0  0  0  0  0  0  0
    3.6341   -0.5611    1.2473 H   0  0  0  0  0  0  0  0  0  0  0  0
    3.0281   -2.1643    1.6944 H   0  0  0  0  0  0  0  0  0  0  0  0
    2.2383   -1.2888    0.4918 H   0  0  0  0  0  0  0  0  0  0  0  0
    2.6830   -1.6112   -1.7338 H   0  0  0  0  0  0  0  0  0  0  0  0
    3.8333   -0.3093   -1.3523 H   0  0  0  0  0  0  0  0  0  0  0  0
    4.0467   -1.2409   -3.6385 H   0  0  0  0  0  0  0  0  0  0  0  0
    5.4923   -1.1638   -2.6688 H   0  0  0  0  0  0  0  0  0  0  0  0
    3.7570   -3.5946   -3.2662 H   0  0  0  0  0  0  0  0  0  0  0  0
    5.4504   -3.3762   -3.6629 H   0  0  0  0  0  0  0  0  0  0  0  0
    5.1625   -4.9115   -1.8140 H   0  0  0  0  0  0  0  0  0  0  0  0
    3.1419   -4.0583   -0.4609 H   0  0  0  0  0  0  0  0  0  0  0  0
    4.6277   -5.3856    0.9407 H   0  0  0  0  0  0  0  0  0  0  0  0
    3.9640   -3.6653    2.6242 H   0  0  0  0  0  0  0  0  0  0  0  0
    7.5207   -1.9989    1.2785 H   0  0  0  0  0  0  0  0  0  0  0  0
    7.8256   -3.8123   -2.2549 H   0  0  0  0  0  0  0  0  0  0  0  0
    8.0185   -2.1461   -1.6674 H   0  0  0  0  0  0  0  0  0  0  0  0
    6.3931   -5.4155   -0.3250 H   0  0  0  0  0  0  0  0  0  0  0  0
  2  1  1  1
  1 24  1  0
  1 25  1  0
  1 26  1  0
  2  7  1  0
  2 17  1  0
  2  3  1  0
  3  4  1  0
  3 27  1  0
  3 28  1  0
  4  5  1  0
  4 29  1  0
  4 30  1  0
  5  6  1  0
  5 31  1  0
  5 32  1  0
  6 18  1  0
  6  7  1  0
  6 33  1  6
  7  8  1  0
  7 34  1  6
  8 23  1  0
  8  9  1  0
  8 35  1  1
  9 10  1  0
  9 13  1  0
  9 36  1  1
 10 11  2  0
 10 12  1  0
 13 14  2  0
 13 15  1  0
 15 17  1  0
 15 16  1  0
 15 37  1  6
 17 16  1  6
 17 18  1  0
 18 23  1  0
 18 19  1  6
 19 20  1  0
 19 38  1  0
 19 39  1  0
 20 21  1  0
 21 22  2  0
 21 23  1  0
 23 40  1  6
M  CHG  1  12  -1
M  END
>  <i_m_ct_stereo_status>  (47) 
1

>  <s_m_source_file>  (47) 
/var/tmp/pbs.5076255.sched01/tmp4ovtozgc/0905bh7x9.sdf

>  <i_m_source_file_index>  (47) 
17

>  <i_lp_mmshare_version>  (47) 
48012

>  <i_f3d_flags>  (47) 
0

>  <s_epik_input>  (47) 
W0NIMl0xW0NIMl1bQ0gyXVtDQEBdMihbQ0gzXSlbQ0BASF0oW0NAQEhdMVtDQF0zNFtDQEBdMjU2KVtDQEhdKFtDQEBIXShDKD1PKVtPSF0pQyg9TylbQ0BASF01TzYpW0NAQEhdNEMoPU8pT1tDSDJdMw==

>  <s_epik_cmdline>  (47) 
J2VwaWtfcHl0aG9uJywgJy1waHQnLCAnMi4wJywgJy1waCcsICc3LjAnLCAnLXRuJywgJzgnLCAnLW1hJywgJzIwMCcsICctaW1hZScsICc8aW5maWxlLm1hZT4nLCAnLW9tYWUnLCAnPG91dGZpbGUubWFlPic=

>  <r_lp_tautomer_probability>  (47) 
1

>  <r_epik_Ionization_Penalty>  (47) 
4.76199e-05

>  <r_epik_Ionization_Penalty_Charging>  (47) 
4.73807e-05

>  <r_epik_Ionization_Penalty_Neutral>  (47) 
2.39239e-07

>  <r_epik_State_Penalty>  (47) 
-0

>  <r_epik_Charging_Adjusted_Penalty>  (47) 
4.73807e-05

>  <i_epik_Tot_Q>  (47) 
-1

>  <i_epik_Tot_abs_Q>  (47) 
1

>  <s_epik_Chemistry_Notes>  (47) 
This compound has an ester and may undergo hydrolysis at high or low pH.

>  <s_lp_Force_Field>  (47) 
OPLS3e

>  <r_lp_Energy>  (47) 
101.886

>  <b_lp_Chiralities_Consistent>  (47) 
1

>  <s_lp_Variant>  (47) 
11:0-1

>  <s_i_glide_gridfile>  (47) 
pfpi4k_grid

>  <i_i_glide_lignum>  (47) 
17

>  <i_i_glide_rotatable_bonds>  (47) 
1

>  <r_i_docking_score>  (47) 
-3.01577

>  <r_i_glide_ligand_efficiency>  (47) 
-0.131121

>  <r_i_glide_ligand_efficiency_sa>  (47) 
-0.37289

>  <r_i_glide_ligand_efficiency_ln>  (47) 
-0.729242

>  <r_i_glide_gscore>  (47) 
-3.01577

>  <r_i_glide_lipo>  (47) 
-0.489863

>  <r_i_glide_hbond>  (47) 
0

>  <r_i_glide_metal>  (47) 
-0

>  <r_i_glide_rewards>  (47) 
-1.53246

>  <r_i_glide_evdw>  (47) 
-21.7797

>  <r_i_glide_ecoul>  (47) 
0.63687

>  <r_i_glide_erotb>  (47) 
0

>  <r_i_glide_esite>  (47) 
0

>  <r_i_glide_emodel>  (47) 
-26.801

>  <r_i_glide_energy>  (47) 
-21.1428

>  <r_i_glide_einternal>  (47) 
0.31305

>  <r_i_glide_intrahb_reward>  (47) 
-0

>  <i_i_glide_confnum>  (47) 
1

>  <i_i_glide_posenum>  (47) 
15

>  <r_i_glide_eff_state_penalty>  (47) 
0

>  <ligand_id>  (47) 
11

>  <original_smiles>  (47) 
CC12CCCC3C1C1C(C(=O)O)C(=O)C4OC42C32COC(=O)C12

>  <smiles>  (47) 
[H]C([H])([H])C12C([H])([H])C([H])([H])C([H])([H])C3([H])C1([H])C1([H])C([H])(C(=O)[O-])C(=O)C4([H])OC42C32C([H])([H])OC(=O)C12[H]

$$$$
11:0:2
     RDKit          3D

 40 45  0  0  1  0  0  0  0  0999 V2000
    3.4464   -0.3792    1.0851 C   0  0  0  0  0  0  0  0  0  0  0  0
    3.8872   -1.6634    0.3192 C   0  0  2  0  0  0  0  0  0  0  0  0
    4.0200   -1.1470   -1.1467 C   0  0  0  0  0  0  0  0  0  0  0  0
    4.5686   -2.1579   -2.1390 C   0  0  0  0  0  0  0  0  0  0  0  0
    3.7921   -3.4496   -1.9731 C   0  0  0  0  0  0  0  0  0  0  0  0
    3.6256   -3.8676   -0.4952 C   0  0  2  0  0  0  0  0  0  0  0  0
    2.9458   -2.8772    0.4999 C   0  0  1  0  0  0  0  0  0  0  0  0
    3.1502   -3.6189    1.9267 C   0  0  2  0  0  0  0  0  0  0  0  0
    3.4842   -2.7446    3.2162 C   0  0  1  0  0  0  0  0  0  0  0  0
    3.3528   -3.5338    4.5322 C   0  0  0  0  0  0  0  0  0  0  0  0
    2.9389   -4.7116    4.4586 O   0  0  0  0  0  0  0  0  0  0  0  0
    3.6054   -2.9423    5.6036 O   0  0  0  0  0  0  0  0  0  0  0  0
    4.8243   -1.9394    3.1632 C   0  0  0  0  0  0  0  0  0  0  0  0
    5.0247   -0.9529    3.8745 O   0  0  0  0  0  0  0  0  0  0  0  0
    5.8116   -2.3739    2.1219 C   0  0  2  0  0  0  0  0  0  0  0  0
    6.3280   -1.6162    1.0195 O   0  0  0  0  0  0  0  0  0  0  0  0
    5.1603   -2.4041    0.7463 C   0  0  2  0  0  0  0  0  0  0  0  0
    4.9005   -3.9039    0.3587 C   0  0  2  0  0  0  0  0  0  0  0  0
    6.1078   -4.7968    0.0784 C   0  0  0  0  0  0  0  0  0  0  0  0
    6.4071   -5.3939    1.3397 O   0  0  0  0  0  0  0  0  0  0  0  0
    5.4018   -5.3063    2.2223 C   0  0  0  0  0  0  0  0  0  0  0  0
    5.4317   -5.6710    3.3900 O   0  0  0  0  0  0  0  0  0  0  0  0
    4.2283   -4.6596    1.4927 C   0  0  1  0  0  0  0  0  0  0  0  0
    4.2961    0.2534    1.3530 H   0  0  0  0  0  0  0  0  0  0  0  0
    2.8413   -0.5610    1.9636 H   0  0  0  0  0  0  0  0  0  0  0  0
    2.7798    0.2332    0.4800 H   0  0  0  0  0  0  0  0  0  0  0  0
    3.0402   -0.8297   -1.5067 H   0  0  0  0  0  0  0  0  0  0  0  0
    4.6581   -0.2677   -1.1792 H   0  0  0  0  0  0  0  0  0  0  0  0
    4.4620   -1.7804   -3.1569 H   0  0  0  0  0  0  0  0  0  0  0  0
    5.6350   -2.3153   -1.9726 H   0  0  0  0  0  0  0  0  0  0  0  0
    2.8036   -3.3396   -2.4236 H   0  0  0  0  0  0  0  0  0  0  0  0
    4.3016   -4.2358   -2.5319 H   0  0  0  0  0  0  0  0  0  0  0  0
    3.0678   -4.8070   -0.5425 H   0  0  0  0  0  0  0  0  0  0  0  0
    1.9065   -2.6559    0.2558 H   0  0  0  0  0  0  0  0  0  0  0  0
    2.2306   -4.1712    2.1240 H   0  0  0  0  0  0  0  0  0  0  0  0
    2.6729   -2.0350    3.3228 H   0  0  0  0  0  0  0  0  0  0  0  0
    6.5661   -3.0889    2.4444 H   0  0  0  0  0  0  0  0  0  0  0  0
    5.8104   -5.5856   -0.6120 H   0  0  0  0  0  0  0  0  0  0  0  0
    6.9627   -4.2597   -0.3373 H   0  0  0  0  0  0  0  0  0  0  0  0
    3.7052   -5.5564    1.1581 H   0  0  0  0  0  0  0  0  0  0  0  0
  2  1  1  1
  1 24  1  0
  1 25  1  0
  1 26  1  0
  2  7  1  0
  2 17  1  0
  2  3  1  0
  3  4  1  0
  3 27  1  0
  3 28  1  0
  4  5  1  0
  4 29  1  0
  4 30  1  0
  5  6  1  0
  5 31  1  0
  5 32  1  0
  6 18  1  0
  6  7  1  0
  6 33  1  6
  7  8  1  0
  7 34  1  6
  8 23  1  0
  8  9  1  0
  8 35  1  1
  9 10  1  0
  9 13  1  0
  9 36  1  1
 10 11  2  0
 10 12  1  0
 13 14  2  0
 13 15  1  0
 15 17  1  0
 15 16  1  0
 15 37  1  1
 17 16  1  6
 17 18  1  0
 18 23  1  0
 18 19  1  6
 19 20  1  0
 19 38  1  0
 19 39  1  0
 20 21  1  0
 21 22  2  0
 21 23  1  0
 23 40  1  6
M  CHG  1  12  -1
M  END
>  <i_m_ct_stereo_status>  (48) 
1

>  <s_m_source_file>  (48) 
/var/tmp/pbs.5076255.sched01/tmp4ovtozgc/0905bh7x9.sdf

>  <i_m_source_file_index>  (48) 
17

>  <i_lp_mmshare_version>  (48) 
48012

>  <i_f3d_flags>  (48) 
0

>  <s_epik_input>  (48) 
W0NIMl0xW0NIMl1bQ0gyXVtDQEBdMihbQ0gzXSlbQ0BASF0oW0NAQEhdMVtDQF0zNFtDQEBdMjU2KVtDQEhdKFtDQEBIXShDKD1PKVtPSF0pQyg9TylbQ0BASF01TzYpW0NAQEhdNEMoPU8pT1tDSDJdMw==

>  <s_epik_cmdline>  (48) 
J2VwaWtfcHl0aG9uJywgJy1waHQnLCAnMi4wJywgJy1waCcsICc3LjAnLCAnLXRuJywgJzgnLCAnLW1hJywgJzIwMCcsICctaW1hZScsICc8aW5maWxlLm1hZT4nLCAnLW9tYWUnLCAnPG91dGZpbGUubWFlPic=

>  <r_lp_tautomer_probability>  (48) 
1

>  <r_epik_Ionization_Penalty>  (48) 
4.76199e-05

>  <r_epik_Ionization_Penalty_Charging>  (48) 
4.73807e-05

>  <r_epik_Ionization_Penalty_Neutral>  (48) 
2.39239e-07

>  <r_epik_State_Penalty>  (48) 
-0

>  <r_epik_Charging_Adjusted_Penalty>  (48) 
4.73807e-05

>  <i_epik_Tot_Q>  (48) 
-1

>  <i_epik_Tot_abs_Q>  (48) 
1

>  <s_epik_Chemistry_Notes>  (48) 
This compound has an ester and may undergo hydrolysis at high or low pH.

>  <s_lp_Force_Field>  (48) 
OPLS3e

>  <r_lp_Energy>  (48) 
101.886

>  <b_lp_Chiralities_Consistent>  (48) 
1

>  <s_lp_Variant>  (48) 
11:0-1

>  <s_i_glide_gridfile>  (48) 
pfpi4k_grid

>  <i_i_glide_lignum>  (48) 
17

>  <i_i_glide_rotatable_bonds>  (48) 
1

>  <r_i_docking_score>  (48) 
-2.52976

>  <r_i_glide_ligand_efficiency>  (48) 
-0.109989

>  <r_i_glide_ligand_efficiency_sa>  (48) 
-0.312795

>  <r_i_glide_ligand_efficiency_ln>  (48) 
-0.611718

>  <r_i_glide_gscore>  (48) 
-2.52976

>  <r_i_glide_lipo>  (48) 
-0.216236

>  <r_i_glide_hbond>  (48) 
0

>  <r_i_glide_metal>  (48) 
-0

>  <r_i_glide_rewards>  (48) 
-1.34443

>  <r_i_glide_evdw>  (48) 
-19.0494

>  <r_i_glide_ecoul>  (48) 
-0.110795

>  <r_i_glide_erotb>  (48) 
0

>  <r_i_glide_esite>  (48) 
0

>  <r_i_glide_emodel>  (48) 
-24.0653

>  <r_i_glide_energy>  (48) 
-19.1602

>  <r_i_glide_einternal>  (48) 
0.0103406

>  <r_i_glide_intrahb_reward>  (48) 
-0

>  <i_i_glide_confnum>  (48) 
2

>  <i_i_glide_posenum>  (48) 
26

>  <r_i_glide_eff_state_penalty>  (48) 
0

>  <ligand_id>  (48) 
11

>  <original_smiles>  (48) 
CC12CCCC3C1C1C(C(=O)O)C(=O)C4OC42C32COC(=O)C12

>  <smiles>  (48) 
[H]C([H])([H])C12C([H])([H])C([H])([H])C([H])([H])C3([H])C1([H])C1([H])C([H])(C(=O)[O-])C(=O)C4([H])OC42C32C([H])([H])OC(=O)C12[H]

$$$$
12:1:0
     RDKit          3D

 66 71  0  0  1  0  0  0  0  0999 V2000
   -3.1175    3.4049    9.4369 C   0  0  0  0  0  0  0  0  0  0  0  0
   -2.8709    3.9427    8.1402 O   0  0  0  0  0  0  0  0  0  0  0  0
   -2.4214    3.0087    7.1660 C   0  0  0  0  0  0  0  0  0  0  0  0
   -0.9907    2.4695    7.4411 C   0  0  2  0  0  0  0  0  0  0  0  0
   -0.0221    3.6686    7.5924 C   0  0  0  0  0  0  0  0  0  0  0  0
    1.3576    3.3042    8.1179 C   0  0  0  0  0  0  0  0  0  0  0  0
    1.4751    3.1082    9.3288 O   0  0  0  0  0  0  0  0  0  0  0  0
    2.5996    3.2131    7.1934 C   0  0  1  0  0  0  0  0  0  0  0  0
    3.7296    2.7664    7.9164 O   0  0  0  0  0  0  0  0  0  0  0  0
    2.6184    2.6766    5.6989 C   0  0  2  0  0  0  0  0  0  0  0  0
    2.3698    3.7929    4.8653 O   0  0  0  0  0  0  0  0  0  0  0  0
    1.0826    4.0578    4.5161 C   0  0  0  0  0  0  0  0  0  0  0  0
    0.7121    5.2857    3.8713 C   0  0  0  0  0  0  0  0  0  0  0  0
    1.5954    6.3240    3.7712 O   0  0  0  0  0  0  0  0  0  0  0  0
   -0.5896    5.5095    3.2944 C   0  0  0  0  0  0  0  0  0  0  0  0
   -1.6232    4.5317    3.2686 C   0  0  0  0  0  0  0  0  0  0  0  0
   -1.2966    3.3376    3.9091 C   0  0  0  0  0  0  0  0  0  0  0  0
   -0.0092    3.1691    4.5603 C   0  0  0  0  0  0  0  0  0  0  0  0
   -0.2139    1.6989    4.9535 C   0  0  1  0  0  0  0  0  0  0  0  0
   -1.6169    1.9062    4.1598 C   0  0  0  0  0  0  0  0  0  0  0  0
    0.9644    0.9149    4.3702 C   0  0  1  0  0  0  0  0  0  0  0  0
    1.2416    0.8831    2.9157 N   0  0  0  0  0  0  0  0  0  0  0  0
    0.2484    0.9088    1.8488 C   0  0  0  0  0  0  0  0  0  0  0  0
    2.4770    1.5607    2.6166 C   0  0  0  0  0  0  0  0  0  0  0  0
    3.2991    1.1188    3.8329 C   0  0  0  0  0  0  0  0  0  0  0  0
    2.3478    1.2030    5.0586 C   0  0  1  0  0  0  0  0  0  0  0  0
    2.6541   -0.0360    5.9858 C   0  0  1  0  0  0  0  0  0  0  0  0
    3.7202    0.2429    6.8872 O   0  0  0  0  0  0  0  0  0  0  0  0
    4.5326   -0.8768    7.2215 C   0  0  0  0  0  0  0  0  0  0  0  0
    1.4264   -0.6390    6.7076 C   0  0  0  0  0  0  0  0  0  0  0  0
    0.4928    0.3859    7.3354 C   0  0  0  0  0  0  0  0  0  0  0  0
   -0.4878    1.3144    6.4905 C   0  0  1  0  0  0  0  0  0  0  0  0
   -1.5685    0.3770    6.4328 O   0  0  0  0  0  0  0  0  0  0  0  0
   -3.5806    4.1662   10.0539 H   0  0  0  0  0  0  0  0  0  0  0  0
   -2.1848    3.1282    9.9339 H   0  0  0  0  0  0  0  0  0  0  0  0
   -3.7790    2.5466    9.4079 H   0  0  0  0  0  0  0  0  0  0  0  0
   -3.1569    2.2085    7.0841 H   0  0  0  0  0  0  0  0  0  0  0  0
   -2.4463    3.5531    6.2279 H   0  0  0  0  0  0  0  0  0  0  0  0
   -1.0497    1.9963    8.4163 H   0  0  0  0  0  0  0  0  0  0  0  0
    0.0469    4.2884    6.7032 H   0  0  0  0  0  0  0  0  0  0  0  0
   -0.4417    4.3406    8.3403 H   0  0  0  0  0  0  0  0  0  0  0  0
    2.8294    4.2733    7.0756 H   0  0  0  0  0  0  0  0  0  0  0  0
    4.4687    2.7789    7.3416 H   0  0  0  0  0  0  0  0  0  0  0  0
    3.7013    2.7158    5.5996 H   0  0  0  0  0  0  0  0  0  0  0  0
    1.2578    7.0617    3.2848 H   0  0  0  0  0  0  0  0  0  0  0  0
   -0.7597    6.4500    2.7958 H   0  0  0  0  0  0  0  0  0  0  0  0
   -2.5416    4.6574    2.7392 H   0  0  0  0  0  0  0  0  0  0  0  0
   -2.5289    1.8985    4.7327 H   0  0  0  0  0  0  0  0  0  0  0  0
   -1.7534    1.3288    3.2634 H   0  0  0  0  0  0  0  0  0  0  0  0
    0.6935   -0.1320    4.4665 H   0  0  0  0  0  0  0  0  0  0  0  0
    0.7177    0.6711    0.8993 H   0  0  0  0  0  0  0  0  0  0  0  0
   -0.2074    1.8890    1.7499 H   0  0  0  0  0  0  0  0  0  0  0  0
   -0.5128    0.1510    2.0138 H   0  0  0  0  0  0  0  0  0  0  0  0
    2.9156    1.2174    1.6814 H   0  0  0  0  0  0  0  0  0  0  0  0
    2.3256    2.6334    2.5860 H   0  0  0  0  0  0  0  0  0  0  0  0
    3.6171    0.1010    3.6292 H   0  0  0  0  0  0  0  0  0  0  0  0
    4.2100    1.7052    3.9001 H   0  0  0  0  0  0  0  0  0  0  0  0
    3.0049   -0.8498    5.3527 H   0  0  0  0  0  0  0  0  0  0  0  0
    5.2103   -0.6139    8.0392 H   0  0  0  0  0  0  0  0  0  0  0  0
    5.1436   -1.1675    6.3619 H   0  0  0  0  0  0  0  0  0  0  0  0
    3.9708   -1.7551    7.5421 H   0  0  0  0  0  0  0  0  0  0  0  0
    0.8662   -1.3356    6.0789 H   0  0  0  0  0  0  0  0  0  0  0  0
    1.7810   -1.2814    7.5152 H   0  0  0  0  0  0  0  0  0  0  0  0
   -0.0995   -0.1574    8.0702 H   0  0  0  0  0  0  0  0  0  0  0  0
    1.1563    0.9114    8.0048 H   0  0  0  0  0  0  0  0  0  0  0  0
   -2.1038    0.6079    5.6937 H   0  0  0  0  0  0  0  0  0  0  0  0
  1  2  1  0
  1 34  1  0
  1 35  1  0
  1 36  1  0
  2  3  1  0
  3  4  1  0
  3 37  1  0
  3 38  1  0
  4 32  1  0
  4  5  1  0
  4 39  1  1
  5  6  1  0
  5 40  1  0
  5 41  1  0
  6  7  2  0
  6  8  1  0
  8  9  1  0
  8 10  1  0
  8 42  1  6
  9 43  1  0
 10 26  1  0
 10 11  1  0
 10 44  1  6
 11 12  1  0
 12 18  2  0
 12 13  1  0
 13 14  1  0
 13 15  2  0
 14 45  1  0
 15 16  1  0
 15 46  1  0
 16 17  2  0
 16 47  1  0
 17 20  1  0
 17 18  1  0
 18 19  1  0
 19 32  1  0
 19 20  1  6
 19 21  1  0
 20 48  1  0
 20 49  1  0
 21 26  1  0
 21 22  1  0
 21 50  1  1
 22 23  1  0
 22 24  1  0
 23 51  1  0
 23 52  1  0
 23 53  1  0
 24 25  1  0
 24 54  1  0
 24 55  1  0
 26 25  1  6
 25 56  1  0
 25 57  1  0
 26 27  1  0
 27 28  1  0
 27 30  1  0
 27 58  1  6
 28 29  1  0
 29 59  1  0
 29 60  1  0
 29 61  1  0
 30 31  1  0
 30 62  1  0
 30 63  1  0
 31 32  1  0
 31 64  1  0
 31 65  1  0
 32 33  1  6
 33 66  1  0
M  END
>  <i_m_ct_stereo_status>  (49) 
1

>  <s_m_source_file>  (49) 
/var/tmp/pbs.5076255.sched01/tmp4ovtozgc/0905bh7x9.sdf

>  <i_m_source_file_index>  (49) 
19

>  <i_lp_mmshare_version>  (49) 
48012

>  <i_f3d_flags>  (49) 
0

>  <s_epik_input>  (49) 
W09IXVtDQEBIXTFDKD1PKVtDSDJdW0NAQEhdKFtDSDJdT1tDSDNdKVtDQF0yKFtPSF0pW0NIMl1bQ0gyXVtDQEhdKE9bQ0gzXSlbQ0BAXTMoW0NAQEhdNE4oW0NIM10pW0NIMl1bQ0gyXTMpW0NIXTFPYyhjNVtDQF0yNDYpYyhbT0hdKVtjSF1bY0hdYzVbQ0gyXTY=

>  <s_epik_cmdline>  (49) 
J2VwaWtfcHl0aG9uJywgJy1waHQnLCAnMi4wJywgJy1waCcsICc3LjAnLCAnLXRuJywgJzgnLCAnLW1hJywgJzIwMCcsICctaW1hZScsICc8aW5maWxlLm1hZT4nLCAnLW9tYWUnLCAnPG91dGZpbGUubWFlPic=

>  <r_lp_tautomer_probability>  (49) 
0.99995

>  <r_epik_Ionization_Penalty>  (49) 
2.12529

>  <r_epik_Ionization_Penalty_Charging>  (49) 
0

>  <r_epik_Ionization_Penalty_Neutral>  (49) 
2.12529

>  <r_epik_State_Penalty>  (49) 
2.26308

>  <r_epik_Charging_Adjusted_Penalty>  (49) 
2.26308

>  <i_epik_Tot_Q>  (49) 
0

>  <i_epik_Tot_abs_Q>  (49) 
0

>  <s_lp_Force_Field>  (49) 
OPLS3e

>  <r_lp_Energy>  (49) 
110.187

>  <b_lp_Chiralities_Consistent>  (49) 
1

>  <s_lp_Variant>  (49) 
12:0-2

>  <s_i_glide_gridfile>  (49) 
pfpi4k_grid

>  <i_i_glide_lignum>  (49) 
19

>  <i_i_glide_rotatable_bonds>  (49) 
6

>  <r_i_docking_score>  (49) 
-2.34107

>  <r_i_glide_ligand_efficiency>  (49) 
-0.0709414

>  <r_i_glide_ligand_efficiency_sa>  (49) 
-0.227547

>  <r_i_glide_ligand_efficiency_ln>  (49) 
-0.520641

>  <r_i_glide_gscore>  (49) 
-2.34107

>  <r_i_glide_lipo>  (49) 
-0.136018

>  <r_i_glide_hbond>  (49) 
-0.16

>  <r_i_glide_metal>  (49) 
-0

>  <r_i_glide_rewards>  (49) 
-0.275918

>  <r_i_glide_evdw>  (49) 
-20.9293

>  <r_i_glide_ecoul>  (49) 
-5.45302

>  <r_i_glide_erotb>  (49) 
0.0952852

>  <r_i_glide_esite>  (49) 
0

>  <r_i_glide_emodel>  (49) 
-29.2529

>  <r_i_glide_energy>  (49) 
-26.3823

>  <r_i_glide_einternal>  (49) 
1.72737

>  <r_i_glide_intrahb_reward>  (49) 
-0

>  <i_i_glide_confnum>  (49) 
4

>  <i_i_glide_posenum>  (49) 
20

>  <r_i_glide_eff_state_penalty>  (49) 
0

>  <ligand_id>  (49) 
12

>  <original_smiles>  (49) 
COCC1CC(=O)C(O)C2Oc3c(O)ccc4c3C3(C4)C4N(C)CCC24C(OC)CCC13O

>  <smiles>  (49) 
[H]Oc1c([H])c([H])c2c3c1OC1([H])C([H])(O[H])C(=O)C([H])([H])C([H])(C([H])([H])OC([H])([H])[H])C4(O[H])C([H])([H])C([H])([H])C([H])(OC([H])([H])[H])C15C([H])([H])C([H])([H])N(C([H])([H])[H])C5([H])C34C2([H])[H]

$$$$
12:1:1
     RDKit          3D

 66 71  0  0  1  0  0  0  0  0999 V2000
   -3.7024    3.1902    8.6137 C   0  0  0  0  0  0  0  0  0  0  0  0
   -2.5360    2.3768    8.5860 O   0  0  0  0  0  0  0  0  0  0  0  0
   -1.9344    2.3647    7.3028 C   0  0  0  0  0  0  0  0  0  0  0  0
   -0.5791    1.5947    7.3643 C   0  0  2  0  0  0  0  0  0  0  0  0
    0.5311    2.6258    7.6928 C   0  0  0  0  0  0  0  0  0  0  0  0
    1.8887    2.0221    8.0317 C   0  0  0  0  0  0  0  0  0  0  0  0
    2.0474    1.5627    9.1654 O   0  0  0  0  0  0  0  0  0  0  0  0
    3.0654    1.9967    7.0219 C   0  0  1  0  0  0  0  0  0  0  0  0
    4.1549    1.2766    7.5649 O   0  0  0  0  0  0  0  0  0  0  0  0
    2.9655    1.7782    5.4569 C   0  0  2  0  0  0  0  0  0  0  0  0
    2.7844    3.0542    4.8639 O   0  0  0  0  0  0  0  0  0  0  0  0
    1.5094    3.5040    4.6659 C   0  0  0  0  0  0  0  0  0  0  0  0
    1.2469    4.8596    4.2940 C   0  0  0  0  0  0  0  0  0  0  0  0
    2.2711    5.7678    4.3221 O   0  0  0  0  0  0  0  0  0  0  0  0
   -0.0421    5.3399    3.8596 C   0  0  0  0  0  0  0  0  0  0  0  0
   -1.1709    4.4692    3.6872 C   0  0  0  0  0  0  0  0  0  0  0  0
   -0.9490    3.1671    4.0955 C   0  0  0  0  0  0  0  0  0  0  0  0
    0.3371    2.7428    4.6170 C   0  0  0  0  0  0  0  0  0  0  0  0
   -0.0108    1.2597    4.7216 C   0  0  1  0  0  0  0  0  0  0  0  0
   -1.3950    1.7460    4.0430 C   0  0  0  0  0  0  0  0  0  0  0  0
    1.0633    0.4928    3.9282 C   0  0  1  0  0  0  0  0  0  0  0  0
    1.2733    0.7138    2.4882 N   0  0  0  0  0  0  0  0  0  0  0  0
    0.2452    1.0462    1.5205 C   0  0  0  0  0  0  0  0  0  0  0  0
    2.5575    1.3045    2.2321 C   0  0  0  0  0  0  0  0  0  0  0  0
    3.3696    0.5608    3.2704 C   0  0  0  0  0  0  0  0  0  0  0  0
    2.5086    0.4978    4.5658 C   0  0  1  0  0  0  0  0  0  0  0  0
    2.7257   -0.9068    5.2255 C   0  0  1  0  0  0  0  0  0  0  0  0
    3.7959   -0.9599    6.1586 O   0  0  0  0  0  0  0  0  0  0  0  0
    5.0998   -0.9367    5.5817 C   0  0  0  0  0  0  0  0  0  0  0  0
    1.4685   -1.5269    5.8814 C   0  0  0  0  0  0  0  0  0  0  0  0
    0.6778   -0.5650    6.7601 C   0  0  0  0  0  0  0  0  0  0  0  0
   -0.2490    0.6094    6.1804 C   0  0  1  0  0  0  0  0  0  0  0  0
   -1.4237   -0.1790    6.0282 O   0  0  0  0  0  0  0  0  0  0  0  0
   -4.1466    3.1995    9.6102 H   0  0  0  0  0  0  0  0  0  0  0  0
   -4.4779    2.8667    7.9125 H   0  0  0  0  0  0  0  0  0  0  0  0
   -3.4197    4.2124    8.3718 H   0  0  0  0  0  0  0  0  0  0  0  0
   -2.7034    1.8947    6.7001 H   0  0  0  0  0  0  0  0  0  0  0  0
   -1.7678    3.3783    6.9238 H   0  0  0  0  0  0  0  0  0  0  0  0
   -0.6691    0.9592    8.2443 H   0  0  0  0  0  0  0  0  0  0  0  0
    0.6376    3.3898    6.9379 H   0  0  0  0  0  0  0  0  0  0  0  0
    0.2122    3.1725    8.5807 H   0  0  0  0  0  0  0  0  0  0  0  0
    3.4178    3.0229    7.1040 H   0  0  0  0  0  0  0  0  0  0  0  0
    3.9597    0.3579    7.4859 H   0  0  0  0  0  0  0  0  0  0  0  0
    4.0309    1.7540    5.2908 H   0  0  0  0  0  0  0  0  0  0  0  0
    2.0440    6.6071    3.9727 H   0  0  0  0  0  0  0  0  0  0  0  0
   -0.1213    6.3623    3.5726 H   0  0  0  0  0  0  0  0  0  0  0  0
   -2.0992    4.7950    3.2278 H   0  0  0  0  0  0  0  0  0  0  0  0
   -2.3140    1.6876    4.5933 H   0  0  0  0  0  0  0  0  0  0  0  0
   -1.6011    1.3921    3.0429 H   0  0  0  0  0  0  0  0  0  0  0  0
    0.6971   -0.5271    3.8424 H   0  0  0  0  0  0  0  0  0  0  0  0
    0.6527    0.9593    0.5162 H   0  0  0  0  0  0  0  0  0  0  0  0
   -0.1168    2.0682    1.6383 H   0  0  0  0  0  0  0  0  0  0  0  0
   -0.5838    0.3403    1.5734 H   0  0  0  0  0  0  0  0  0  0  0  0
    2.9071    1.1010    1.2198 H   0  0  0  0  0  0  0  0  0  0  0  0
    2.5258    2.3743    2.4194 H   0  0  0  0  0  0  0  0  0  0  0  0
    3.5466   -0.4369    2.8694 H   0  0  0  0  0  0  0  0  0  0  0  0
    4.3414    1.0253    3.3746 H   0  0  0  0  0  0  0  0  0  0  0  0
    2.9698   -1.6494    4.4620 H   0  0  0  0  0  0  0  0  0  0  0  0
    5.8424   -1.1128    6.3597 H   0  0  0  0  0  0  0  0  0  0  0  0
    5.3383    0.0357    5.1600 H   0  0  0  0  0  0  0  0  0  0  0  0
    5.2359   -1.6856    4.7998 H   0  0  0  0  0  0  0  0  0  0  0  0
    0.8085   -2.0284    5.1732 H   0  0  0  0  0  0  0  0  0  0  0  0
    1.8185   -2.3467    6.5094 H   0  0  0  0  0  0  0  0  0  0  0  0
    0.0589   -1.1891    7.4015 H   0  0  0  0  0  0  0  0  0  0  0  0
    1.4170   -0.2636    7.4781 H   0  0  0  0  0  0  0  0  0  0  0  0
   -1.9262    0.1837    5.3258 H   0  0  0  0  0  0  0  0  0  0  0  0
  1  2  1  0
  1 34  1  0
  1 35  1  0
  1 36  1  0
  2  3  1  0
  3  4  1  0
  3 37  1  0
  3 38  1  0
  4 32  1  0
  4  5  1  0
  4 39  1  1
  5  6  1  0
  5 40  1  0
  5 41  1  0
  6  7  2  0
  6  8  1  0
  8  9  1  0
  8 10  1  0
  8 42  1  6
  9 43  1  0
 10 26  1  0
 10 11  1  0
 10 44  1  6
 11 12  1  0
 12 18  2  0
 12 13  1  0
 13 14  1  0
 13 15  2  0
 14 45  1  0
 15 16  1  0
 15 46  1  0
 16 17  2  0
 16 47  1  0
 17 20  1  0
 17 18  1  0
 18 19  1  0
 19 32  1  0
 19 20  1  6
 19 21  1  0
 20 48  1  0
 20 49  1  0
 21 26  1  0
 21 22  1  0
 21 50  1  6
 22 23  1  0
 22 24  1  0
 23 51  1  0
 23 52  1  0
 23 53  1  0
 24 25  1  0
 24 54  1  0
 24 55  1  0
 26 25  1  6
 25 56  1  0
 25 57  1  0
 26 27  1  0
 27 28  1  0
 27 30  1  0
 27 58  1  6
 28 29  1  0
 29 59  1  0
 29 60  1  0
 29 61  1  0
 30 31  1  0
 30 62  1  0
 30 63  1  0
 31 32  1  0
 31 64  1  0
 31 65  1  0
 32 33  1  6
 33 66  1  0
M  END
>  <i_m_ct_stereo_status>  (50) 
1

>  <s_m_source_file>  (50) 
/var/tmp/pbs.5076255.sched01/tmp4ovtozgc/0905bh7x9.sdf

>  <i_m_source_file_index>  (50) 
19

>  <i_lp_mmshare_version>  (50) 
48012

>  <i_f3d_flags>  (50) 
0

>  <s_epik_input>  (50) 
W09IXVtDQEBIXTFDKD1PKVtDSDJdW0NAQEhdKFtDSDJdT1tDSDNdKVtDQF0yKFtPSF0pW0NIMl1bQ0gyXVtDQEhdKE9bQ0gzXSlbQ0BAXTMoW0NAQEhdNE4oW0NIM10pW0NIMl1bQ0gyXTMpW0NIXTFPYyhjNVtDQF0yNDYpYyhbT0hdKVtjSF1bY0hdYzVbQ0gyXTY=

>  <s_epik_cmdline>  (50) 
J2VwaWtfcHl0aG9uJywgJy1waHQnLCAnMi4wJywgJy1waCcsICc3LjAnLCAnLXRuJywgJzgnLCAnLW1hJywgJzIwMCcsICctaW1hZScsICc8aW5maWxlLm1hZT4nLCAnLW9tYWUnLCAnPG91dGZpbGUubWFlPic=

>  <r_lp_tautomer_probability>  (50) 
0.99995

>  <r_epik_Ionization_Penalty>  (50) 
2.12529

>  <r_epik_Ionization_Penalty_Charging>  (50) 
0

>  <r_epik_Ionization_Penalty_Neutral>  (50) 
2.12529

>  <r_epik_State_Penalty>  (50) 
2.26308

>  <r_epik_Charging_Adjusted_Penalty>  (50) 
2.26308

>  <i_epik_Tot_Q>  (50) 
0

>  <i_epik_Tot_abs_Q>  (50) 
0

>  <s_lp_Force_Field>  (50) 
OPLS3e

>  <r_lp_Energy>  (50) 
110.187

>  <b_lp_Chiralities_Consistent>  (50) 
1

>  <s_lp_Variant>  (50) 
12:0-2

>  <s_i_glide_gridfile>  (50) 
pfpi4k_grid

>  <i_i_glide_lignum>  (50) 
19

>  <i_i_glide_rotatable_bonds>  (50) 
6

>  <r_i_docking_score>  (50) 
-2.32797

>  <r_i_glide_ligand_efficiency>  (50) 
-0.0705445

>  <r_i_glide_ligand_efficiency_sa>  (50) 
-0.226274

>  <r_i_glide_ligand_efficiency_ln>  (50) 
-0.517728

>  <r_i_glide_gscore>  (50) 
-2.32797

>  <r_i_glide_lipo>  (50) 
-0.0386961

>  <r_i_glide_hbond>  (50) 
-0.0895582

>  <r_i_glide_metal>  (50) 
-0

>  <r_i_glide_rewards>  (50) 
-0.775918

>  <r_i_glide_evdw>  (50) 
-23.1713

>  <r_i_glide_ecoul>  (50) 
-2.40345

>  <r_i_glide_erotb>  (50) 
0.0952852

>  <r_i_glide_esite>  (50) 
0

>  <r_i_glide_emodel>  (50) 
-31.5556

>  <r_i_glide_energy>  (50) 
-25.5747

>  <r_i_glide_einternal>  (50) 
4.2704

>  <r_i_glide_intrahb_reward>  (50) 
-0.5

>  <i_i_glide_confnum>  (50) 
1

>  <i_i_glide_posenum>  (50) 
30

>  <r_i_glide_eff_state_penalty>  (50) 
0

>  <ligand_id>  (50) 
12

>  <original_smiles>  (50) 
COCC1CC(=O)C(O)C2Oc3c(O)ccc4c3C3(C4)C4N(C)CCC24C(OC)CCC13O

>  <smiles>  (50) 
[H]Oc1c([H])c([H])c2c3c1OC1([H])C([H])(O[H])C(=O)C([H])([H])C([H])(C([H])([H])OC([H])([H])[H])C4(O[H])C([H])([H])C([H])([H])C([H])(OC([H])([H])[H])C15C([H])([H])C([H])([H])N(C([H])([H])[H])C5([H])C34C2([H])[H]

$$$$
12:1:2
     RDKit          3D

 66 71  0  0  1  0  0  0  0  0999 V2000
   -4.2202    3.2796    8.9220 C   0  0  0  0  0  0  0  0  0  0  0  0
   -2.8431    3.5387    8.6951 O   0  0  0  0  0  0  0  0  0  0  0  0
   -2.1900    2.4794    8.0178 C   0  0  0  0  0  0  0  0  0  0  0  0
   -0.6542    2.7024    8.0016 C   0  0  2  0  0  0  0  0  0  0  0  0
   -0.3392    4.1540    7.5603 C   0  0  0  0  0  0  0  0  0  0  0  0
    1.1151    4.5788    7.7378 C   0  0  0  0  0  0  0  0  0  0  0  0
    1.4874    4.8968    8.8678 O   0  0  0  0  0  0  0  0  0  0  0  0
    2.0976    4.6732    6.5417 C   0  0  1  0  0  0  0  0  0  0  0  0
    3.3947    5.0055    6.9943 O   0  0  0  0  0  0  0  0  0  0  0  0
    2.1513    3.7003    5.2941 C   0  0  2  0  0  0  0  0  0  0  0  0
    1.2968    4.2537    4.3234 O   0  0  0  0  0  0  0  0  0  0  0  0
   -0.0291    3.8253    4.3077 C   0  0  0  0  0  0  0  0  0  0  0  0
   -1.0199    4.4864    3.5285 C   0  0  0  0  0  0  0  0  0  0  0  0
   -0.7629    5.6793    2.9034 O   0  0  0  0  0  0  0  0  0  0  0  0
   -2.3396    3.9529    3.3122 C   0  0  0  0  0  0  0  0  0  0  0  0
   -2.7712    2.6931    3.8035 C   0  0  0  0  0  0  0  0  0  0  0  0
   -1.8245    2.0479    4.5977 C   0  0  0  0  0  0  0  0  0  0  0  0
   -0.5350    2.6440    4.8816 C   0  0  0  0  0  0  0  0  0  0  0  0
    0.0315    1.4777    5.6702 C   0  0  1  0  0  0  0  0  0  0  0  0
   -1.3844    0.7945    5.2907 C   0  0  0  0  0  0  0  0  0  0  0  0
    1.3543    1.0738    4.9841 C   0  0  1  0  0  0  0  0  0  0  0  0
    1.3889    0.6468    3.5769 N   0  0  0  0  0  0  0  0  0  0  0  0
    0.3680   -0.1188    2.8790 C   0  0  0  0  0  0  0  0  0  0  0  0
    2.0997    1.6027    2.7697 C   0  0  0  0  0  0  0  0  0  0  0  0
    3.1888    1.9915    3.7595 C   0  0  0  0  0  0  0  0  0  0  0  0
    2.5166    2.1218    5.1545 C   0  0  1  0  0  0  0  0  0  0  0  0
    3.5029    1.5272    6.2195 C   0  0  1  0  0  0  0  0  0  0  0  0
    4.4324    2.5090    6.6642 O   0  0  0  0  0  0  0  0  0  0  0  0
    5.7243    2.0094    7.0033 C   0  0  0  0  0  0  0  0  0  0  0  0
    2.8305    0.7784    7.4004 C   0  0  0  0  0  0  0  0  0  0  0  0
    1.6229    1.4987    7.9956 C   0  0  0  0  0  0  0  0  0  0  0  0
    0.2080    1.5880    7.2706 C   0  0  1  0  0  0  0  0  0  0  0  0
   -0.2838    0.3386    7.7256 O   0  0  0  0  0  0  0  0  0  0  0  0
   -4.7262    4.1905    9.2288 H   0  0  0  0  0  0  0  0  0  0  0  0
   -4.3223    2.5733    9.7400 H   0  0  0  0  0  0  0  0  0  0  0  0
   -4.7545    2.8938    8.0528 H   0  0  0  0  0  0  0  0  0  0  0  0
   -2.4103    1.5386    8.5217 H   0  0  0  0  0  0  0  0  0  0  0  0
   -2.6220    2.4486    7.0247 H   0  0  0  0  0  0  0  0  0  0  0  0
   -0.3799    2.6501    9.0603 H   0  0  0  0  0  0  0  0  0  0  0  0
   -0.7015    4.3861    6.5687 H   0  0  0  0  0  0  0  0  0  0  0  0
   -0.8969    4.8270    8.2093 H   0  0  0  0  0  0  0  0  0  0  0  0
    1.7780    5.6218    6.1044 H   0  0  0  0  0  0  0  0  0  0  0  0
    3.9437    5.1386    6.2308 H   0  0  0  0  0  0  0  0  0  0  0  0
    3.0538    4.1322    4.8759 H   0  0  0  0  0  0  0  0  0  0  0  0
   -0.2695    5.5081    2.1094 H   0  0  0  0  0  0  0  0  0  0  0  0
   -3.0290    4.5102    2.6845 H   0  0  0  0  0  0  0  0  0  0  0  0
   -3.7316    2.2745    3.5747 H   0  0  0  0  0  0  0  0  0  0  0  0
   -2.0762    0.6061    6.0965 H   0  0  0  0  0  0  0  0  0  0  0  0
   -1.3537   -0.0619    4.6473 H   0  0  0  0  0  0  0  0  0  0  0  0
    1.6293    0.1249    5.4158 H   0  0  0  0  0  0  0  0  0  0  0  0
    0.7455   -0.4620    1.9177 H   0  0  0  0  0  0  0  0  0  0  0  0
   -0.5109    0.4879    2.6805 H   0  0  0  0  0  0  0  0  0  0  0  0
    0.0957   -1.0098    3.4402 H   0  0  0  0  0  0  0  0  0  0  0  0
    2.5065    1.1564    1.8562 H   0  0  0  0  0  0  0  0  0  0  0  0
    1.4533    2.4421    2.5147 H   0  0  0  0  0  0  0  0  0  0  0  0
    3.9276    1.1917    3.7337 H   0  0  0  0  0  0  0  0  0  0  0  0
    3.7046    2.8848    3.4182 H   0  0  0  0  0  0  0  0  0  0  0  0
    4.1040    0.7534    5.7363 H   0  0  0  0  0  0  0  0  0  0  0  0
    6.3084    2.7888    7.4977 H   0  0  0  0  0  0  0  0  0  0  0  0
    6.2559    1.7131    6.0977 H   0  0  0  0  0  0  0  0  0  0  0  0
    5.7087    1.1480    7.6755 H   0  0  0  0  0  0  0  0  0  0  0  0
    2.5897   -0.2569    7.1565 H   0  0  0  0  0  0  0  0  0  0  0  0
    3.5627    0.6680    8.1989 H   0  0  0  0  0  0  0  0  0  0  0  0
    1.4711    1.0592    8.9826 H   0  0  0  0  0  0  0  0  0  0  0  0
    2.0531    2.4390    8.2920 H   0  0  0  0  0  0  0  0  0  0  0  0
    0.3544   -0.3153    7.4672 H   0  0  0  0  0  0  0  0  0  0  0  0
  1  2  1  0
  1 34  1  0
  1 35  1  0
  1 36  1  0
  2  3  1  0
  3  4  1  0
  3 37  1  0
  3 38  1  0
  4 32  1  0
  4  5  1  0
  4 39  1  1
  5  6  1  0
  5 40  1  0
  5 41  1  0
  6  7  2  0
  6  8  1  0
  8  9  1  0
  8 10  1  0
  8 42  1  6
  9 43  1  0
 10 26  1  0
 10 11  1  0
 10 44  1  6
 11 12  1  0
 12 18  2  0
 12 13  1  0
 13 14  1  0
 13 15  2  0
 14 45  1  0
 15 16  1  0
 15 46  1  0
 16 17  2  0
 16 47  1  0
 17 20  1  0
 17 18  1  0
 18 19  1  0
 19 32  1  0
 19 20  1  1
 19 21  1  0
 20 48  1  0
 20 49  1  0
 21 26  1  0
 21 22  1  0
 21 50  1  1
 22 23  1  0
 22 24  1  0
 23 51  1  0
 23 52  1  0
 23 53  1  0
 24 25  1  0
 24 54  1  0
 24 55  1  0
 26 25  1  6
 25 56  1  0
 25 57  1  0
 26 27  1  0
 27 28  1  0
 27 30  1  0
 27 58  1  6
 28 29  1  0
 29 59  1  0
 29 60  1  0
 29 61  1  0
 30 31  1  0
 30 62  1  0
 30 63  1  0
 31 32  1  0
 31 64  1  0
 31 65  1  0
 32 33  1  1
 33 66  1  0
M  END
>  <i_m_ct_stereo_status>  (51) 
1

>  <s_m_source_file>  (51) 
/var/tmp/pbs.5076255.sched01/tmp4ovtozgc/0905bh7x9.sdf

>  <i_m_source_file_index>  (51) 
19

>  <i_lp_mmshare_version>  (51) 
48012

>  <i_f3d_flags>  (51) 
0

>  <s_epik_input>  (51) 
W09IXVtDQEBIXTFDKD1PKVtDSDJdW0NAQEhdKFtDSDJdT1tDSDNdKVtDQF0yKFtPSF0pW0NIMl1bQ0gyXVtDQEhdKE9bQ0gzXSlbQ0BAXTMoW0NAQEhdNE4oW0NIM10pW0NIMl1bQ0gyXTMpW0NIXTFPYyhjNVtDQF0yNDYpYyhbT0hdKVtjSF1bY0hdYzVbQ0gyXTY=

>  <s_epik_cmdline>  (51) 
J2VwaWtfcHl0aG9uJywgJy1waHQnLCAnMi4wJywgJy1waCcsICc3LjAnLCAnLXRuJywgJzgnLCAnLW1hJywgJzIwMCcsICctaW1hZScsICc8aW5maWxlLm1hZT4nLCAnLW9tYWUnLCAnPG91dGZpbGUubWFlPic=

>  <r_lp_tautomer_probability>  (51) 
0.99995

>  <r_epik_Ionization_Penalty>  (51) 
2.12529

>  <r_epik_Ionization_Penalty_Charging>  (51) 
0

>  <r_epik_Ionization_Penalty_Neutral>  (51) 
2.12529

>  <r_epik_State_Penalty>  (51) 
2.26308

>  <r_epik_Charging_Adjusted_Penalty>  (51) 
2.26308

>  <i_epik_Tot_Q>  (51) 
0

>  <i_epik_Tot_abs_Q>  (51) 
0

>  <s_lp_Force_Field>  (51) 
OPLS3e

>  <r_lp_Energy>  (51) 
110.187

>  <b_lp_Chiralities_Consistent>  (51) 
1

>  <s_lp_Variant>  (51) 
12:0-2

>  <s_i_glide_gridfile>  (51) 
pfpi4k_grid

>  <i_i_glide_lignum>  (51) 
19

>  <i_i_glide_rotatable_bonds>  (51) 
6

>  <r_i_docking_score>  (51) 
-2.20387

>  <r_i_glide_ligand_efficiency>  (51) 
-0.066784

>  <r_i_glide_ligand_efficiency_sa>  (51) 
-0.214212

>  <r_i_glide_ligand_efficiency_ln>  (51) 
-0.49013

>  <r_i_glide_gscore>  (51) 
-2.20387

>  <r_i_glide_lipo>  (51) 
-0.0733893

>  <r_i_glide_hbond>  (51) 
0

>  <r_i_glide_metal>  (51) 
-0

>  <r_i_glide_rewards>  (51) 
-0.275918

>  <r_i_glide_evdw>  (51) 
-18.7896

>  <r_i_glide_ecoul>  (51) 
-6.73582

>  <r_i_glide_erotb>  (51) 
0.0952852

>  <r_i_glide_esite>  (51) 
0

>  <r_i_glide_emodel>  (51) 
-25.9281

>  <r_i_glide_energy>  (51) 
-25.5254

>  <r_i_glide_einternal>  (51) 
5.46341

>  <r_i_glide_intrahb_reward>  (51) 
-0

>  <i_i_glide_confnum>  (51) 
4

>  <i_i_glide_posenum>  (51) 
38

>  <r_i_glide_eff_state_penalty>  (51) 
0

>  <ligand_id>  (51) 
12

>  <original_smiles>  (51) 
COCC1CC(=O)C(O)C2Oc3c(O)ccc4c3C3(C4)C4N(C)CCC24C(OC)CCC13O

>  <smiles>  (51) 
[H]Oc1c([H])c([H])c2c3c1OC1([H])C([H])(O[H])C(=O)C([H])([H])C([H])(C([H])([H])OC([H])([H])[H])C4(O[H])C([H])([H])C([H])([H])C([H])(OC([H])([H])[H])C15C([H])([H])C([H])([H])N(C([H])([H])[H])C5([H])C34C2([H])[H]

$$$$
14:0:0
     RDKit          3D

 44 48  0  0  1  0  0  0  0  0999 V2000
    1.3751   -3.9090   -1.5169 C   0  0  0  0  0  0  0  0  0  0  0  0
    2.6385   -3.4902   -1.5531 C   0  0  0  0  0  0  0  0  0  0  0  0
    3.2510   -2.5943   -2.5435 C   0  0  2  0  0  0  0  0  0  0  0  0
    4.5912   -2.9373   -2.9780 O   0  0  0  0  0  0  0  0  0  0  0  0
    4.4481   -2.0169   -1.8817 C   0  0  1  0  0  0  0  0  0  0  0  0
    4.9699   -0.6603   -2.2352 C   0  0  0  0  0  0  0  0  0  0  0  0
    4.4387   -2.4889   -0.4056 C   0  0  2  0  0  0  0  0  0  0  0  0
    3.5043   -1.5103    0.3685 C   0  0  0  0  0  0  0  0  0  0  0  0
    4.2432   -1.0845    1.6065 C   0  0  1  0  0  0  0  0  0  0  0  0
    3.3787   -0.4273    2.6938 C   0  0  0  0  0  0  0  0  0  0  0  0
    5.1287   -2.3102    1.9230 C   0  0  1  0  0  0  0  0  0  0  0  0
    4.3277   -3.4696    2.6512 C   0  0  1  0  0  0  0  0  0  0  0  0
    3.7687   -3.0376    3.8710 O   0  0  0  0  0  0  0  0  0  0  0  0
    3.3301   -4.0321    1.8294 O   0  0  0  0  0  0  0  0  0  0  0  0
    3.7243   -4.7481    0.6449 C   0  0  2  0  0  0  0  0  0  0  0  0
    5.1683   -5.3180    0.7597 C   0  0  0  0  0  0  0  0  0  0  0  0
    6.2365   -4.2133    0.5599 C   0  0  0  0  0  0  0  0  0  0  0  0
    5.6970   -2.7457    0.5229 C   0  0  1  0  0  0  0  0  0  0  0  0
    6.8839   -1.8455    0.1401 C   0  0  0  0  0  0  0  0  0  0  0  0
    3.7515   -3.8366   -0.6029 C   0  0  1  0  0  0  0  0  0  0  0  0
    1.0534   -4.6392   -0.7991 H   0  0  0  0  0  0  0  0  0  0  0  0
    0.6646   -3.5255   -2.2360 H   0  0  0  0  0  0  0  0  0  0  0  0
    2.6036   -2.0124   -3.1778 H   0  0  0  0  0  0  0  0  0  0  0  0
    4.5908    0.1196   -1.5841 H   0  0  0  0  0  0  0  0  0  0  0  0
    4.6832   -0.4311   -3.2638 H   0  0  0  0  0  0  0  0  0  0  0  0
    6.0488   -0.7155   -2.1792 H   0  0  0  0  0  0  0  0  0  0  0  0
    3.1713   -0.6592   -0.2120 H   0  0  0  0  0  0  0  0  0  0  0  0
    2.5836   -2.0069    0.6604 H   0  0  0  0  0  0  0  0  0  0  0  0
    4.9245   -0.2958    1.3069 H   0  0  0  0  0  0  0  0  0  0  0  0
    2.5085   -1.0340    2.9456 H   0  0  0  0  0  0  0  0  0  0  0  0
    3.0009    0.5341    2.3453 H   0  0  0  0  0  0  0  0  0  0  0  0
    3.9505   -0.2404    3.6033 H   0  0  0  0  0  0  0  0  0  0  0  0
    5.9397   -2.0194    2.5879 H   0  0  0  0  0  0  0  0  0  0  0  0
    5.0141   -4.2583    2.9776 H   0  0  0  0  0  0  0  0  0  0  0  0
    4.4717   -2.8880    4.4803 H   0  0  0  0  0  0  0  0  0  0  0  0
    3.0386   -5.5813    0.4889 H   0  0  0  0  0  0  0  0  0  0  0  0
    5.3118   -5.8669    1.6873 H   0  0  0  0  0  0  0  0  0  0  0  0
    5.3251   -6.0814   -0.0009 H   0  0  0  0  0  0  0  0  0  0  0  0
    6.9960   -4.3018    1.3331 H   0  0  0  0  0  0  0  0  0  0  0  0
    6.7556   -4.4164   -0.3715 H   0  0  0  0  0  0  0  0  0  0  0  0
    7.6791   -1.9176    0.8753 H   0  0  0  0  0  0  0  0  0  0  0  0
    6.6067   -0.7963    0.0783 H   0  0  0  0  0  0  0  0  0  0  0  0
    7.3001   -2.1439   -0.8198 H   0  0  0  0  0  0  0  0  0  0  0  0
    4.3400   -4.4548   -1.2782 H   0  0  0  0  0  0  0  0  0  0  0  0
  1  2  2  0
  1 21  1  0
  1 22  1  0
  2 20  1  0
  2  3  1  0
  3  5  1  0
  3  4  1  0
  3 23  1  6
  4  5  1  0
  5  6  1  1
  5  7  1  0
  6 24  1  0
  6 25  1  0
  6 26  1  0
  7 18  1  0
  7 20  1  0
  7  8  1  1
  8  9  1  0
  8 27  1  0
  8 28  1  0
  9 10  1  0
  9 11  1  0
  9 29  1  6
 10 30  1  0
 10 31  1  0
 10 32  1  0
 11 18  1  0
 11 12  1  0
 11 33  1  1
 12 13  1  0
 12 14  1  0
 12 34  1  1
 13 35  1  0
 14 15  1  0
 15 16  1  0
 15 20  1  0
 15 36  1  6
 16 17  1  0
 16 37  1  0
 16 38  1  0
 17 18  1  0
 17 39  1  0
 17 40  1  0
 18 19  1  6
 19 41  1  0
 19 42  1  0
 19 43  1  0
 20 44  1  6
M  END
>  <i_m_ct_stereo_status>  (52) 
1

>  <s_m_source_file>  (52) 
/var/tmp/pbs.5076255.sched01/tmp4ovtozgc/0905bh7x9.sdf

>  <i_m_source_file_index>  (52) 
21

>  <i_lp_mmshare_version>  (52) 
48012

>  <i_f3d_flags>  (52) 
0

>  <s_epik_input>  (52) 
W0NIM11bQ0BAXTEoW0NAXTIzNClbQ0BASF0oTzEpQyg9W0NIMl0pW0NAQEhdNFtDQEBIXTVPW0NASF0oW09IXSlbQ0BASF0oW0NAQEhdKFtDSDJdMilbQ0gzXSlbQ0BAXTMoW0NIM10pW0NIMl1bQ0gyXTU=

>  <s_epik_cmdline>  (52) 
J2VwaWtfcHl0aG9uJywgJy1waHQnLCAnMi4wJywgJy1waCcsICc3LjAnLCAnLXRuJywgJzgnLCAnLW1hJywgJzIwMCcsICctaW1hZScsICc8aW5maWxlLm1hZT4nLCAnLW9tYWUnLCAnPG91dGZpbGUubWFlPic=

>  <r_lp_tautomer_probability>  (52) 
1

>  <r_epik_Ionization_Penalty>  (52) 
3.13267e-08

>  <r_epik_Ionization_Penalty_Charging>  (52) 
0

>  <r_epik_Ionization_Penalty_Neutral>  (52) 
3.13267e-08

>  <r_epik_State_Penalty>  (52) 
-0

>  <r_epik_Charging_Adjusted_Penalty>  (52) 
0

>  <i_epik_Tot_Q>  (52) 
0

>  <i_epik_Tot_abs_Q>  (52) 
0

>  <s_epik_Chemistry_Notes>  (52) 
This compound contains an acetal/aminal-like group ( X-CH(R)-Y where X, Y are N, S, or O) that may be acid/base labile, releasing an aldehyde.

>  <s_lp_Force_Field>  (52) 
OPLS3e

>  <r_lp_Energy>  (52) 
69.9951

>  <b_lp_Chiralities_Consistent>  (52) 
1

>  <s_lp_Variant>  (52) 
14:0-1

>  <s_i_glide_gridfile>  (52) 
pfpi4k_grid

>  <i_i_glide_lignum>  (52) 
21

>  <i_i_glide_rotatable_bonds>  (52) 
1

>  <r_i_docking_score>  (52) 
-2.7888

>  <r_i_glide_ligand_efficiency>  (52) 
-0.13944

>  <r_i_glide_ligand_efficiency_sa>  (52) 
-0.378498

>  <r_i_glide_ligand_efficiency_ln>  (52) 
-0.697944

>  <r_i_glide_gscore>  (52) 
-2.7888

>  <r_i_glide_lipo>  (52) 
-0.420631

>  <r_i_glide_hbond>  (52) 
0

>  <r_i_glide_metal>  (52) 
-0

>  <r_i_glide_rewards>  (52) 
-1.53999

>  <r_i_glide_evdw>  (52) 
-18.0917

>  <r_i_glide_ecoul>  (52) 
0.509398

>  <r_i_glide_erotb>  (52) 
0

>  <r_i_glide_esite>  (52) 
0

>  <r_i_glide_emodel>  (52) 
-18.8312

>  <r_i_glide_energy>  (52) 
-17.5823

>  <r_i_glide_einternal>  (52) 
1.90772

>  <r_i_glide_intrahb_reward>  (52) 
-0

>  <i_i_glide_confnum>  (52) 
2

>  <i_i_glide_posenum>  (52) 
8

>  <r_i_glide_eff_state_penalty>  (52) 
0

>  <ligand_id>  (52) 
14

>  <original_smiles>  (52) 
C=C1C2OC2(C)C23CC(C)C4C(O)OC(CCC42C)C13

>  <smiles>  (52) 
[H]OC1([H])OC2([H])C([H])([H])C([H])([H])C3(C([H])([H])[H])C1([H])C([H])(C([H])([H])[H])C([H])([H])C31C2([H])C(=C([H])[H])C2([H])OC21C([H])([H])[H]

$$$$
14:0:1
     RDKit          3D

 44 48  0  0  1  0  0  0  0  0999 V2000
    1.4679   -4.2821   -1.1241 C   0  0  0  0  0  0  0  0  0  0  0  0
    2.6856   -3.7435   -1.2230 C   0  0  0  0  0  0  0  0  0  0  0  0
    3.1562   -2.7835   -2.2557 C   0  0  2  0  0  0  0  0  0  0  0  0
    4.4899   -3.0010   -2.7717 O   0  0  0  0  0  0  0  0  0  0  0  0
    4.3461   -2.0713   -1.6908 C   0  0  1  0  0  0  0  0  0  0  0  0
    4.7269   -0.6615   -2.0888 C   0  0  0  0  0  0  0  0  0  0  0  0
    4.4541   -2.5232   -0.2074 C   0  0  2  0  0  0  0  0  0  0  0  0
    3.4742   -1.6256    0.6139 C   0  0  0  0  0  0  0  0  0  0  0  0
    4.2416   -1.1104    1.8053 C   0  0  1  0  0  0  0  0  0  0  0  0
    3.3785   -0.5292    2.9363 C   0  0  0  0  0  0  0  0  0  0  0  0
    5.2586   -2.2382    2.0800 C   0  0  1  0  0  0  0  0  0  0  0  0
    4.6283   -3.4587    2.8583 C   0  0  1  0  0  0  0  0  0  0  0  0
    4.1162   -3.0636    4.1015 O   0  0  0  0  0  0  0  0  0  0  0  0
    3.6443   -4.1377    2.1094 O   0  0  0  0  0  0  0  0  0  0  0  0
    4.0421   -4.8279    0.9108 C   0  0  2  0  0  0  0  0  0  0  0  0
    5.5418   -5.2444    0.9382 C   0  0  0  0  0  0  0  0  0  0  0  0
    6.4759   -4.0375    0.6589 C   0  0  0  0  0  0  0  0  0  0  0  0
    5.7828   -2.6310    0.6497 C   0  0  1  0  0  0  0  0  0  0  0  0
    6.8484   -1.6192    0.1899 C   0  0  0  0  0  0  0  0  0  0  0  0
    3.8973   -3.9442   -0.3454 C   0  0  1  0  0  0  0  0  0  0  0  0
    1.2370   -5.0134   -0.3631 H   0  0  0  0  0  0  0  0  0  0  0  0
    0.6933   -4.0071   -1.8235 H   0  0  0  0  0  0  0  0  0  0  0  0
    2.4225   -2.2662   -2.8708 H   0  0  0  0  0  0  0  0  0  0  0  0
    4.3041    0.0797   -1.4178 H   0  0  0  0  0  0  0  0  0  0  0  0
    4.3609   -0.4594   -3.0979 H   0  0  0  0  0  0  0  0  0  0  0  0
    5.8091   -0.5635   -2.1045 H   0  0  0  0  0  0  0  0  0  0  0  0
    3.0307   -0.8074    0.0480 H   0  0  0  0  0  0  0  0  0  0  0  0
    2.6213   -2.2044    0.9604 H   0  0  0  0  0  0  0  0  0  0  0  0
    4.8223   -0.2602    1.4597 H   0  0  0  0  0  0  0  0  0  0  0  0
    2.5774   -1.2042    3.2386 H   0  0  0  0  0  0  0  0  0  0  0  0
    2.8945    0.3894    2.6033 H   0  0  0  0  0  0  0  0  0  0  0  0
    3.9816   -0.2755    3.8088 H   0  0  0  0  0  0  0  0  0  0  0  0
    6.0771   -1.8597    2.6953 H   0  0  0  0  0  0  0  0  0  0  0  0
    5.4058   -4.1591    3.1567 H   0  0  0  0  0  0  0  0  0  0  0  0
    3.4228   -2.4443    3.9205 H   0  0  0  0  0  0  0  0  0  0  0  0
    3.4341   -5.7260    0.8061 H   0  0  0  0  0  0  0  0  0  0  0  0
    5.7970   -5.7584    1.8634 H   0  0  0  0  0  0  0  0  0  0  0  0
    5.7292   -5.9994    0.1748 H   0  0  0  0  0  0  0  0  0  0  0  0
    7.2869   -4.0391    1.3851 H   0  0  0  0  0  0  0  0  0  0  0  0
    6.9555   -4.2040   -0.3043 H   0  0  0  0  0  0  0  0  0  0  0  0
    7.6934   -1.5991    0.8755 H   0  0  0  0  0  0  0  0  0  0  0  0
    6.4666   -0.6034    0.1291 H   0  0  0  0  0  0  0  0  0  0  0  0
    7.2372   -1.8897   -0.7889 H   0  0  0  0  0  0  0  0  0  0  0  0
    4.5061   -4.5071   -1.0538 H   0  0  0  0  0  0  0  0  0  0  0  0
  1  2  2  0
  1 21  1  0
  1 22  1  0
  2 20  1  0
  2  3  1  0
  3  5  1  0
  3  4  1  0
  3 23  1  6
  4  5  1  0
  5  6  1  6
  5  7  1  0
  6 24  1  0
  6 25  1  0
  6 26  1  0
  7 18  1  0
  7 20  1  0
  7  8  1  1
  8  9  1  0
  8 27  1  0
  8 28  1  0
  9 10  1  0
  9 11  1  0
  9 29  1  6
 10 30  1  0
 10 31  1  0
 10 32  1  0
 11 18  1  0
 11 12  1  0
 11 33  1  1
 12 13  1  0
 12 14  1  0
 12 34  1  1
 13 35  1  0
 14 15  1  0
 15 16  1  0
 15 20  1  0
 15 36  1  6
 16 17  1  0
 16 37  1  0
 16 38  1  0
 17 18  1  0
 17 39  1  0
 17 40  1  0
 18 19  1  6
 19 41  1  0
 19 42  1  0
 19 43  1  0
 20 44  1  6
M  END
>  <i_m_ct_stereo_status>  (53) 
1

>  <s_m_source_file>  (53) 
/var/tmp/pbs.5076255.sched01/tmp4ovtozgc/0905bh7x9.sdf

>  <i_m_source_file_index>  (53) 
21

>  <i_lp_mmshare_version>  (53) 
48012

>  <i_f3d_flags>  (53) 
0

>  <s_epik_input>  (53) 
W0NIM11bQ0BAXTEoW0NAXTIzNClbQ0BASF0oTzEpQyg9W0NIMl0pW0NAQEhdNFtDQEBIXTVPW0NASF0oW09IXSlbQ0BASF0oW0NAQEhdKFtDSDJdMilbQ0gzXSlbQ0BAXTMoW0NIM10pW0NIMl1bQ0gyXTU=

>  <s_epik_cmdline>  (53) 
J2VwaWtfcHl0aG9uJywgJy1waHQnLCAnMi4wJywgJy1waCcsICc3LjAnLCAnLXRuJywgJzgnLCAnLW1hJywgJzIwMCcsICctaW1hZScsICc8aW5maWxlLm1hZT4nLCAnLW9tYWUnLCAnPG91dGZpbGUubWFlPic=

>  <r_lp_tautomer_probability>  (53) 
1

>  <r_epik_Ionization_Penalty>  (53) 
3.13267e-08

>  <r_epik_Ionization_Penalty_Charging>  (53) 
0

>  <r_epik_Ionization_Penalty_Neutral>  (53) 
3.13267e-08

>  <r_epik_State_Penalty>  (53) 
-0

>  <r_epik_Charging_Adjusted_Penalty>  (53) 
0

>  <i_epik_Tot_Q>  (53) 
0

>  <i_epik_Tot_abs_Q>  (53) 
0

>  <s_epik_Chemistry_Notes>  (53) 
This compound contains an acetal/aminal-like group ( X-CH(R)-Y where X, Y are N, S, or O) that may be acid/base labile, releasing an aldehyde.

>  <s_lp_Force_Field>  (53) 
OPLS3e

>  <r_lp_Energy>  (53) 
69.9951

>  <b_lp_Chiralities_Consistent>  (53) 
1

>  <s_lp_Variant>  (53) 
14:0-1

>  <s_i_glide_gridfile>  (53) 
pfpi4k_grid

>  <i_i_glide_lignum>  (53) 
21

>  <i_i_glide_rotatable_bonds>  (53) 
1

>  <r_i_docking_score>  (53) 
-2.73274

>  <r_i_glide_ligand_efficiency>  (53) 
-0.136637

>  <r_i_glide_ligand_efficiency_sa>  (53) 
-0.37089

>  <r_i_glide_ligand_efficiency_ln>  (53) 
-0.683915

>  <r_i_glide_gscore>  (53) 
-2.73274

>  <r_i_glide_lipo>  (53) 
-0.360955

>  <r_i_glide_hbond>  (53) 
0

>  <r_i_glide_metal>  (53) 
-0

>  <r_i_glide_rewards>  (53) 
-1.55765

>  <r_i_glide_evdw>  (53) 
-16.5015

>  <r_i_glide_ecoul>  (53) 
0.0729155

>  <r_i_glide_erotb>  (53) 
0

>  <r_i_glide_esite>  (53) 
0

>  <r_i_glide_emodel>  (53) 
-18.6989

>  <r_i_glide_energy>  (53) 
-16.4286

>  <r_i_glide_einternal>  (53) 
0.00044951

>  <r_i_glide_intrahb_reward>  (53) 
-0

>  <i_i_glide_confnum>  (53) 
2

>  <i_i_glide_posenum>  (53) 
39

>  <r_i_glide_eff_state_penalty>  (53) 
0

>  <ligand_id>  (53) 
14

>  <original_smiles>  (53) 
C=C1C2OC2(C)C23CC(C)C4C(O)OC(CCC42C)C13

>  <smiles>  (53) 
[H]OC1([H])OC2([H])C([H])([H])C([H])([H])C3(C([H])([H])[H])C1([H])C([H])(C([H])([H])[H])C([H])([H])C31C2([H])C(=C([H])[H])C2([H])OC21C([H])([H])[H]

$$$$
14:0:2
     RDKit          3D

 44 48  0  0  1  0  0  0  0  0999 V2000
    1.5051   -4.2672   -1.1214 C   0  0  0  0  0  0  0  0  0  0  0  0
    2.7188   -3.7305   -1.2337 C   0  0  0  0  0  0  0  0  0  0  0  0
    3.1839   -2.7998   -2.2983 C   0  0  2  0  0  0  0  0  0  0  0  0
    4.5289   -3.0171   -2.7911 O   0  0  0  0  0  0  0  0  0  0  0  0
    4.3619   -2.0549   -1.7416 C   0  0  1  0  0  0  0  0  0  0  0  0
    4.7227   -0.6557   -2.1855 C   0  0  0  0  0  0  0  0  0  0  0  0
    4.4652   -2.4616   -0.2433 C   0  0  2  0  0  0  0  0  0  0  0  0
    3.4678   -1.5500    0.5420 C   0  0  0  0  0  0  0  0  0  0  0  0
    4.2235   -0.9920    1.7223 C   0  0  1  0  0  0  0  0  0  0  0  0
    3.3474   -0.3862    2.8276 C   0  0  0  0  0  0  0  0  0  0  0  0
    5.2501   -2.0980    2.0402 C   0  0  1  0  0  0  0  0  0  0  0  0
    4.6363   -3.3071    2.8512 C   0  0  1  0  0  0  0  0  0  0  0  0
    4.1243   -2.8886    4.0883 O   0  0  0  0  0  0  0  0  0  0  0  0
    3.6598   -4.0177    2.1155 O   0  0  0  0  0  0  0  0  0  0  0  0
    4.0737   -4.7378    0.9421 C   0  0  2  0  0  0  0  0  0  0  0  0
    5.5768   -5.1342    0.9889 C   0  0  0  0  0  0  0  0  0  0  0  0
    6.4992   -3.9256    0.6820 C   0  0  0  0  0  0  0  0  0  0  0  0
    5.7859   -2.5296    0.6278 C   0  0  1  0  0  0  0  0  0  0  0  0
    6.8460   -1.5250    0.1465 C   0  0  0  0  0  0  0  0  0  0  0  0
    3.9267   -3.8928   -0.3420 C   0  0  1  0  0  0  0  0  0  0  0  0
    1.2830   -4.9823   -0.3451 H   0  0  0  0  0  0  0  0  0  0  0  0
    0.7313   -4.0303   -1.8391 H   0  0  0  0  0  0  0  0  0  0  0  0
    2.4485   -2.3139   -2.9258 H   0  0  0  0  0  0  0  0  0  0  0  0
    4.2814    0.1060   -1.5443 H   0  0  0  0  0  0  0  0  0  0  0  0
    4.3634   -0.4961   -3.2037 H   0  0  0  0  0  0  0  0  0  0  0  0
    5.8043   -0.5472   -2.1921 H   0  0  0  0  0  0  0  0  0  0  0  0
    3.0199   -0.7581   -0.0525 H   0  0  0  0  0  0  0  0  0  0  0  0
    2.6233   -2.1306    0.9031 H   0  0  0  0  0  0  0  0  0  0  0  0
    4.7938   -0.1451    1.3521 H   0  0  0  0  0  0  0  0  0  0  0  0
    2.5670   -1.0739    3.1552 H   0  0  0  0  0  0  0  0  0  0  0  0
    2.8472    0.5121    2.4664 H   0  0  0  0  0  0  0  0  0  0  0  0
    3.9432   -0.0979    3.6951 H   0  0  0  0  0  0  0  0  0  0  0  0
    6.0578   -1.6879    2.6466 H   0  0  0  0  0  0  0  0  0  0  0  0
    5.4298   -3.9846    3.1617 H   0  0  0  0  0  0  0  0  0  0  0  0
    3.9288   -3.6651    4.5920 H   0  0  0  0  0  0  0  0  0  0  0  0
    3.4767   -5.6447    0.8596 H   0  0  0  0  0  0  0  0  0  0  0  0
    5.8318   -5.6176    1.9329 H   0  0  0  0  0  0  0  0  0  0  0  0
    5.7796   -5.9106    0.2535 H   0  0  0  0  0  0  0  0  0  0  0  0
    7.3039   -3.8951    1.4119 H   0  0  0  0  0  0  0  0  0  0  0  0
    6.9860   -4.1170   -0.2726 H   0  0  0  0  0  0  0  0  0  0  0  0
    7.6812   -1.4708    0.8414 H   0  0  0  0  0  0  0  0  0  0  0  0
    6.4517   -0.5166    0.0508 H   0  0  0  0  0  0  0  0  0  0  0  0
    7.2395   -1.8387   -0.8173 H   0  0  0  0  0  0  0  0  0  0  0  0
    4.5428   -4.4679   -1.0289 H   0  0  0  0  0  0  0  0  0  0  0  0
  1  2  2  0
  1 21  1  0
  1 22  1  0
  2 20  1  0
  2  3  1  0
  3  5  1  0
  3  4  1  0
  3 23  1  6
  4  5  1  0
  5  6  1  6
  5  7  1  0
  6 24  1  0
  6 25  1  0
  6 26  1  0
  7 18  1  0
  7 20  1  0
  7  8  1  1
  8  9  1  0
  8 27  1  0
  8 28  1  0
  9 10  1  0
  9 11  1  0
  9 29  1  6
 10 30  1  0
 10 31  1  0
 10 32  1  0
 11 18  1  0
 11 12  1  0
 11 33  1  1
 12 13  1  0
 12 14  1  0
 12 34  1  1
 13 35  1  0
 14 15  1  0
 15 16  1  0
 15 20  1  0
 15 36  1  6
 16 17  1  0
 16 37  1  0
 16 38  1  0
 17 18  1  0
 17 39  1  0
 17 40  1  0
 18 19  1  6
 19 41  1  0
 19 42  1  0
 19 43  1  0
 20 44  1  6
M  END
>  <i_m_ct_stereo_status>  (54) 
1

>  <s_m_source_file>  (54) 
/var/tmp/pbs.5076255.sched01/tmp4ovtozgc/0905bh7x9.sdf

>  <i_m_source_file_index>  (54) 
21

>  <i_lp_mmshare_version>  (54) 
48012

>  <i_f3d_flags>  (54) 
0

>  <s_epik_input>  (54) 
W0NIM11bQ0BAXTEoW0NAXTIzNClbQ0BASF0oTzEpQyg9W0NIMl0pW0NAQEhdNFtDQEBIXTVPW0NASF0oW09IXSlbQ0BASF0oW0NAQEhdKFtDSDJdMilbQ0gzXSlbQ0BAXTMoW0NIM10pW0NIMl1bQ0gyXTU=

>  <s_epik_cmdline>  (54) 
J2VwaWtfcHl0aG9uJywgJy1waHQnLCAnMi4wJywgJy1waCcsICc3LjAnLCAnLXRuJywgJzgnLCAnLW1hJywgJzIwMCcsICctaW1hZScsICc8aW5maWxlLm1hZT4nLCAnLW9tYWUnLCAnPG91dGZpbGUubWFlPic=

>  <r_lp_tautomer_probability>  (54) 
1

>  <r_epik_Ionization_Penalty>  (54) 
3.13267e-08

>  <r_epik_Ionization_Penalty_Charging>  (54) 
0

>  <r_epik_Ionization_Penalty_Neutral>  (54) 
3.13267e-08

>  <r_epik_State_Penalty>  (54) 
-0

>  <r_epik_Charging_Adjusted_Penalty>  (54) 
0

>  <i_epik_Tot_Q>  (54) 
0

>  <i_epik_Tot_abs_Q>  (54) 
0

>  <s_epik_Chemistry_Notes>  (54) 
This compound contains an acetal/aminal-like group ( X-CH(R)-Y where X, Y are N, S, or O) that may be acid/base labile, releasing an aldehyde.

>  <s_lp_Force_Field>  (54) 
OPLS3e

>  <r_lp_Energy>  (54) 
69.9951

>  <b_lp_Chiralities_Consistent>  (54) 
1

>  <s_lp_Variant>  (54) 
14:0-1

>  <s_i_glide_gridfile>  (54) 
pfpi4k_grid

>  <i_i_glide_lignum>  (54) 
21

>  <i_i_glide_rotatable_bonds>  (54) 
1

>  <r_i_docking_score>  (54) 
-2.69739

>  <r_i_glide_ligand_efficiency>  (54) 
-0.134869

>  <r_i_glide_ligand_efficiency_sa>  (54) 
-0.366092

>  <r_i_glide_ligand_efficiency_ln>  (54) 
-0.675067

>  <r_i_glide_gscore>  (54) 
-2.69739

>  <r_i_glide_lipo>  (54) 
-0.37021

>  <r_i_glide_hbond>  (54) 
0

>  <r_i_glide_metal>  (54) 
-0

>  <r_i_glide_rewards>  (54) 
-1.56083

>  <r_i_glide_evdw>  (54) 
-16.7491

>  <r_i_glide_ecoul>  (54) 
0.474055

>  <r_i_glide_erotb>  (54) 
0

>  <r_i_glide_esite>  (54) 
0

>  <r_i_glide_emodel>  (54) 
-18.267

>  <r_i_glide_energy>  (54) 
-16.275

>  <r_i_glide_einternal>  (54) 
0.433761

>  <r_i_glide_intrahb_reward>  (54) 
-0

>  <i_i_glide_confnum>  (54) 
2

>  <i_i_glide_posenum>  (54) 
30

>  <r_i_glide_eff_state_penalty>  (54) 
0

>  <ligand_id>  (54) 
14

>  <original_smiles>  (54) 
C=C1C2OC2(C)C23CC(C)C4C(O)OC(CCC42C)C13

>  <smiles>  (54) 
[H]OC1([H])OC2([H])C([H])([H])C([H])([H])C3(C([H])([H])[H])C1([H])C([H])(C([H])([H])[H])C([H])([H])C31C2([H])C(=C([H])[H])C2([H])OC21C([H])([H])[H]

$$$$
15:0:0
     RDKit          3D

 40 43  0  0  1  0  0  0  0  0999 V2000
    2.3449   -3.6983    3.2086 O   0  0  0  0  0  0  0  0  0  0  0  0
    2.6607   -2.7347    2.5071 C   0  0  0  0  0  0  0  0  0  0  0  0
    3.5979   -2.7933    1.5309 O   0  0  0  0  0  0  0  0  0  0  0  0
    4.2920   -3.9704    1.1821 C   0  0  0  0  0  0  0  0  0  0  0  0
    5.4875   -3.6339    0.3078 C   0  0  0  0  0  0  0  0  0  0  0  0
    5.3211   -3.3631   -1.0676 C   0  0  0  0  0  0  0  0  0  0  0  0
    6.4376   -3.0495   -1.8709 C   0  0  0  0  0  0  0  0  0  0  0  0
    7.7255   -2.9975   -1.3015 C   0  0  0  0  0  0  0  0  0  0  0  0
    7.8943   -3.2519    0.0726 C   0  0  0  0  0  0  0  0  0  0  0  0
    6.7777   -3.5696    0.8719 C   0  0  0  0  0  0  0  0  0  0  0  0
    2.1272   -1.4349    2.5946 N   0  0  0  0  0  0  0  0  0  0  0  0
    2.4878   -0.4167    1.6640 C   0  0  0  0  0  0  0  0  0  0  0  0
    1.9788    0.8235    1.7161 C   0  0  0  0  0  0  0  0  0  0  0  0
    1.0600    1.1849    2.7143 C   0  0  0  0  0  0  0  0  0  0  0  0
    0.4646    2.4151    2.8787 N   0  0  0  0  0  0  0  0  0  0  0  0
   -0.3716    2.3654    3.9755 C   0  0  0  0  0  0  0  0  0  0  0  0
   -1.2050    3.3267    4.5796 C   0  0  0  0  0  0  0  0  0  0  0  0
   -1.9511    2.9835    5.7161 C   0  0  0  0  0  0  0  0  0  0  0  0
   -1.8583    1.6800    6.2405 C   0  0  0  0  0  0  0  0  0  0  0  0
   -2.5820    1.3482    7.3437 O   0  0  0  0  0  0  0  0  0  0  0  0
   -1.0364    0.7146    5.6284 C   0  0  0  0  0  0  0  0  0  0  0  0
   -0.2722    1.0290    4.4868 C   0  0  0  0  0  0  0  0  0  0  0  0
    0.6429    0.2991    3.6536 C   0  0  0  0  0  0  0  0  0  0  0  0
    1.1486   -1.1253    3.6822 C   0  0  0  0  0  0  0  0  0  0  0  0
    0.5895    3.1980    2.2347 H   0  0  0  0  0  0  0  0  0  0  0  0
    4.6295   -4.4954    2.0756 H   0  0  0  0  0  0  0  0  0  0  0  0
    3.6192   -4.6298    0.6355 H   0  0  0  0  0  0  0  0  0  0  0  0
    4.3362   -3.3981   -1.5090 H   0  0  0  0  0  0  0  0  0  0  0  0
    6.3071   -2.8591   -2.9259 H   0  0  0  0  0  0  0  0  0  0  0  0
    8.5836   -2.7709   -1.9179 H   0  0  0  0  0  0  0  0  0  0  0  0
    8.8779   -3.2086    0.5153 H   0  0  0  0  0  0  0  0  0  0  0  0
    6.9087   -3.7625    1.9243 H   0  0  0  0  0  0  0  0  0  0  0  0
    3.1592   -0.6663    0.8520 H   0  0  0  0  0  0  0  0  0  0  0  0
    2.2391    1.5515    0.9740 H   0  0  0  0  0  0  0  0  0  0  0  0
   -1.2529    4.3180    4.1615 H   0  0  0  0  0  0  0  0  0  0  0  0
   -2.5879    3.7151    6.1851 H   0  0  0  0  0  0  0  0  0  0  0  0
   -3.0182    2.0965    7.7248 H   0  0  0  0  0  0  0  0  0  0  0  0
   -0.9679   -0.2859    6.0307 H   0  0  0  0  0  0  0  0  0  0  0  0
    0.3068   -1.8162    3.6163 H   0  0  0  0  0  0  0  0  0  0  0  0
    1.6307   -1.3142    4.6419 H   0  0  0  0  0  0  0  0  0  0  0  0
  1  2  2  0
  2  3  1  0
  2 11  1  0
  3  4  1  0
  4  5  1  0
  4 26  1  0
  4 27  1  0
  5 10  1  0
  5  6  2  0
  6  7  1  0
  6 28  1  0
  7  8  2  0
  7 29  1  0
  8  9  1  0
  8 30  1  0
  9 10  2  0
  9 31  1  0
 10 32  1  0
 11 24  1  0
 11 12  1  0
 12 13  2  0
 12 33  1  0
 13 14  1  0
 13 34  1  0
 14 23  2  0
 14 15  1  0
 15 25  1  0
 15 16  1  0
 16 22  2  0
 16 17  1  0
 17 18  2  0
 17 35  1  0
 18 19  1  0
 18 36  1  0
 19 20  1  0
 19 21  2  0
 20 37  1  0
 21 22  1  0
 21 38  1  0
 22 23  1  0
 23 24  1  0
 24 39  1  0
 24 40  1  0
M  END
>  <i_m_ct_stereo_status>  (55) 
1

>  <s_m_source_file>  (55) 
/var/tmp/pbs.5076255.sched01/tmp4ovtozgc/0905bh7x9.sdf

>  <i_m_source_file_index>  (55) 
22

>  <i_lp_mmshare_version>  (55) 
48012

>  <i_f3d_flags>  (55) 
0

>  <s_epik_input>  (55) 
W2NIXTFbY0hdW2NIXVtjSF1bY0hdYzFbQ0gyXU9DKD1PKU4oW0NIXT1bQ0hdMilbQ0gyXWMoYzIzKWM0YyhbbkhdMylbY0hdW2NIXWMoW09IXSlbY0hdNA==

>  <s_epik_cmdline>  (55) 
J2VwaWtfcHl0aG9uJywgJy1waHQnLCAnMi4wJywgJy1waCcsICc3LjAnLCAnLXRuJywgJzgnLCAnLW1hJywgJzIwMCcsICctaW1hZScsICc8aW5maWxlLm1hZT4nLCAnLW9tYWUnLCAnPG91dGZpbGUubWFlPic=

>  <r_epik_Ionization_Penalty>  (55) 
0.000583825

>  <r_epik_Ionization_Penalty_Charging>  (55) 
0

>  <r_epik_Ionization_Penalty_Neutral>  (55) 
0.000583825

>  <r_epik_State_Penalty>  (55) 
0.000366741

>  <r_epik_Charging_Adjusted_Penalty>  (55) 
0.000366741

>  <i_epik_Tot_Q>  (55) 
0

>  <i_epik_Tot_abs_Q>  (55) 
0

>  <s_epik_Chemistry_Notes>  (55) 
This compound has an ester and may undergo hydrolysis at high or low pH.

>  <s_lp_Force_Field>  (55) 
OPLS3e

>  <r_lp_Energy>  (55) 
40.1428

>  <b_lp_Chiralities_Consistent>  (55) 
1

>  <s_lp_Variant>  (55) 
15:0-1

>  <s_i_glide_gridfile>  (55) 
pfpi4k_grid

>  <i_i_glide_lignum>  (55) 
22

>  <i_i_glide_rotatable_bonds>  (55) 
5

>  <r_i_docking_score>  (55) 
-3.68403

>  <r_i_glide_ligand_efficiency>  (55) 
-0.153501

>  <r_i_glide_ligand_efficiency_sa>  (55) 
-0.442774

>  <r_i_glide_ligand_efficiency_ln>  (55) 
-0.881758

>  <r_i_glide_gscore>  (55) 
-3.68403

>  <r_i_glide_lipo>  (55) 
-0.546313

>  <r_i_glide_hbond>  (55) 
-0.32

>  <r_i_glide_metal>  (55) 
-0

>  <r_i_glide_rewards>  (55) 
-1.22494

>  <r_i_glide_evdw>  (55) 
-26.3796

>  <r_i_glide_ecoul>  (55) 
-4.71139

>  <r_i_glide_erotb>  (55) 
0.545847

>  <r_i_glide_esite>  (55) 
-0.112935

>  <r_i_glide_emodel>  (55) 
-37.2296

>  <r_i_glide_energy>  (55) 
-31.091

>  <r_i_glide_einternal>  (55) 
3.82354

>  <r_i_glide_intrahb_reward>  (55) 
-0

>  <i_i_glide_confnum>  (55) 
2

>  <i_i_glide_posenum>  (55) 
22

>  <r_i_glide_eff_state_penalty>  (55) 
0

>  <ligand_id>  (55) 
15

>  <original_smiles>  (55) 
O=C(OCc1ccccc1)N1C=Cc2[nH]c3ccc(O)cc3c2C1

>  <smiles>  (55) 
[H]Oc1c([H])c([H])c2c(c1[H])c1c(n2[H])C([H])=C([H])N(C(=O)OC([H])([H])c2c([H])c([H])c([H])c([H])c2[H])C1([H])[H]

$$$$
15:0:1
     RDKit          3D

 40 43  0  0  1  0  0  0  0  0999 V2000
    4.8228   -1.5681    2.5115 O   0  0  0  0  0  0  0  0  0  0  0  0
    4.0086   -2.4251    2.1606 C   0  0  0  0  0  0  0  0  0  0  0  0
    3.5545   -2.5482    0.9002 O   0  0  0  0  0  0  0  0  0  0  0  0
    3.9118   -1.5878   -0.0797 C   0  0  0  0  0  0  0  0  0  0  0  0
    4.1265   -2.2293   -1.4295 C   0  0  0  0  0  0  0  0  0  0  0  0
    5.4286   -2.5702   -1.8452 C   0  0  0  0  0  0  0  0  0  0  0  0
    5.6180   -3.1919   -3.0932 C   0  0  0  0  0  0  0  0  0  0  0  0
    4.5123   -3.4726   -3.9221 C   0  0  0  0  0  0  0  0  0  0  0  0
    3.2136   -3.1105   -3.5175 C   0  0  0  0  0  0  0  0  0  0  0  0
    3.0249   -2.4991   -2.2663 C   0  0  0  0  0  0  0  0  0  0  0  0
    3.4213   -3.3853    3.0007 N   0  0  0  0  0  0  0  0  0  0  0  0
    3.7381   -3.3649    4.3810 C   0  0  0  0  0  0  0  0  0  0  0  0
    3.1954   -4.2304    5.2576 C   0  0  0  0  0  0  0  0  0  0  0  0
    2.2706   -5.2078    4.8221 C   0  0  0  0  0  0  0  0  0  0  0  0
    1.6340   -6.1586    5.5911 N   0  0  0  0  0  0  0  0  0  0  0  0
    0.8076   -6.9197    4.7807 C   0  0  0  0  0  0  0  0  0  0  0  0
   -0.0503   -8.0047    5.0463 C   0  0  0  0  0  0  0  0  0  0  0  0
   -0.7758   -8.5876    3.9899 C   0  0  0  0  0  0  0  0  0  0  0  0
   -0.6475   -8.0865    2.6868 C   0  0  0  0  0  0  0  0  0  0  0  0
   -1.3628   -8.6581    1.6828 O   0  0  0  0  0  0  0  0  0  0  0  0
    0.2209   -7.0109    2.4239 C   0  0  0  0  0  0  0  0  0  0  0  0
    0.9647   -6.3975    3.4582 C   0  0  0  0  0  0  0  0  0  0  0  0
    1.9010   -5.3118    3.5223 C   0  0  0  0  0  0  0  0  0  0  0  0
    2.4532   -4.3912    2.4707 C   0  0  0  0  0  0  0  0  0  0  0  0
    1.7755   -6.2765    6.5836 H   0  0  0  0  0  0  0  0  0  0  0  0
    3.1060   -0.8601   -0.1475 H   0  0  0  0  0  0  0  0  0  0  0  0
    4.8178   -1.0361    0.1778 H   0  0  0  0  0  0  0  0  0  0  0  0
    6.2778   -2.3740   -1.2063 H   0  0  0  0  0  0  0  0  0  0  0  0
    6.6127   -3.4553   -3.4119 H   0  0  0  0  0  0  0  0  0  0  0  0
    4.6667   -3.9686   -4.8612 H   0  0  0  0  0  0  0  0  0  0  0  0
    2.3611   -3.3341   -4.1440 H   0  0  0  0  0  0  0  0  0  0  0  0
    2.0286   -2.2548   -1.9366 H   0  0  0  0  0  0  0  0  0  0  0  0
    4.4475   -2.6007    4.6923 H   0  0  0  0  0  0  0  0  0  0  0  0
    3.4496   -4.2025    6.3028 H   0  0  0  0  0  0  0  0  0  0  0  0
   -0.1426   -8.4060    6.0437 H   0  0  0  0  0  0  0  0  0  0  0  0
   -1.4114   -9.4399    4.1584 H   0  0  0  0  0  0  0  0  0  0  0  0
   -0.8155   -8.9731    0.9613 H   0  0  0  0  0  0  0  0  0  0  0  0
    0.3335   -6.6513    1.4142 H   0  0  0  0  0  0  0  0  0  0  0  0
    1.6214   -3.8616    2.0149 H   0  0  0  0  0  0  0  0  0  0  0  0
    2.9317   -4.9870    1.6938 H   0  0  0  0  0  0  0  0  0  0  0  0
  1  2  2  0
  2  3  1  0
  2 11  1  0
  3  4  1  0
  4  5  1  0
  4 26  1  0
  4 27  1  0
  5 10  1  0
  5  6  2  0
  6  7  1  0
  6 28  1  0
  7  8  2  0
  7 29  1  0
  8  9  1  0
  8 30  1  0
  9 10  2  0
  9 31  1  0
 10 32  1  0
 11 24  1  0
 11 12  1  0
 12 13  2  0
 12 33  1  0
 13 14  1  0
 13 34  1  0
 14 23  2  0
 14 15  1  0
 15 25  1  0
 15 16  1  0
 16 22  2  0
 16 17  1  0
 17 18  2  0
 17 35  1  0
 18 19  1  0
 18 36  1  0
 19 20  1  0
 19 21  2  0
 20 37  1  0
 21 22  1  0
 21 38  1  0
 22 23  1  0
 23 24  1  0
 24 39  1  0
 24 40  1  0
M  END
>  <i_m_ct_stereo_status>  (56) 
1

>  <s_m_source_file>  (56) 
/var/tmp/pbs.5076255.sched01/tmp4ovtozgc/0905bh7x9.sdf

>  <i_m_source_file_index>  (56) 
22

>  <i_lp_mmshare_version>  (56) 
48012

>  <i_f3d_flags>  (56) 
0

>  <s_epik_input>  (56) 
W2NIXTFbY0hdW2NIXVtjSF1bY0hdYzFbQ0gyXU9DKD1PKU4oW0NIXT1bQ0hdMilbQ0gyXWMoYzIzKWM0YyhbbkhdMylbY0hdW2NIXWMoW09IXSlbY0hdNA==

>  <s_epik_cmdline>  (56) 
J2VwaWtfcHl0aG9uJywgJy1waHQnLCAnMi4wJywgJy1waCcsICc3LjAnLCAnLXRuJywgJzgnLCAnLW1hJywgJzIwMCcsICctaW1hZScsICc8aW5maWxlLm1hZT4nLCAnLW9tYWUnLCAnPG91dGZpbGUubWFlPic=

>  <r_epik_Ionization_Penalty>  (56) 
0.000583825

>  <r_epik_Ionization_Penalty_Charging>  (56) 
0

>  <r_epik_Ionization_Penalty_Neutral>  (56) 
0.000583825

>  <r_epik_State_Penalty>  (56) 
0.000366741

>  <r_epik_Charging_Adjusted_Penalty>  (56) 
0.000366741

>  <i_epik_Tot_Q>  (56) 
0

>  <i_epik_Tot_abs_Q>  (56) 
0

>  <s_epik_Chemistry_Notes>  (56) 
This compound has an ester and may undergo hydrolysis at high or low pH.

>  <s_lp_Force_Field>  (56) 
OPLS3e

>  <r_lp_Energy>  (56) 
40.1428

>  <b_lp_Chiralities_Consistent>  (56) 
1

>  <s_lp_Variant>  (56) 
15:0-1

>  <s_i_glide_gridfile>  (56) 
pfpi4k_grid

>  <i_i_glide_lignum>  (56) 
22

>  <i_i_glide_rotatable_bonds>  (56) 
5

>  <r_i_docking_score>  (56) 
-3.52075

>  <r_i_glide_ligand_efficiency>  (56) 
-0.146698

>  <r_i_glide_ligand_efficiency_sa>  (56) 
-0.42315

>  <r_i_glide_ligand_efficiency_ln>  (56) 
-0.842677

>  <r_i_glide_gscore>  (56) 
-3.52075

>  <r_i_glide_lipo>  (56) 
-0.452972

>  <r_i_glide_hbond>  (56) 
-0.32

>  <r_i_glide_metal>  (56) 
-0

>  <r_i_glide_rewards>  (56) 
-1.22537

>  <r_i_glide_evdw>  (56) 
-24.798

>  <r_i_glide_ecoul>  (56) 
-5.51927

>  <r_i_glide_erotb>  (56) 
0.545847

>  <r_i_glide_esite>  (56) 
-0.000459434

>  <r_i_glide_emodel>  (56) 
-35.8945

>  <r_i_glide_energy>  (56) 
-30.3173

>  <r_i_glide_einternal>  (56) 
2.90784

>  <r_i_glide_intrahb_reward>  (56) 
-0

>  <i_i_glide_confnum>  (56) 
2

>  <i_i_glide_posenum>  (56) 
4

>  <r_i_glide_eff_state_penalty>  (56) 
0

>  <ligand_id>  (56) 
15

>  <original_smiles>  (56) 
O=C(OCc1ccccc1)N1C=Cc2[nH]c3ccc(O)cc3c2C1

>  <smiles>  (56) 
[H]Oc1c([H])c([H])c2c(c1[H])c1c(n2[H])C([H])=C([H])N(C(=O)OC([H])([H])c2c([H])c([H])c([H])c([H])c2[H])C1([H])[H]

$$$$
15:0:2
     RDKit          3D

 40 43  0  0  1  0  0  0  0  0999 V2000
    3.2256   -3.3953    1.6850 O   0  0  0  0  0  0  0  0  0  0  0  0
    2.4698   -2.9880    2.5686 C   0  0  0  0  0  0  0  0  0  0  0  0
    2.0280   -3.7679    3.5805 O   0  0  0  0  0  0  0  0  0  0  0  0
    2.3726   -5.1458    3.6258 C   0  0  0  0  0  0  0  0  0  0  0  0
    1.1724   -6.0231    3.3416 C   0  0  0  0  0  0  0  0  0  0  0  0
    0.2160   -6.2549    4.3505 C   0  0  0  0  0  0  0  0  0  0  0  0
   -0.9068   -7.0632    4.0883 C   0  0  0  0  0  0  0  0  0  0  0  0
   -1.0734   -7.6405    2.8147 C   0  0  0  0  0  0  0  0  0  0  0  0
   -0.1193   -7.4098    1.8050 C   0  0  0  0  0  0  0  0  0  0  0  0
    1.0063   -6.6064    2.0688 C   0  0  0  0  0  0  0  0  0  0  0  0
    1.9463   -1.6895    2.6668 N   0  0  0  0  0  0  0  0  0  0  0  0
    2.3344   -0.7348    1.6938 C   0  0  0  0  0  0  0  0  0  0  0  0
    1.8881    0.5352    1.7088 C   0  0  0  0  0  0  0  0  0  0  0  0
    0.9943    0.9710    2.7118 C   0  0  0  0  0  0  0  0  0  0  0  0
    0.4483    2.2306    2.8637 N   0  0  0  0  0  0  0  0  0  0  0  0
   -0.3790    2.2352    3.9736 C   0  0  0  0  0  0  0  0  0  0  0  0
   -1.1645    3.2389    4.5686 C   0  0  0  0  0  0  0  0  0  0  0  0
   -1.9081    2.9436    5.7261 C   0  0  0  0  0  0  0  0  0  0  0  0
   -1.8589    1.6483    6.2725 C   0  0  0  0  0  0  0  0  0  0  0  0
   -2.5818    1.3559    7.3883 O   0  0  0  0  0  0  0  0  0  0  0  0
   -1.0800    0.6445    5.6693 C   0  0  0  0  0  0  0  0  0  0  0  0
   -0.3209    0.9110    4.5103 C   0  0  0  0  0  0  0  0  0  0  0  0
    0.5554    0.1312    3.6857 C   0  0  0  0  0  0  0  0  0  0  0  0
    1.0012   -1.3063    3.7567 C   0  0  0  0  0  0  0  0  0  0  0  0
    0.6029    3.0012    2.2171 H   0  0  0  0  0  0  0  0  0  0  0  0
    3.1716   -5.4031    2.9305 H   0  0  0  0  0  0  0  0  0  0  0  0
    2.7564   -5.3693    4.6187 H   0  0  0  0  0  0  0  0  0  0  0  0
    0.3476   -5.8102    5.3251 H   0  0  0  0  0  0  0  0  0  0  0  0
   -1.6357   -7.2411    4.8653 H   0  0  0  0  0  0  0  0  0  0  0  0
   -1.9282   -8.2694    2.6159 H   0  0  0  0  0  0  0  0  0  0  0  0
   -0.2428   -7.8549    0.8319 H   0  0  0  0  0  0  0  0  0  0  0  0
    1.7445   -6.4380    1.2969 H   0  0  0  0  0  0  0  0  0  0  0  0
    3.0041   -1.0932    0.9184 H   0  0  0  0  0  0  0  0  0  0  0  0
    2.1882    1.2356    0.9472 H   0  0  0  0  0  0  0  0  0  0  0  0
   -1.1828    4.2239    4.1354 H   0  0  0  0  0  0  0  0  0  0  0  0
   -2.5121    3.7116    6.1873 H   0  0  0  0  0  0  0  0  0  0  0  0
   -2.9918    2.1246    7.7581 H   0  0  0  0  0  0  0  0  0  0  0  0
   -1.0439   -0.3477    6.0885 H   0  0  0  0  0  0  0  0  0  0  0  0
    0.1230   -1.9511    3.7166 H   0  0  0  0  0  0  0  0  0  0  0  0
    1.4796   -1.4786    4.7201 H   0  0  0  0  0  0  0  0  0  0  0  0
  1  2  2  0
  2  3  1  0
  2 11  1  0
  3  4  1  0
  4  5  1  0
  4 26  1  0
  4 27  1  0
  5 10  1  0
  5  6  2  0
  6  7  1  0
  6 28  1  0
  7  8  2  0
  7 29  1  0
  8  9  1  0
  8 30  1  0
  9 10  2  0
  9 31  1  0
 10 32  1  0
 11 24  1  0
 11 12  1  0
 12 13  2  0
 12 33  1  0
 13 14  1  0
 13 34  1  0
 14 23  2  0
 14 15  1  0
 15 25  1  0
 15 16  1  0
 16 22  2  0
 16 17  1  0
 17 18  2  0
 17 35  1  0
 18 19  1  0
 18 36  1  0
 19 20  1  0
 19 21  2  0
 20 37  1  0
 21 22  1  0
 21 38  1  0
 22 23  1  0
 23 24  1  0
 24 39  1  0
 24 40  1  0
M  END
>  <i_m_ct_stereo_status>  (57) 
1

>  <s_m_source_file>  (57) 
/var/tmp/pbs.5076255.sched01/tmp4ovtozgc/0905bh7x9.sdf

>  <i_m_source_file_index>  (57) 
22

>  <i_lp_mmshare_version>  (57) 
48012

>  <i_f3d_flags>  (57) 
0

>  <s_epik_input>  (57) 
W2NIXTFbY0hdW2NIXVtjSF1bY0hdYzFbQ0gyXU9DKD1PKU4oW0NIXT1bQ0hdMilbQ0gyXWMoYzIzKWM0YyhbbkhdMylbY0hdW2NIXWMoW09IXSlbY0hdNA==

>  <s_epik_cmdline>  (57) 
J2VwaWtfcHl0aG9uJywgJy1waHQnLCAnMi4wJywgJy1waCcsICc3LjAnLCAnLXRuJywgJzgnLCAnLW1hJywgJzIwMCcsICctaW1hZScsICc8aW5maWxlLm1hZT4nLCAnLW9tYWUnLCAnPG91dGZpbGUubWFlPic=

>  <r_epik_Ionization_Penalty>  (57) 
0.000583825

>  <r_epik_Ionization_Penalty_Charging>  (57) 
0

>  <r_epik_Ionization_Penalty_Neutral>  (57) 
0.000583825

>  <r_epik_State_Penalty>  (57) 
0.000366741

>  <r_epik_Charging_Adjusted_Penalty>  (57) 
0.000366741

>  <i_epik_Tot_Q>  (57) 
0

>  <i_epik_Tot_abs_Q>  (57) 
0

>  <s_epik_Chemistry_Notes>  (57) 
This compound has an ester and may undergo hydrolysis at high or low pH.

>  <s_lp_Force_Field>  (57) 
OPLS3e

>  <r_lp_Energy>  (57) 
40.1428

>  <b_lp_Chiralities_Consistent>  (57) 
1

>  <s_lp_Variant>  (57) 
15:0-1

>  <s_i_glide_gridfile>  (57) 
pfpi4k_grid

>  <i_i_glide_lignum>  (57) 
22

>  <i_i_glide_rotatable_bonds>  (57) 
5

>  <r_i_docking_score>  (57) 
-3.07065

>  <r_i_glide_ligand_efficiency>  (57) 
-0.127944

>  <r_i_glide_ligand_efficiency_sa>  (57) 
-0.369054

>  <r_i_glide_ligand_efficiency_ln>  (57) 
-0.734947

>  <r_i_glide_gscore>  (57) 
-3.07065

>  <r_i_glide_lipo>  (57) 
-0.03714

>  <r_i_glide_hbond>  (57) 
-0.313452

>  <r_i_glide_metal>  (57) 
-0

>  <r_i_glide_rewards>  (57) 
-1.22494

>  <r_i_glide_evdw>  (57) 
-26.0017

>  <r_i_glide_ecoul>  (57) 
-4.26698

>  <r_i_glide_erotb>  (57) 
0.545847

>  <r_i_glide_esite>  (57) 
-0.100829

>  <r_i_glide_emodel>  (57) 
-36.9424

>  <r_i_glide_energy>  (57) 
-30.2687

>  <r_i_glide_einternal>  (57) 
0.311084

>  <r_i_glide_intrahb_reward>  (57) 
-0

>  <i_i_glide_confnum>  (57) 
2

>  <i_i_glide_posenum>  (57) 
1

>  <r_i_glide_eff_state_penalty>  (57) 
0

>  <ligand_id>  (57) 
15

>  <original_smiles>  (57) 
O=C(OCc1ccccc1)N1C=Cc2[nH]c3ccc(O)cc3c2C1

>  <smiles>  (57) 
[H]Oc1c([H])c([H])c2c(c1[H])c1c(n2[H])C([H])=C([H])N(C(=O)OC([H])([H])c2c([H])c([H])c([H])c([H])c2[H])C1([H])[H]

$$$$
16:0:0
     RDKit          3D

 74 80  0  0  1  0  0  0  0  0999 V2000
    4.6094   -0.2291    7.6120 C   0  0  0  0  0  0  0  0  0  0  0  0
    4.0892   -1.1620    6.5250 C   0  0  0  0  0  0  0  0  0  0  0  0
    3.7983   -0.9104    5.2469 C   0  0  0  0  0  0  0  0  0  0  0  0
    3.3418    0.4125    4.6933 C   0  0  1  0  0  0  0  0  0  0  0  0
    3.9976    0.5458    3.4477 O   0  0  0  0  0  0  0  0  0  0  0  0
    1.7515    0.4336    4.5615 C   0  0  1  0  0  0  0  0  0  0  0  0
    0.9522   -0.2993    5.7619 C   0  0  1  0  0  0  0  0  0  0  0  0
    1.3550    0.3819    7.1070 C   0  0  0  0  0  0  0  0  0  0  0  0
   -0.5865    0.0081    5.5672 C   0  0  0  0  0  0  0  0  0  0  0  0
   -1.0231    0.3590    4.1462 C   0  0  0  0  0  0  0  0  0  0  0  0
   -0.3424    1.6037    3.5048 C   0  0  1  0  0  0  0  0  0  0  0  0
   -0.3944    1.3140    1.9869 C   0  0  0  0  0  0  0  0  0  0  0  0
   -1.0581    2.9715    3.7810 C   0  0  1  0  0  0  0  0  0  0  0  0
   -2.4584    2.9599    3.9787 O   0  0  0  0  0  0  0  0  0  0  0  0
   -0.3410    3.6207    4.9330 C   0  0  1  0  0  0  0  0  0  0  0  0
   -0.1050    2.8392    6.1139 O   0  0  0  0  0  0  0  0  0  0  0  0
    0.9502    2.8946    5.1455 C   0  0  1  0  0  0  0  0  0  0  0  0
    1.1157    1.8153    4.0745 C   0  0  1  0  0  0  0  0  0  0  0  0
    1.9893    2.5239    3.0023 C   0  0  0  0  0  0  0  0  0  0  0  0
    1.0844   -1.9369    5.8390 C   0  0  2  0  0  0  0  0  0  0  0  0
    0.3158   -2.5812    7.0361 C   0  0  0  0  0  0  0  0  0  0  0  0
    0.1188   -2.0008    8.0997 O   0  0  0  0  0  0  0  0  0  0  0  0
   -0.2466   -3.9941    6.8755 C   0  0  0  0  0  0  0  0  0  0  0  0
    0.8312   -5.0604    7.0112 C   0  0  0  0  0  0  0  0  0  0  0  0
    1.9365   -5.1729    6.2568 C   0  0  0  0  0  0  0  0  0  0  0  0
    2.3351   -4.2195    5.1420 C   0  0  2  0  0  0  0  0  0  0  0  0
    1.3221   -4.3754    3.9687 C   0  0  0  0  0  0  0  0  0  0  0  0
    3.7544   -4.5428    4.5735 C   0  0  1  0  0  0  0  0  0  0  0  0
    3.8651   -5.6846    3.5340 C   0  0  0  0  0  0  0  0  0  0  0  0
    4.2957   -3.1804    4.0832 C   0  0  0  0  0  0  0  0  0  0  0  0
    3.2602   -2.1215    4.5405 C   0  0  1  0  0  0  0  0  0  0  0  0
    2.4678   -2.7308    5.6724 C   0  0  1  0  0  0  0  0  0  0  0  0
    3.4375   -2.4650    6.9191 C   0  0  1  0  0  0  0  0  0  0  0  0
    4.4262   -3.4126    7.2548 O   0  0  0  0  0  0  0  0  0  0  0  0
    4.0459   -0.3430    8.5355 H   0  0  0  0  0  0  0  0  0  0  0  0
    4.5758    0.8194    7.3253 H   0  0  0  0  0  0  0  0  0  0  0  0
    5.6422   -0.4810    7.8481 H   0  0  0  0  0  0  0  0  0  0  0  0
    3.6799    1.2200    5.3385 H   0  0  0  0  0  0  0  0  0  0  0  0
    3.8603    1.4275    3.1259 H   0  0  0  0  0  0  0  0  0  0  0  0
    1.5432   -0.1886    3.6963 H   0  0  0  0  0  0  0  0  0  0  0  0
    0.4968    0.6670    7.7193 H   0  0  0  0  0  0  0  0  0  0  0  0
    1.9291    1.2949    6.9523 H   0  0  0  0  0  0  0  0  0  0  0  0
    1.9456   -0.2581    7.7537 H   0  0  0  0  0  0  0  0  0  0  0  0
   -1.1968   -0.8475    5.8354 H   0  0  0  0  0  0  0  0  0  0  0  0
   -0.9859    0.7578    6.2473 H   0  0  0  0  0  0  0  0  0  0  0  0
   -0.8456   -0.5247    3.5321 H   0  0  0  0  0  0  0  0  0  0  0  0
   -2.1030    0.4756    4.1341 H   0  0  0  0  0  0  0  0  0  0  0  0
   -0.0350    2.1419    1.3708 H   0  0  0  0  0  0  0  0  0  0  0  0
   -1.4156    1.1154    1.6608 H   0  0  0  0  0  0  0  0  0  0  0  0
    0.2146    0.4500    1.7197 H   0  0  0  0  0  0  0  0  0  0  0  0
   -0.8977    3.6318    2.9249 H   0  0  0  0  0  0  0  0  0  0  0  0
   -2.8600    2.4548    3.2858 H   0  0  0  0  0  0  0  0  0  0  0  0
   -0.3858    4.7008    5.0592 H   0  0  0  0  0  0  0  0  0  0  0  0
    1.8345    3.4141    5.4973 H   0  0  0  0  0  0  0  0  0  0  0  0
    1.4965    3.4134    2.6149 H   0  0  0  0  0  0  0  0  0  0  0  0
    2.2183    1.8929    2.1439 H   0  0  0  0  0  0  0  0  0  0  0  0
    2.9247    2.8851    3.4253 H   0  0  0  0  0  0  0  0  0  0  0  0
    0.5036   -2.2205    4.9678 H   0  0  0  0  0  0  0  0  0  0  0  0
   -0.9675   -4.1539    7.6787 H   0  0  0  0  0  0  0  0  0  0  0  0
   -0.8029   -4.0960    5.9469 H   0  0  0  0  0  0  0  0  0  0  0  0
    0.6423   -5.8076    7.7716 H   0  0  0  0  0  0  0  0  0  0  0  0
    2.6086   -6.0001    6.4401 H   0  0  0  0  0  0  0  0  0  0  0  0
    1.6025   -3.7869    3.0954 H   0  0  0  0  0  0  0  0  0  0  0  0
    0.3057   -4.0976    4.2183 H   0  0  0  0  0  0  0  0  0  0  0  0
    1.2526   -5.4146    3.6465 H   0  0  0  0  0  0  0  0  0  0  0  0
    4.3859   -4.8934    5.3869 H   0  0  0  0  0  0  0  0  0  0  0  0
    3.3743   -5.4528    2.5883 H   0  0  0  0  0  0  0  0  0  0  0  0
    3.4283   -6.6075    3.9200 H   0  0  0  0  0  0  0  0  0  0  0  0
    4.9094   -5.9034    3.3056 H   0  0  0  0  0  0  0  0  0  0  0  0
    5.2972   -2.9950    4.4777 H   0  0  0  0  0  0  0  0  0  0  0  0
    4.3923   -3.1648    2.9965 H   0  0  0  0  0  0  0  0  0  0  0  0
    2.6569   -1.8855    3.6655 H   0  0  0  0  0  0  0  0  0  0  0  0
    2.8704   -2.3220    7.8356 H   0  0  0  0  0  0  0  0  0  0  0  0
    4.9399   -3.5911    6.4822 H   0  0  0  0  0  0  0  0  0  0  0  0
  1  2  1  0
  1 35  1  0
  1 36  1  0
  1 37  1  0
  2 33  1  0
  2  3  2  0
  3 31  1  0
  3  4  1  0
  4  5  1  0
  4  6  1  0
  4 38  1  1
  5 39  1  0
  6 18  1  0
  6  7  1  0
  6 40  1  6
  7  8  1  1
  7  9  1  0
  7 20  1  0
  8 41  1  0
  8 42  1  0
  8 43  1  0
  9 10  1  0
  9 44  1  0
  9 45  1  0
 10 11  1  0
 10 46  1  0
 10 47  1  0
 11 18  1  0
 11 12  1  6
 11 13  1  0
 12 48  1  0
 12 49  1  0
 12 50  1  0
 13 14  1  0
 13 15  1  0
 13 51  1  6
 14 52  1  0
 15 17  1  0
 15 16  1  0
 15 53  1  1
 16 17  1  0
 17 18  1  0
 17 54  1  1
 18 19  1  6
 19 55  1  0
 19 56  1  0
 19 57  1  0
 20 32  1  0
 20 21  1  0
 20 58  1  6
 21 22  2  0
 21 23  1  0
 23 24  1  0
 23 59  1  0
 23 60  1  0
 24 25  2  0
 24 61  1  0
 25 26  1  0
 25 62  1  0
 32 26  1  6
 26 27  1  6
 26 28  1  0
 27 63  1  0
 27 64  1  0
 27 65  1  0
 28 29  1  0
 28 30  1  0
 28 66  1  1
 29 67  1  0
 29 68  1  0
 29 69  1  0
 30 31  1  0
 30 70  1  0
 30 71  1  0
 31 32  1  0
 31 72  1  6
 32 33  1  0
 33 34  1  0
 33 73  1  1
 34 74  1  0
M  END
>  <i_m_ct_stereo_status>  (58) 
1

>  <s_m_source_file>  (58) 
/var/tmp/pbs.5076255.sched01/tmp4ovtozgc/0905bh7x9.sdf

>  <i_m_source_file_index>  (58) 
23

>  <i_lp_mmshare_version>  (58) 
48012

>  <i_f3d_flags>  (58) 
0

>  <s_epik_input>  (58) 
TzFbQ0BASF0yW0NASF0xW0NASF0oW09IXSlbQ0BdKFtDSDNdKShbQ0gyXVtDSDJdMylbQ0BdMihbQ0gzXSlbQ0BIXShbQ0BdMyhbQ0gzXSlbQ0BIXTRbQ0BAXTU2NylbQ0BIXShbT0hdKUMoPUMoW0NIM10pW0NAQEhdN1tPSF0pW0NASF02W0NIMl1bQ0BIXShbQ0gzXSlbQ0BAXTUoW0NIM10pW0NIXT1bQ0hdW0NIMl1DND1P

>  <s_epik_cmdline>  (58) 
J2VwaWtfcHl0aG9uJywgJy1waHQnLCAnMi4wJywgJy1waCcsICc3LjAnLCAnLXRuJywgJzgnLCAnLW1hJywgJzIwMCcsICctaW1hZScsICc8aW5maWxlLm1hZT4nLCAnLW9tYWUnLCAnPG91dGZpbGUubWFlPic=

>  <r_lp_tautomer_probability>  (58) 
1

>  <r_epik_Ionization_Penalty>  (58) 
2.73806e-07

>  <r_epik_Ionization_Penalty_Charging>  (58) 
0

>  <r_epik_Ionization_Penalty_Neutral>  (58) 
2.73806e-07

>  <r_epik_State_Penalty>  (58) 
-0

>  <r_epik_Charging_Adjusted_Penalty>  (58) 
0

>  <i_epik_Tot_Q>  (58) 
0

>  <i_epik_Tot_abs_Q>  (58) 
0

>  <s_lp_Force_Field>  (58) 
OPLS3e

>  <r_lp_Energy>  (58) 
113.133

>  <b_lp_Chiralities_Consistent>  (58) 
1

>  <s_lp_Variant>  (58) 
16:0-1

>  <s_i_glide_gridfile>  (58) 
pfpi4k_grid

>  <i_i_glide_lignum>  (58) 
23

>  <i_i_glide_rotatable_bonds>  (58) 
3

>  <r_i_docking_score>  (58) 
-2.49749

>  <r_i_glide_ligand_efficiency>  (58) 
-0.0734556

>  <r_i_glide_ligand_efficiency_sa>  (58) 
-0.237968

>  <r_i_glide_ligand_efficiency_ln>  (58) 
-0.551766

>  <r_i_glide_gscore>  (58) 
-2.49749

>  <r_i_glide_lipo>  (58) 
-0.0089538

>  <r_i_glide_hbond>  (58) 
-0.133127

>  <r_i_glide_metal>  (58) 
-0

>  <r_i_glide_rewards>  (58) 
-0.213921

>  <r_i_glide_evdw>  (58) 
-24.1714

>  <r_i_glide_ecoul>  (58) 
-6.04098

>  <r_i_glide_erotb>  (58) 
0

>  <r_i_glide_esite>  (58) 
-0.0267714

>  <r_i_glide_emodel>  (58) 
-34.3438

>  <r_i_glide_energy>  (58) 
-30.2124

>  <r_i_glide_einternal>  (58) 
0.892066

>  <r_i_glide_intrahb_reward>  (58) 
-0

>  <i_i_glide_confnum>  (58) 
2

>  <i_i_glide_posenum>  (58) 
13

>  <r_i_glide_eff_state_penalty>  (58) 
0

>  <ligand_id>  (58) 
16

>  <original_smiles>  (58) 
CC1=C2C(O)C3C(C)(CCC4(C)C(O)C5OC5C34C)C3C(=O)CC=CC4(C)C(C)CC2C34C1O

>  <smiles>  (58) 
[H]OC1([H])C2=C(C([H])([H])[H])C([H])(O[H])C34C2([H])C([H])([H])C([H])(C([H])([H])[H])C3(C([H])([H])[H])C([H])=C([H])C([H])([H])C(=O)C4([H])C2(C([H])([H])[H])C([H])([H])C([H])([H])C3(C([H])([H])[H])C([H])(O[H])C4([H])OC4([H])C3(C([H])([H])[H])C12[H]

$$$$
16:0:1
     RDKit          3D

 74 80  0  0  1  0  0  0  0  0999 V2000
    3.7911    5.3411    7.9431 C   0  0  0  0  0  0  0  0  0  0  0  0
    3.4852    3.8714    8.1667 C   0  0  0  0  0  0  0  0  0  0  0  0
    3.3445    2.8716    7.2718 C   0  0  0  0  0  0  0  0  0  0  0  0
    2.8252    3.0470    5.8698 C   0  0  1  0  0  0  0  0  0  0  0  0
    3.6050    2.1813    5.0704 O   0  0  0  0  0  0  0  0  0  0  0  0
    1.2637    2.7024    5.8094 C   0  0  1  0  0  0  0  0  0  0  0  0
    0.3989    3.2056    7.0810 C   0  0  1  0  0  0  0  0  0  0  0  0
    0.5743    4.7515    7.2137 C   0  0  0  0  0  0  0  0  0  0  0  0
   -1.1293    2.9733    6.7454 C   0  0  0  0  0  0  0  0  0  0  0  0
   -1.4257    1.8925    5.7025 C   0  0  0  0  0  0  0  0  0  0  0  0
   -0.7982    2.1092    4.2893 C   0  0  1  0  0  0  0  0  0  0  0  0
   -0.6442    0.6732    3.7165 C   0  0  0  0  0  0  0  0  0  0  0  0
   -1.6669    2.9577    3.2958 C   0  0  1  0  0  0  0  0  0  0  0  0
   -3.0697    2.9301    3.4409 O   0  0  0  0  0  0  0  0  0  0  0  0
   -1.1522    4.3621    3.3658 C   0  0  1  0  0  0  0  0  0  0  0  0
   -0.9827    4.9656    4.6496 O   0  0  0  0  0  0  0  0  0  0  0  0
    0.1628    4.3513    4.0559 C   0  0  1  0  0  0  0  0  0  0  0  0
    0.5627    2.9161    4.3924 C   0  0  1  0  0  0  0  0  0  0  0  0
    1.4832    2.5239    3.2068 C   0  0  0  0  0  0  0  0  0  0  0  0
    0.6712    2.4356    8.5097 C   0  0  2  0  0  0  0  0  0  0  0  0
   -0.1651    2.9935    9.7053 C   0  0  0  0  0  0  0  0  0  0  0  0
   -0.5072    4.1666    9.7891 O   0  0  0  0  0  0  0  0  0  0  0  0
   -0.5651    2.0343   10.8276 C   0  0  0  0  0  0  0  0  0  0  0  0
    0.5829    1.7536   11.7828 C   0  0  0  0  0  0  0  0  0  0  0  0
    1.7762    1.2210   11.4576 C   0  0  0  0  0  0  0  0  0  0  0  0
    2.2067    0.8441   10.0520 C   0  0  2  0  0  0  0  0  0  0  0  0
    1.3562   -0.3727    9.5784 C   0  0  0  0  0  0  0  0  0  0  0  0
    3.7090    0.4089    9.9914 C   0  0  1  0  0  0  0  0  0  0  0  0
    4.0468   -1.0439   10.4104 C   0  0  0  0  0  0  0  0  0  0  0  0
    4.1668    0.7931    8.5651 C   0  0  0  0  0  0  0  0  0  0  0  0
    2.9842    1.5758    7.9352 C   0  0  1  0  0  0  0  0  0  0  0  0
    2.1288    2.0863    9.0711 C   0  0  1  0  0  0  0  0  0  0  0  0
    2.9147    3.4189    9.4863 C   0  0  1  0  0  0  0  0  0  0  0  0
    3.9507    3.3456   10.4419 O   0  0  0  0  0  0  0  0  0  0  0  0
    3.1375    5.9740    8.5439 H   0  0  0  0  0  0  0  0  0  0  0  0
    3.6957    5.6458    6.9037 H   0  0  0  0  0  0  0  0  0  0  0  0
    4.8111    5.5610    8.2638 H   0  0  0  0  0  0  0  0  0  0  0  0
    2.9986    4.0599    5.5249 H   0  0  0  0  0  0  0  0  0  0  0  0
    3.4091    2.3506    4.1598 H   0  0  0  0  0  0  0  0  0  0  0  0
    1.2167    1.6201    5.8836 H   0  0  0  0  0  0  0  0  0  0  0  0
   -0.3727    5.2883    7.3176 H   0  0  0  0  0  0  0  0  0  0  0  0
    1.0738    5.1902    6.3498 H   0  0  0  0  0  0  0  0  0  0  0  0
    1.1442    5.0485    8.0877 H   0  0  0  0  0  0  0  0  0  0  0  0
   -1.6830    2.6668    7.6290 H   0  0  0  0  0  0  0  0  0  0  0  0
   -1.6782    3.8749    6.4923 H   0  0  0  0  0  0  0  0  0  0  0  0
   -1.1061    0.9393    6.1194 H   0  0  0  0  0  0  0  0  0  0  0  0
   -2.5050    1.7997    5.6169 H   0  0  0  0  0  0  0  0  0  0  0  0
   -0.3052    0.6621    2.6799 H   0  0  0  0  0  0  0  0  0  0  0  0
   -1.5977    0.1433    3.7388 H   0  0  0  0  0  0  0  0  0  0  0  0
    0.0707    0.0937    4.3047 H   0  0  0  0  0  0  0  0  0  0  0  0
   -1.4669    2.6249    2.2783 H   0  0  0  0  0  0  0  0  0  0  0  0
   -3.3738    2.0522    3.2386 H   0  0  0  0  0  0  0  0  0  0  0  0
   -1.3277    5.0400    2.5310 H   0  0  0  0  0  0  0  0  0  0  0  0
    0.9475    5.0560    3.7792 H   0  0  0  0  0  0  0  0  0  0  0  0
    0.9574    2.5917    2.2556 H   0  0  0  0  0  0  0  0  0  0  0  0
    1.8728    1.5073    3.2830 H   0  0  0  0  0  0  0  0  0  0  0  0
    2.3191    3.2151    3.1092 H   0  0  0  0  0  0  0  0  0  0  0  0
    0.2250    1.4707    8.2981 H   0  0  0  0  0  0  0  0  0  0  0  0
   -1.3626    2.5102   11.4055 H   0  0  0  0  0  0  0  0  0  0  0  0
   -0.9949    1.1148   10.4383 H   0  0  0  0  0  0  0  0  0  0  0  0
    0.3675    1.9605   12.8225 H   0  0  0  0  0  0  0  0  0  0  0  0
    2.4916    1.0322   12.2430 H   0  0  0  0  0  0  0  0  0  0  0  0
    1.6795   -0.7565    8.6106 H   0  0  0  0  0  0  0  0  0  0  0  0
    0.2959   -0.1703    9.4984 H   0  0  0  0  0  0  0  0  0  0  0  0
    1.4253   -1.1982   10.2867 H   0  0  0  0  0  0  0  0  0  0  0  0
    4.2775    1.0026   10.7019 H   0  0  0  0  0  0  0  0  0  0  0  0
    3.6505   -1.7886    9.7190 H   0  0  0  0  0  0  0  0  0  0  0  0
    3.6559   -1.2691   11.4046 H   0  0  0  0  0  0  0  0  0  0  0  0
    5.1265   -1.1955   10.4544 H   0  0  0  0  0  0  0  0  0  0  0  0
    5.0973    1.3706    8.6102 H   0  0  0  0  0  0  0  0  0  0  0  0
    4.3934   -0.0984    7.9777 H   0  0  0  0  0  0  0  0  0  0  0  0
    2.4735    0.8725    7.2779 H   0  0  0  0  0  0  0  0  0  0  0  0
    2.2355    4.1798    9.8623 H   0  0  0  0  0  0  0  0  0  0  0  0
    3.5802    3.0844   11.2723 H   0  0  0  0  0  0  0  0  0  0  0  0
  1  2  1  0
  1 35  1  0
  1 36  1  0
  1 37  1  0
  2 33  1  0
  2  3  2  0
  3 31  1  0
  3  4  1  0
  4  5  1  0
  4  6  1  0
  4 38  1  6
  5 39  1  0
  6 18  1  0
  6  7  1  0
  6 40  1  1
  7  8  1  1
  7  9  1  0
  7 20  1  0
  8 41  1  0
  8 42  1  0
  8 43  1  0
  9 10  1  0
  9 44  1  0
  9 45  1  0
 10 11  1  0
 10 46  1  0
 10 47  1  0
 11 18  1  0
 11 12  1  6
 11 13  1  0
 12 48  1  0
 12 49  1  0
 12 50  1  0
 13 14  1  0
 13 15  1  0
 13 51  1  6
 14 52  1  0
 15 17  1  0
 15 16  1  0
 15 53  1  6
 16 17  1  0
 17 18  1  0
 17 54  1  6
 18 19  1  6
 19 55  1  0
 19 56  1  0
 19 57  1  0
 20 32  1  0
 20 21  1  0
 20 58  1  6
 21 22  2  0
 21 23  1  0
 23 24  1  0
 23 59  1  0
 23 60  1  0
 24 25  2  0
 24 61  1  0
 25 26  1  0
 25 62  1  0
 32 26  1  1
 26 27  1  6
 26 28  1  0
 27 63  1  0
 27 64  1  0
 27 65  1  0
 28 29  1  0
 28 30  1  0
 28 66  1  1
 29 67  1  0
 29 68  1  0
 29 69  1  0
 30 31  1  0
 30 70  1  0
 30 71  1  0
 31 32  1  0
 31 72  1  6
 32 33  1  0
 33 34  1  0
 33 73  1  1
 34 74  1  0
M  END
>  <i_m_ct_stereo_status>  (59) 
1

>  <s_m_source_file>  (59) 
/var/tmp/pbs.5076255.sched01/tmp4ovtozgc/0905bh7x9.sdf

>  <i_m_source_file_index>  (59) 
23

>  <i_lp_mmshare_version>  (59) 
48012

>  <i_f3d_flags>  (59) 
0

>  <s_epik_input>  (59) 
TzFbQ0BASF0yW0NASF0xW0NASF0oW09IXSlbQ0BdKFtDSDNdKShbQ0gyXVtDSDJdMylbQ0BdMihbQ0gzXSlbQ0BIXShbQ0BdMyhbQ0gzXSlbQ0BIXTRbQ0BAXTU2NylbQ0BIXShbT0hdKUMoPUMoW0NIM10pW0NAQEhdN1tPSF0pW0NASF02W0NIMl1bQ0BIXShbQ0gzXSlbQ0BAXTUoW0NIM10pW0NIXT1bQ0hdW0NIMl1DND1P

>  <s_epik_cmdline>  (59) 
J2VwaWtfcHl0aG9uJywgJy1waHQnLCAnMi4wJywgJy1waCcsICc3LjAnLCAnLXRuJywgJzgnLCAnLW1hJywgJzIwMCcsICctaW1hZScsICc8aW5maWxlLm1hZT4nLCAnLW9tYWUnLCAnPG91dGZpbGUubWFlPic=

>  <r_lp_tautomer_probability>  (59) 
1

>  <r_epik_Ionization_Penalty>  (59) 
2.73806e-07

>  <r_epik_Ionization_Penalty_Charging>  (59) 
0

>  <r_epik_Ionization_Penalty_Neutral>  (59) 
2.73806e-07

>  <r_epik_State_Penalty>  (59) 
-0

>  <r_epik_Charging_Adjusted_Penalty>  (59) 
0

>  <i_epik_Tot_Q>  (59) 
0

>  <i_epik_Tot_abs_Q>  (59) 
0

>  <s_lp_Force_Field>  (59) 
OPLS3e

>  <r_lp_Energy>  (59) 
113.133

>  <b_lp_Chiralities_Consistent>  (59) 
1

>  <s_lp_Variant>  (59) 
16:0-1

>  <s_i_glide_gridfile>  (59) 
pfpi4k_grid

>  <i_i_glide_lignum>  (59) 
23

>  <i_i_glide_rotatable_bonds>  (59) 
3

>  <r_i_docking_score>  (59) 
-2.34823

>  <r_i_glide_ligand_efficiency>  (59) 
-0.0690656

>  <r_i_glide_ligand_efficiency_sa>  (59) 
-0.223746

>  <r_i_glide_ligand_efficiency_ln>  (59) 
-0.51879

>  <r_i_glide_gscore>  (59) 
-2.34823

>  <r_i_glide_lipo>  (59) 
-0.0146256

>  <r_i_glide_hbond>  (59) 
-0.0536327

>  <r_i_glide_metal>  (59) 
-0

>  <r_i_glide_rewards>  (59) 
-0.213921

>  <r_i_glide_evdw>  (59) 
-20.8605

>  <r_i_glide_ecoul>  (59) 
-6.77445

>  <r_i_glide_erotb>  (59) 
0

>  <r_i_glide_esite>  (59) 
-0.00685942

>  <r_i_glide_emodel>  (59) 
-31.2539

>  <r_i_glide_energy>  (59) 
-27.6349

>  <r_i_glide_einternal>  (59) 
1.29162

>  <r_i_glide_intrahb_reward>  (59) 
-0

>  <i_i_glide_confnum>  (59) 
1

>  <i_i_glide_posenum>  (59) 
34

>  <r_i_glide_eff_state_penalty>  (59) 
0

>  <ligand_id>  (59) 
16

>  <original_smiles>  (59) 
CC1=C2C(O)C3C(C)(CCC4(C)C(O)C5OC5C34C)C3C(=O)CC=CC4(C)C(C)CC2C34C1O

>  <smiles>  (59) 
[H]OC1([H])C2=C(C([H])([H])[H])C([H])(O[H])C34C2([H])C([H])([H])C([H])(C([H])([H])[H])C3(C([H])([H])[H])C([H])=C([H])C([H])([H])C(=O)C4([H])C2(C([H])([H])[H])C([H])([H])C([H])([H])C3(C([H])([H])[H])C([H])(O[H])C4([H])OC4([H])C3(C([H])([H])[H])C12[H]

$$$$
16:0:2
     RDKit          3D

 74 80  0  0  1  0  0  0  0  0999 V2000
    3.7070    5.4693    8.0750 C   0  0  0  0  0  0  0  0  0  0  0  0
    3.3040    4.0637    8.4698 C   0  0  0  0  0  0  0  0  0  0  0  0
    3.1229    2.9653    7.6954 C   0  0  0  0  0  0  0  0  0  0  0  0
    2.6620    2.9986    6.2649 C   0  0  1  0  0  0  0  0  0  0  0  0
    3.4057    1.9921    5.6082 O   0  0  0  0  0  0  0  0  0  0  0  0
    1.0846    2.7446    6.1804 C   0  0  1  0  0  0  0  0  0  0  0  0
    0.2166    3.4529    7.3458 C   0  0  1  0  0  0  0  0  0  0  0  0
    0.4853    4.9905    7.2950 C   0  0  0  0  0  0  0  0  0  0  0  0
   -1.3095    3.2739    6.9798 C   0  0  0  0  0  0  0  0  0  0  0  0
   -1.6415    2.0930    6.0691 C   0  0  0  0  0  0  0  0  0  0  0  0
   -0.9613    2.0928    4.6619 C   0  0  1  0  0  0  0  0  0  0  0  0
   -0.8847    0.5886    4.2791 C   0  0  0  0  0  0  0  0  0  0  0  0
   -1.7382    2.8609    3.5353 C   0  0  1  0  0  0  0  0  0  0  0  0
   -3.1430    2.9328    3.6124 O   0  0  0  0  0  0  0  0  0  0  0  0
   -1.1395    4.2287    3.4536 C   0  0  1  0  0  0  0  0  0  0  0  0
   -0.9708    4.9763    4.6616 O   0  0  0  0  0  0  0  0  0  0  0  0
    0.1518    4.2236    4.1911 C   0  0  1  0  0  0  0  0  0  0  0  0
    0.4441    2.8220    4.7201 C   0  0  1  0  0  0  0  0  0  0  0  0
    1.3740    2.2314    3.6281 C   0  0  0  0  0  0  0  0  0  0  0  0
    0.3939    2.8543    8.8696 C   0  0  2  0  0  0  0  0  0  0  0  0
   -0.4465    3.6050    9.9481 C   0  0  0  0  0  0  0  0  0  0  0  0
   -0.7216    4.8000    9.8721 O   0  0  0  0  0  0  0  0  0  0  0  0
   -0.9448    2.8213   11.1619 C   0  0  0  0  0  0  0  0  0  0  0  0
    0.1515    2.5930   12.1900 C   0  0  0  0  0  0  0  0  0  0  0  0
    1.3167    1.9522   11.9827 C   0  0  0  0  0  0  0  0  0  0  0  0
    1.7669    1.3760   10.6552 C   0  0  2  0  0  0  0  0  0  0  0  0
    0.8536    0.1642   10.2996 C   0  0  0  0  0  0  0  0  0  0  0  0
    3.2378    0.8485   10.7116 C   0  0  1  0  0  0  0  0  0  0  0  0
    3.4653   -0.5593   11.3165 C   0  0  0  0  0  0  0  0  0  0  0  0
    3.7667    1.0247    9.2672 C   0  0  0  0  0  0  0  0  0  0  0  0
    2.6564    1.7907    8.4997 C   0  0  1  0  0  0  0  0  0  0  0  0
    1.8053    2.4901    9.5296 C   0  0  1  0  0  0  0  0  0  0  0  0
    2.6677    3.8120    9.8096 C   0  0  1  0  0  0  0  0  0  0  0  0
    3.6582    3.8042   10.8113 O   0  0  0  0  0  0  0  0  0  0  0  0
    3.0766    6.2108    8.5669 H   0  0  0  0  0  0  0  0  0  0  0  0
    3.6653    5.6486    7.0041 H   0  0  0  0  0  0  0  0  0  0  0  0
    4.7267    5.6673    8.4075 H   0  0  0  0  0  0  0  0  0  0  0  0
    2.9120    3.9475    5.8026 H   0  0  0  0  0  0  0  0  0  0  0  0
    3.2016    2.0237    4.6827 H   0  0  0  0  0  0  0  0  0  0  0  0
    0.9647    1.6857    6.3858 H   0  0  0  0  0  0  0  0  0  0  0  0
   -0.4293    5.5913    7.2933 H   0  0  0  0  0  0  0  0  0  0  0  0
    1.0392    5.2865    6.4032 H   0  0  0  0  0  0  0  0  0  0  0  0
    1.0439    5.3595    8.1491 H   0  0  0  0  0  0  0  0  0  0  0  0
   -1.9124    3.1139    7.8696 H   0  0  0  0  0  0  0  0  0  0  0  0
   -1.7911    4.1651    6.5934 H   0  0  0  0  0  0  0  0  0  0  0  0
   -1.4044    1.1793    6.6114 H   0  0  0  0  0  0  0  0  0  0  0  0
   -2.7203    2.0783    5.9610 H   0  0  0  0  0  0  0  0  0  0  0  0
   -0.5123    0.4261    3.2660 H   0  0  0  0  0  0  0  0  0  0  0  0
   -1.8707    0.1226    4.3279 H   0  0  0  0  0  0  0  0  0  0  0  0
   -0.2277    0.0457    4.9624 H   0  0  0  0  0  0  0  0  0  0  0  0
   -1.5261    2.3969    2.5713 H   0  0  0  0  0  0  0  0  0  0  0  0
   -3.4908    2.0775    3.3630 H   0  0  0  0  0  0  0  0  0  0  0  0
   -1.2521    4.8123    2.5381 H   0  0  0  0  0  0  0  0  0  0  0  0
    0.9867    4.8406    3.8641 H   0  0  0  0  0  0  0  0  0  0  0  0
    0.8852    2.2225    2.6551 H   0  0  0  0  0  0  0  0  0  0  0  0
    1.6910    1.2092    3.8417 H   0  0  0  0  0  0  0  0  0  0  0  0
    2.2577    2.8514    3.4851 H   0  0  0  0  0  0  0  0  0  0  0  0
   -0.1117    1.9006    8.7608 H   0  0  0  0  0  0  0  0  0  0  0  0
   -1.7257    3.4127   11.6469 H   0  0  0  0  0  0  0  0  0  0  0  0
   -1.4300    1.8890   10.8769 H   0  0  0  0  0  0  0  0  0  0  0  0
   -0.0846    2.9406   13.1869 H   0  0  0  0  0  0  0  0  0  0  0  0
    1.9930    1.8257   12.8141 H   0  0  0  0  0  0  0  0  0  0  0  0
    1.1814   -0.3574    9.4007 H   0  0  0  0  0  0  0  0  0  0  0  0
   -0.1890    0.4195   10.1560 H   0  0  0  0  0  0  0  0  0  0  0  0
    0.8438   -0.5681   11.1074 H   0  0  0  0  0  0  0  0  0  0  0  0
    3.8127    1.4896   11.3742 H   0  0  0  0  0  0  0  0  0  0  0  0
    3.0434   -1.3586   10.7066 H   0  0  0  0  0  0  0  0  0  0  0  0
    3.0278   -0.6335   12.3136 H   0  0  0  0  0  0  0  0  0  0  0  0
    4.5306   -0.7699   11.4236 H   0  0  0  0  0  0  0  0  0  0  0  0
    4.7356    1.5394    9.2720 H   0  0  0  0  0  0  0  0  0  0  0  0
    3.9506    0.0532    8.8035 H   0  0  0  0  0  0  0  0  0  0  0  0
    2.1221    1.0410    7.9122 H   0  0  0  0  0  0  0  0  0  0  0  0
    2.0255    4.6530   10.0627 H   0  0  0  0  0  0  0  0  0  0  0  0
    4.2165    3.0511   10.6708 H   0  0  0  0  0  0  0  0  0  0  0  0
  1  2  1  0
  1 35  1  0
  1 36  1  0
  1 37  1  0
  2 33  1  0
  2  3  2  0
  3 31  1  0
  3  4  1  0
  4  5  1  0
  4  6  1  0
  4 38  1  6
  5 39  1  0
  6 18  1  0
  6  7  1  0
  6 40  1  1
  7  8  1  1
  7  9  1  0
  7 20  1  0
  8 41  1  0
  8 42  1  0
  8 43  1  0
  9 10  1  0
  9 44  1  0
  9 45  1  0
 10 11  1  0
 10 46  1  0
 10 47  1  0
 11 18  1  0
 11 12  1  6
 11 13  1  0
 12 48  1  0
 12 49  1  0
 12 50  1  0
 13 14  1  0
 13 15  1  0
 13 51  1  6
 14 52  1  0
 15 17  1  0
 15 16  1  0
 15 53  1  6
 16 17  1  0
 17 18  1  0
 17 54  1  6
 18 19  1  6
 19 55  1  0
 19 56  1  0
 19 57  1  0
 20 32  1  0
 20 21  1  0
 20 58  1  6
 21 22  2  0
 21 23  1  0
 23 24  1  0
 23 59  1  0
 23 60  1  0
 24 25  2  0
 24 61  1  0
 25 26  1  0
 25 62  1  0
 32 26  1  1
 26 27  1  6
 26 28  1  0
 27 63  1  0
 27 64  1  0
 27 65  1  0
 28 29  1  0
 28 30  1  0
 28 66  1  1
 29 67  1  0
 29 68  1  0
 29 69  1  0
 30 31  1  0
 30 70  1  0
 30 71  1  0
 31 32  1  0
 31 72  1  6
 32 33  1  0
 33 34  1  0
 33 73  1  1
 34 74  1  0
M  END
>  <i_m_ct_stereo_status>  (60) 
1

>  <s_m_source_file>  (60) 
/var/tmp/pbs.5076255.sched01/tmp4ovtozgc/0905bh7x9.sdf

>  <i_m_source_file_index>  (60) 
23

>  <i_lp_mmshare_version>  (60) 
48012

>  <i_f3d_flags>  (60) 
0

>  <s_epik_input>  (60) 
TzFbQ0BASF0yW0NASF0xW0NASF0oW09IXSlbQ0BdKFtDSDNdKShbQ0gyXVtDSDJdMylbQ0BdMihbQ0gzXSlbQ0BIXShbQ0BdMyhbQ0gzXSlbQ0BIXTRbQ0BAXTU2NylbQ0BIXShbT0hdKUMoPUMoW0NIM10pW0NAQEhdN1tPSF0pW0NASF02W0NIMl1bQ0BIXShbQ0gzXSlbQ0BAXTUoW0NIM10pW0NIXT1bQ0hdW0NIMl1DND1P

>  <s_epik_cmdline>  (60) 
J2VwaWtfcHl0aG9uJywgJy1waHQnLCAnMi4wJywgJy1waCcsICc3LjAnLCAnLXRuJywgJzgnLCAnLW1hJywgJzIwMCcsICctaW1hZScsICc8aW5maWxlLm1hZT4nLCAnLW9tYWUnLCAnPG91dGZpbGUubWFlPic=

>  <r_lp_tautomer_probability>  (60) 
1

>  <r_epik_Ionization_Penalty>  (60) 
2.73806e-07

>  <r_epik_Ionization_Penalty_Charging>  (60) 
0

>  <r_epik_Ionization_Penalty_Neutral>  (60) 
2.73806e-07

>  <r_epik_State_Penalty>  (60) 
-0

>  <r_epik_Charging_Adjusted_Penalty>  (60) 
0

>  <i_epik_Tot_Q>  (60) 
0

>  <i_epik_Tot_abs_Q>  (60) 
0

>  <s_lp_Force_Field>  (60) 
OPLS3e

>  <r_lp_Energy>  (60) 
113.133

>  <b_lp_Chiralities_Consistent>  (60) 
1

>  <s_lp_Variant>  (60) 
16:0-1

>  <s_i_glide_gridfile>  (60) 
pfpi4k_grid

>  <i_i_glide_lignum>  (60) 
23

>  <i_i_glide_rotatable_bonds>  (60) 
3

>  <r_i_docking_score>  (60) 
-2.23977

>  <r_i_glide_ligand_efficiency>  (60) 
-0.0658756

>  <r_i_glide_ligand_efficiency_sa>  (60) 
-0.213411

>  <r_i_glide_ligand_efficiency_ln>  (60) 
-0.494828

>  <r_i_glide_gscore>  (60) 
-2.23977

>  <r_i_glide_lipo>  (60) 
-0.0241697

>  <r_i_glide_hbond>  (60) 
-0.0516676

>  <r_i_glide_metal>  (60) 
-0

>  <r_i_glide_rewards>  (60) 
-0.213921

>  <r_i_glide_evdw>  (60) 
-20.1063

>  <r_i_glide_ecoul>  (60) 
-6.24342

>  <r_i_glide_erotb>  (60) 
0

>  <r_i_glide_esite>  (60) 
-0.00818421

>  <r_i_glide_emodel>  (60) 
-29.8278

>  <r_i_glide_energy>  (60) 
-26.3497

>  <r_i_glide_einternal>  (60) 
1.00832

>  <r_i_glide_intrahb_reward>  (60) 
-0

>  <i_i_glide_confnum>  (60) 
1

>  <i_i_glide_posenum>  (60) 
1

>  <r_i_glide_eff_state_penalty>  (60) 
0

>  <ligand_id>  (60) 
16

>  <original_smiles>  (60) 
CC1=C2C(O)C3C(C)(CCC4(C)C(O)C5OC5C34C)C3C(=O)CC=CC4(C)C(C)CC2C34C1O

>  <smiles>  (60) 
[H]OC1([H])C2=C(C([H])([H])[H])C([H])(O[H])C34C2([H])C([H])([H])C([H])(C([H])([H])[H])C3(C([H])([H])[H])C([H])=C([H])C([H])([H])C(=O)C4([H])C2(C([H])([H])[H])C([H])([H])C([H])([H])C3(C([H])([H])[H])C([H])(O[H])C4([H])OC4([H])C3(C([H])([H])[H])C12[H]

$$$$
17:0:0
     RDKit          3D

 55 58  0  0  1  0  0  0  0  0999 V2000
    2.5698   -4.6596    6.7999 C   0  0  0  0  0  0  0  0  0  0  0  0
    2.4575   -5.7662    6.0557 C   0  0  0  0  0  0  0  0  0  0  0  0
    1.9432   -5.8060    4.6425 C   0  0  0  0  0  0  0  0  0  0  0  0
    2.7938   -6.6189    3.7515 N   0  0  0  0  0  0  0  0  0  0  0  0
    4.0453   -5.8892    3.5482 C   0  0  0  0  0  0  0  0  0  0  0  0
    5.0867   -6.6064    2.6312 C   0  0  1  0  0  0  0  0  0  0  0  0
    4.9346   -8.1473    2.6445 C   0  0  0  0  0  0  0  0  0  0  0  0
    3.7299   -8.5895    1.7805 C   0  0  0  0  0  0  0  0  0  0  0  0
    2.8815   -7.4246    1.3923 N   0  0  2  0  0  0  0  0  0  0  0  0
    3.6264   -6.4127    0.5687 C   0  0  1  0  0  0  0  0  0  0  0  0
    2.7600   -5.1549    0.1897 C   0  0  0  0  0  0  0  0  0  0  0  0
    1.5026   -5.6038   -0.2687 O   0  0  0  0  0  0  0  0  0  0  0  0
    5.0306   -6.0999    1.1622 C   0  0  1  0  0  0  0  0  0  0  0  0
    5.4669   -4.6469    0.9611 C   0  0  0  0  0  0  0  0  0  0  0  0
    5.4892   -4.1048   -0.3427 C   0  0  0  0  0  0  0  0  0  0  0  0
    5.6715   -2.7481   -0.5174 C   0  0  0  0  0  0  0  0  0  0  0  0
    5.9167   -1.9251    0.6106 C   0  0  0  0  0  0  0  0  0  0  0  0
    6.0430   -0.2801    0.3907 Cl  0  0  0  0  0  0  0  0  0  0  0  0
    5.9843   -2.4649    1.9126 C   0  0  0  0  0  0  0  0  0  0  0  0
    5.8170   -3.8394    2.0742 C   0  0  0  0  0  0  0  0  0  0  0  0
    2.0662   -6.8245    2.4960 C   0  0  1  0  0  0  0  0  0  0  0  0
    0.8145   -7.6388    2.6921 C   0  0  0  0  0  0  0  0  0  0  0  0
   -0.4087   -7.2215    2.1390 C   0  0  0  0  0  0  0  0  0  0  0  0
   -1.5876   -7.9276    2.4654 C   0  0  0  0  0  0  0  0  0  0  0  0
   -1.5214   -9.0618    3.2535 C   0  0  0  0  0  0  0  0  0  0  0  0
   -0.2772   -9.4973    3.7825 C   0  0  0  0  0  0  0  0  0  0  0  0
    0.8781   -8.7776    3.5167 C   0  0  0  0  0  0  0  0  0  0  0  0
    2.3022   -3.6943    6.3985 H   0  0  0  0  0  0  0  0  0  0  0  0
    2.9438   -4.7154    7.8153 H   0  0  0  0  0  0  0  0  0  0  0  0
    2.7447   -6.7184    6.4602 H   0  0  0  0  0  0  0  0  0  0  0  0
    0.9465   -6.2272    4.7279 H   0  0  0  0  0  0  0  0  0  0  0  0
    1.8031   -4.7941    4.2633 H   0  0  0  0  0  0  0  0  0  0  0  0
    3.7846   -4.9075    3.1414 H   0  0  0  0  0  0  0  0  0  0  0  0
    4.5206   -5.7349    4.5154 H   0  0  0  0  0  0  0  0  0  0  0  0
    6.0906   -6.4188    3.0218 H   0  0  0  0  0  0  0  0  0  0  0  0
    5.8458   -8.6306    2.2733 H   0  0  0  0  0  0  0  0  0  0  0  0
    4.8108   -8.4813    3.6809 H   0  0  0  0  0  0  0  0  0  0  0  0
    4.0863   -9.1282    0.8882 H   0  0  0  0  0  0  0  0  0  0  0  0
    3.1573   -9.3393    2.3352 H   0  0  0  0  0  0  0  0  0  0  0  0
    3.8273   -6.9236   -0.3582 H   0  0  0  0  0  0  0  0  0  0  0  0
    2.5946   -4.4855    1.0587 H   0  0  0  0  0  0  0  0  0  0  0  0
    3.1766   -4.5874   -0.6595 H   0  0  0  0  0  0  0  0  0  0  0  0
    1.5817   -5.6624   -1.2116 H   0  0  0  0  0  0  0  0  0  0  0  0
    5.7564   -6.7161    0.6096 H   0  0  0  0  0  0  0  0  0  0  0  0
    5.3323   -4.7156   -1.2240 H   0  0  0  0  0  0  0  0  0  0  0  0
    5.6059   -2.2500   -1.4733 H   0  0  0  0  0  0  0  0  0  0  0  0
    6.1133   -1.8207    2.7595 H   0  0  0  0  0  0  0  0  0  0  0  0
    5.8680   -4.1980    3.0915 H   0  0  0  0  0  0  0  0  0  0  0  0
    1.6693   -5.8541    2.1914 H   0  0  0  0  0  0  0  0  0  0  0  0
   -0.4675   -6.3422    1.5276 H   0  0  0  0  0  0  0  0  0  0  0  0
   -2.5526   -7.6005    2.0951 H   0  0  0  0  0  0  0  0  0  0  0  0
   -2.4153   -9.6068    3.4719 H   0  0  0  0  0  0  0  0  0  0  0  0
   -0.1860  -10.3457    4.4451 H   0  0  0  0  0  0  0  0  0  0  0  0
    1.7989   -9.0638    4.0010 H   0  0  0  0  0  0  0  0  0  0  0  0
    2.1915   -7.8243    0.7645 H   0  0  0  0  0  0  0  0  0  0  0  0
  1  2  2  0
  1 28  1  0
  1 29  1  0
  2  3  1  0
  2 30  1  0
  3  4  1  0
  3 31  1  0
  3 32  1  0
  4 21  1  0
  4  5  1  0
  5  6  1  0
  5 33  1  0
  5 34  1  0
  6 13  1  0
  6  7  1  0
  6 35  1  1
  7  8  1  0
  7 36  1  0
  7 37  1  0
  8  9  1  0
  8 38  1  0
  8 39  1  0
  9 10  1  0
  9 21  1  0
  9 55  1  6
 10 11  1  0
 10 13  1  0
 10 40  1  6
 11 12  1  0
 11 41  1  0
 11 42  1  0
 12 43  1  0
 13 14  1  0
 13 44  1  6
 14 20  1  0
 14 15  2  0
 15 16  1  0
 15 45  1  0
 16 17  2  0
 16 46  1  0
 17 18  1  0
 17 19  1  0
 19 20  2  0
 19 47  1  0
 20 48  1  0
 21 22  1  0
 21 49  1  6
 22 27  1  0
 22 23  2  0
 23 24  1  0
 23 50  1  0
 24 25  2  0
 24 51  1  0
 25 26  1  0
 25 52  1  0
 26 27  2  0
 26 53  1  0
 27 54  1  0
M  CHG  1   9   1
M  END
>  <i_m_ct_stereo_status>  (61) 
1

>  <s_m_source_file>  (61) 
/var/tmp/pbs.5076255.sched01/tmp4ovtozgc/0905bh7x9.sdf

>  <i_m_source_file_index>  (61) 
24

>  <i_lp_mmshare_version>  (61) 
48012

>  <i_f3d_flags>  (61) 
0

>  <s_epik_input>  (61) 
W2NIXTFbY0hdW2NIXVtjSF1bY0hdYzFbQ0BASF0oTihbQ0gyXVtDQEBIXTIzKVtDSDJdW0NIXT1bQ0gyXSlOKFtDSDJdW0NIMl0yKVtDQEBIXShbQ0gyXVtPSF0pW0NASF0zYzRbY0hdW2NIXWMoQ2wpW2NIXVtjSF00

>  <s_epik_cmdline>  (61) 
J2VwaWtfcHl0aG9uJywgJy1waHQnLCAnMi4wJywgJy1waCcsICc3LjAnLCAnLXRuJywgJzgnLCAnLW1hJywgJzIwMCcsICctaW1hZScsICc8aW5maWxlLm1hZT4nLCAnLW9tYWUnLCAnPG91dGZpbGUubWFlPic=

>  <r_epik_Ionization_Penalty>  (61) 
0.00361911

>  <r_epik_Ionization_Penalty_Charging>  (61) 
0.00361557

>  <r_epik_Ionization_Penalty_Neutral>  (61) 
3.54473e-06

>  <r_epik_State_Penalty>  (61) 
0.0404935

>  <r_epik_Charging_Adjusted_Penalty>  (61) 
0.044109

>  <i_epik_Tot_Q>  (61) 
1

>  <i_epik_Tot_abs_Q>  (61) 
1

>  <s_epik_Chemistry_Notes>  (61) 
This compound contains an acetal/aminal-like group ( X-CH(R)-Y where X, Y are N, S, or O) that may be acid/base labile, releasing an aldehyde.

>  <s_lp_Force_Field>  (61) 
OPLS3e

>  <r_lp_Energy>  (61) 
50.5131

>  <b_lp_Chiralities_Consistent>  (61) 
1

>  <s_lp_Variant>  (61) 
17:0-1

>  <s_i_glide_gridfile>  (61) 
pfpi4k_grid

>  <i_i_glide_lignum>  (61) 
24

>  <i_i_glide_rotatable_bonds>  (61) 
6

>  <r_i_docking_score>  (61) 
-2.66116

>  <r_i_glide_ligand_efficiency>  (61) 
-0.0985616

>  <r_i_glide_ligand_efficiency_sa>  (61) 
-0.295685

>  <r_i_glide_ligand_efficiency_ln>  (61) 
-0.619475

>  <r_i_glide_gscore>  (61) 
-2.66116

>  <r_i_glide_lipo>  (61) 
-0.573391

>  <r_i_glide_hbond>  (61) 
-0.524506

>  <r_i_glide_metal>  (61) 
-0

>  <r_i_glide_rewards>  (61) 
-0.79136

>  <r_i_glide_evdw>  (61) 
-14.3763

>  <r_i_glide_ecoul>  (61) 
-4.67189

>  <r_i_glide_erotb>  (61) 
0.659316

>  <r_i_glide_esite>  (61) 
-0.011622

>  <r_i_glide_emodel>  (61) 
-20.7308

>  <r_i_glide_energy>  (61) 
-19.0482

>  <r_i_glide_einternal>  (61) 
2.32495

>  <r_i_glide_intrahb_reward>  (61) 
-0

>  <i_i_glide_confnum>  (61) 
3

>  <i_i_glide_posenum>  (61) 
18

>  <r_i_glide_eff_state_penalty>  (61) 
0

>  <ligand_id>  (61) 
17

>  <original_smiles>  (61) 
C=CCN1CC2CCN(C(CO)C2c2ccc(Cl)cc2)C1c1ccccc1

>  <smiles>  (61) 
[H]OC([H])([H])C1([H])C([H])(c2c([H])c([H])c(Cl)c([H])c2[H])C2([H])C([H])([H])N(C([H])([H])C([H])=C([H])[H])C([H])(c3c([H])c([H])c([H])c([H])c3[H])[N+]1([H])C([H])([H])C2([H])[H]

$$$$
17:0:1
     RDKit          3D

 55 58  0  0  1  0  0  0  0  0999 V2000
    3.2578   -6.4956    6.6552 C   0  0  0  0  0  0  0  0  0  0  0  0
    2.1520   -5.9767    6.0958 C   0  0  0  0  0  0  0  0  0  0  0  0
    1.7678   -6.0038    4.6272 C   0  0  0  0  0  0  0  0  0  0  0  0
    2.7455   -6.6670    3.7423 N   0  0  0  0  0  0  0  0  0  0  0  0
    3.9022   -5.7825    3.5971 C   0  0  0  0  0  0  0  0  0  0  0  0
    5.0648   -6.3686    2.7410 C   0  0  1  0  0  0  0  0  0  0  0  0
    5.0797   -7.9120    2.7202 C   0  0  0  0  0  0  0  0  0  0  0  0
    3.9761   -8.4625    1.7845 C   0  0  0  0  0  0  0  0  0  0  0  0
    3.0326   -7.3808    1.3624 N   0  0  2  0  0  0  0  0  0  0  0  0
    3.7018   -6.2663    0.6057 C   0  0  1  0  0  0  0  0  0  0  0  0
    2.7288   -5.0905    0.2424 C   0  0  0  0  0  0  0  0  0  0  0  0
    1.5312   -5.6290   -0.2695 O   0  0  0  0  0  0  0  0  0  0  0  0
    5.0379   -5.8323    1.2887 C   0  0  1  0  0  0  0  0  0  0  0  0
    5.3124   -4.3265    1.1772 C   0  0  0  0  0  0  0  0  0  0  0  0
    5.3163   -3.7193   -0.1036 C   0  0  0  0  0  0  0  0  0  0  0  0
    5.3522   -2.3243   -0.1965 C   0  0  0  0  0  0  0  0  0  0  0  0
    5.4533   -1.5511    0.9781 C   0  0  0  0  0  0  0  0  0  0  0  0
    5.3142    0.1383    0.9321 Cl  0  0  0  0  0  0  0  0  0  0  0  0
    5.5663   -2.1483    2.2447 C   0  0  0  0  0  0  0  0  0  0  0  0
    5.5228   -3.5281    2.3288 C   0  0  0  0  0  0  0  0  0  0  0  0
    2.0997   -6.9093    2.4410 C   0  0  1  0  0  0  0  0  0  0  0  0
    0.9419   -7.8637    2.5473 C   0  0  0  0  0  0  0  0  0  0  0  0
   -0.2793   -7.5700    1.9022 C   0  0  0  0  0  0  0  0  0  0  0  0
   -1.3776   -8.4213    2.1115 C   0  0  0  0  0  0  0  0  0  0  0  0
   -1.2208   -9.5540    2.9034 C   0  0  0  0  0  0  0  0  0  0  0  0
   -0.0091   -9.8579    3.5408 C   0  0  0  0  0  0  0  0  0  0  0  0
    1.0772   -9.0045    3.3644 C   0  0  0  0  0  0  0  0  0  0  0  0
    4.0216   -7.0079    6.0846 H   0  0  0  0  0  0  0  0  0  0  0  0
    3.4169   -6.4129    7.7173 H   0  0  0  0  0  0  0  0  0  0  0  0
    1.4300   -5.4968    6.7412 H   0  0  0  0  0  0  0  0  0  0  0  0
    0.8053   -6.5148    4.6029 H   0  0  0  0  0  0  0  0  0  0  0  0
    1.5574   -4.9832    4.2895 H   0  0  0  0  0  0  0  0  0  0  0  0
    3.5453   -4.8261    3.2010 H   0  0  0  0  0  0  0  0  0  0  0  0
    4.3388   -5.5618    4.5670 H   0  0  0  0  0  0  0  0  0  0  0  0
    6.0157   -6.0907    3.1949 H   0  0  0  0  0  0  0  0  0  0  0  0
    6.0520   -8.2883    2.3848 H   0  0  0  0  0  0  0  0  0  0  0  0
    4.9428   -8.2916    3.7388 H   0  0  0  0  0  0  0  0  0  0  0  0
    4.4298   -8.9437    0.9078 H   0  0  0  0  0  0  0  0  0  0  0  0
    3.4466   -9.2740    2.2939 H   0  0  0  0  0  0  0  0  0  0  0  0
    3.9975   -6.7208   -0.3353 H   0  0  0  0  0  0  0  0  0  0  0  0
    2.4867   -4.4900    1.1339 H   0  0  0  0  0  0  0  0  0  0  0  0
    3.1230   -4.4431   -0.5528 H   0  0  0  0  0  0  0  0  0  0  0  0
    1.6778   -5.7235   -1.2003 H   0  0  0  0  0  0  0  0  0  0  0  0
    5.8653   -6.3284    0.7628 H   0  0  0  0  0  0  0  0  0  0  0  0
    5.2322   -4.3141   -1.0136 H   0  0  0  0  0  0  0  0  0  0  0  0
    5.2359   -1.8208   -1.1437 H   0  0  0  0  0  0  0  0  0  0  0  0
    5.6171   -1.5339    3.1230 H   0  0  0  0  0  0  0  0  0  0  0  0
    5.5699   -3.9175    3.3406 H   0  0  0  0  0  0  0  0  0  0  0  0
    1.6037   -5.9871    2.1494 H   0  0  0  0  0  0  0  0  0  0  0  0
   -0.4124   -6.6761    1.3103 H   0  0  0  0  0  0  0  0  0  0  0  0
   -2.3648   -8.2324    1.7355 H   0  0  0  0  0  0  0  0  0  0  0  0
   -2.0579  -10.1977    3.0603 H   0  0  0  0  0  0  0  0  0  0  0  0
    0.0795  -10.6972    4.2105 H   0  0  0  0  0  0  0  0  0  0  0  0
    1.9832   -9.1799    3.9231 H   0  0  0  0  0  0  0  0  0  0  0  0
    2.4228   -7.8327    0.6867 H   0  0  0  0  0  0  0  0  0  0  0  0
  1  2  2  0
  1 28  1  0
  1 29  1  0
  2  3  1  0
  2 30  1  0
  3  4  1  0
  3 31  1  0
  3 32  1  0
  4 21  1  0
  4  5  1  0
  5  6  1  0
  5 33  1  0
  5 34  1  0
  6 13  1  0
  6  7  1  0
  6 35  1  1
  7  8  1  0
  7 36  1  0
  7 37  1  0
  8  9  1  0
  8 38  1  0
  8 39  1  0
  9 10  1  0
  9 21  1  0
  9 55  1  6
 10 11  1  0
 10 13  1  0
 10 40  1  6
 11 12  1  0
 11 41  1  0
 11 42  1  0
 12 43  1  0
 13 14  1  0
 13 44  1  6
 14 20  1  0
 14 15  2  0
 15 16  1  0
 15 45  1  0
 16 17  2  0
 16 46  1  0
 17 18  1  0
 17 19  1  0
 19 20  2  0
 19 47  1  0
 20 48  1  0
 21 22  1  0
 21 49  1  6
 22 27  1  0
 22 23  2  0
 23 24  1  0
 23 50  1  0
 24 25  2  0
 24 51  1  0
 25 26  1  0
 25 52  1  0
 26 27  2  0
 26 53  1  0
 27 54  1  0
M  CHG  1   9   1
M  END
>  <i_m_ct_stereo_status>  (62) 
1

>  <s_m_source_file>  (62) 
/var/tmp/pbs.5076255.sched01/tmp4ovtozgc/0905bh7x9.sdf

>  <i_m_source_file_index>  (62) 
24

>  <i_lp_mmshare_version>  (62) 
48012

>  <i_f3d_flags>  (62) 
0

>  <s_epik_input>  (62) 
W2NIXTFbY0hdW2NIXVtjSF1bY0hdYzFbQ0BASF0oTihbQ0gyXVtDQEBIXTIzKVtDSDJdW0NIXT1bQ0gyXSlOKFtDSDJdW0NIMl0yKVtDQEBIXShbQ0gyXVtPSF0pW0NASF0zYzRbY0hdW2NIXWMoQ2wpW2NIXVtjSF00

>  <s_epik_cmdline>  (62) 
J2VwaWtfcHl0aG9uJywgJy1waHQnLCAnMi4wJywgJy1waCcsICc3LjAnLCAnLXRuJywgJzgnLCAnLW1hJywgJzIwMCcsICctaW1hZScsICc8aW5maWxlLm1hZT4nLCAnLW9tYWUnLCAnPG91dGZpbGUubWFlPic=

>  <r_epik_Ionization_Penalty>  (62) 
0.00361911

>  <r_epik_Ionization_Penalty_Charging>  (62) 
0.00361557

>  <r_epik_Ionization_Penalty_Neutral>  (62) 
3.54473e-06

>  <r_epik_State_Penalty>  (62) 
0.0404935

>  <r_epik_Charging_Adjusted_Penalty>  (62) 
0.044109

>  <i_epik_Tot_Q>  (62) 
1

>  <i_epik_Tot_abs_Q>  (62) 
1

>  <s_epik_Chemistry_Notes>  (62) 
This compound contains an acetal/aminal-like group ( X-CH(R)-Y where X, Y are N, S, or O) that may be acid/base labile, releasing an aldehyde.

>  <s_lp_Force_Field>  (62) 
OPLS3e

>  <r_lp_Energy>  (62) 
50.5131

>  <b_lp_Chiralities_Consistent>  (62) 
1

>  <s_lp_Variant>  (62) 
17:0-1

>  <s_i_glide_gridfile>  (62) 
pfpi4k_grid

>  <i_i_glide_lignum>  (62) 
24

>  <i_i_glide_rotatable_bonds>  (62) 
6

>  <r_i_docking_score>  (62) 
-2.57423

>  <r_i_glide_ligand_efficiency>  (62) 
-0.0953418

>  <r_i_glide_ligand_efficiency_sa>  (62) 
-0.286026

>  <r_i_glide_ligand_efficiency_ln>  (62) 
-0.599238

>  <r_i_glide_gscore>  (62) 
-2.57423

>  <r_i_glide_lipo>  (62) 
-0.487984

>  <r_i_glide_hbond>  (62) 
-0.560767

>  <r_i_glide_metal>  (62) 
-0

>  <r_i_glide_rewards>  (62) 
-0.79136

>  <r_i_glide_evdw>  (62) 
-13.1377

>  <r_i_glide_ecoul>  (62) 
-4.83614

>  <r_i_glide_erotb>  (62) 
0.659316

>  <r_i_glide_esite>  (62) 
-0.0111301

>  <r_i_glide_emodel>  (62) 
-18.7009

>  <r_i_glide_energy>  (62) 
-17.9738

>  <r_i_glide_einternal>  (62) 
3.23119

>  <r_i_glide_intrahb_reward>  (62) 
-0

>  <i_i_glide_confnum>  (62) 
2

>  <i_i_glide_posenum>  (62) 
10

>  <r_i_glide_eff_state_penalty>  (62) 
0

>  <ligand_id>  (62) 
17

>  <original_smiles>  (62) 
C=CCN1CC2CCN(C(CO)C2c2ccc(Cl)cc2)C1c1ccccc1

>  <smiles>  (62) 
[H]OC([H])([H])C1([H])C([H])(c2c([H])c([H])c(Cl)c([H])c2[H])C2([H])C([H])([H])N(C([H])([H])C([H])=C([H])[H])C([H])(c3c([H])c([H])c([H])c([H])c3[H])[N+]1([H])C([H])([H])C2([H])[H]

$$$$
17:0:2
     RDKit          3D

 55 58  0  0  1  0  0  0  0  0999 V2000
    5.3009   -1.0051    6.4876 C   0  0  0  0  0  0  0  0  0  0  0  0
    4.2280   -0.1934    6.4507 C   0  0  0  0  0  0  0  0  0  0  0  0
    3.1178   -0.2969    5.4228 C   0  0  0  0  0  0  0  0  0  0  0  0
    2.8584    0.9613    4.6894 N   0  0  0  0  0  0  0  0  0  0  0  0
    2.3061    1.9477    5.6165 C   0  0  0  0  0  0  0  0  0  0  0  0
    2.0309    3.3557    4.9954 C   0  0  1  0  0  0  0  0  0  0  0  0
    2.9493    3.6676    3.7941 C   0  0  0  0  0  0  0  0  0  0  0  0
    2.4793    2.9258    2.5243 C   0  0  0  0  0  0  0  0  0  0  0  0
    1.4408    1.8993    2.8502 N   0  0  2  0  0  0  0  0  0  0  0  0
    0.2006    2.5088    3.4705 C   0  0  1  0  0  0  0  0  0  0  0  0
   -0.8707    1.4415    3.8619 C   0  0  0  0  0  0  0  0  0  0  0  0
   -0.9487    0.5656    2.7636 O   0  0  0  0  0  0  0  0  0  0  0  0
    0.5498    3.5425    4.5841 C   0  0  1  0  0  0  0  0  0  0  0  0
   -0.4394    3.5187    5.7621 C   0  0  0  0  0  0  0  0  0  0  0  0
   -1.8266    3.6037    5.5246 C   0  0  0  0  0  0  0  0  0  0  0  0
   -2.7448    3.3414    6.5479 C   0  0  0  0  0  0  0  0  0  0  0  0
   -2.2963    3.1817    7.8651 C   0  0  0  0  0  0  0  0  0  0  0  0
   -3.4167    2.9722    9.1626 Cl  0  0  0  0  0  0  0  0  0  0  0  0
   -0.9226    3.1821    8.1390 C   0  0  0  0  0  0  0  0  0  0  0  0
   -0.0034    3.3605    7.1016 C   0  0  0  0  0  0  0  0  0  0  0  0
    1.9517    0.6607    3.5655 C   0  0  1  0  0  0  0  0  0  0  0  0
    2.5918   -0.2927    2.5789 C   0  0  0  0  0  0  0  0  0  0  0  0
    3.9008   -0.0299    2.1432 C   0  0  0  0  0  0  0  0  0  0  0  0
    4.5537   -0.9062    1.2727 C   0  0  0  0  0  0  0  0  0  0  0  0
    3.9121   -2.0962    0.8763 C   0  0  0  0  0  0  0  0  0  0  0  0
    2.6219   -2.3950    1.3420 C   0  0  0  0  0  0  0  0  0  0  0  0
    1.9424   -1.4820    2.1824 C   0  0  0  0  0  0  0  0  0  0  0  0
    5.4341   -1.7914    5.7646 H   0  0  0  0  0  0  0  0  0  0  0  0
    6.0532   -0.8719    7.2475 H   0  0  0  0  0  0  0  0  0  0  0  0
    4.1501    0.5727    7.2025 H   0  0  0  0  0  0  0  0  0  0  0  0
    3.4013   -1.1010    4.7475 H   0  0  0  0  0  0  0  0  0  0  0  0
    2.2141   -0.6474    5.9256 H   0  0  0  0  0  0  0  0  0  0  0  0
    1.4051    1.5256    6.0658 H   0  0  0  0  0  0  0  0  0  0  0  0
    3.0123    2.1158    6.4264 H   0  0  0  0  0  0  0  0  0  0  0  0
    2.2660    4.1149    5.7511 H   0  0  0  0  0  0  0  0  0  0  0  0
    2.9685    4.7419    3.6101 H   0  0  0  0  0  0  0  0  0  0  0  0
    3.9689    3.3851    4.0595 H   0  0  0  0  0  0  0  0  0  0  0  0
    2.0869    3.6613    1.8096 H   0  0  0  0  0  0  0  0  0  0  0  0
    3.3168    2.4413    2.0000 H   0  0  0  0  0  0  0  0  0  0  0  0
   -0.2706    3.0580    2.6552 H   0  0  0  0  0  0  0  0  0  0  0  0
   -0.5278    0.8992    4.7656 H   0  0  0  0  0  0  0  0  0  0  0  0
   -1.8512    1.8551    4.0489 H   0  0  0  0  0  0  0  0  0  0  0  0
   -1.3958    0.9883    2.0431 H   0  0  0  0  0  0  0  0  0  0  0  0
    0.4782    4.5334    4.1340 H   0  0  0  0  0  0  0  0  0  0  0  0
   -2.1862    3.7759    4.4921 H   0  0  0  0  0  0  0  0  0  0  0  0
   -3.7840    3.3462    6.3250 H   0  0  0  0  0  0  0  0  0  0  0  0
   -0.5549    2.9866    9.1437 H   0  0  0  0  0  0  0  0  0  0  0  0
    1.0325    3.3011    7.3671 H   0  0  0  0  0  0  0  0  0  0  0  0
    1.1250    0.0842    3.9728 H   0  0  0  0  0  0  0  0  0  0  0  0
    4.4065    0.8355    2.5347 H   0  0  0  0  0  0  0  0  0  0  0  0
    5.5570   -0.6670    0.9515 H   0  0  0  0  0  0  0  0  0  0  0  0
    4.4267   -2.7858    0.2266 H   0  0  0  0  0  0  0  0  0  0  0  0
    2.1512   -3.3313    1.0781 H   0  0  0  0  0  0  0  0  0  0  0  0
    0.9639   -1.7274    2.5658 H   0  0  0  0  0  0  0  0  0  0  0  0
    1.1245    1.5534    1.9432 H   0  0  0  0  0  0  0  0  0  0  0  0
  1  2  2  0
  1 28  1  0
  1 29  1  0
  2  3  1  0
  2 30  1  0
  3  4  1  0
  3 31  1  0
  3 32  1  0
  4 21  1  0
  4  5  1  0
  5  6  1  0
  5 33  1  0
  5 34  1  0
  6 13  1  0
  6  7  1  0
  6 35  1  1
  7  8  1  0
  7 36  1  0
  7 37  1  0
  8  9  1  0
  8 38  1  0
  8 39  1  0
  9 10  1  0
  9 21  1  0
  9 55  1  6
 10 11  1  0
 10 13  1  0
 10 40  1  6
 11 12  1  0
 11 41  1  0
 11 42  1  0
 12 43  1  0
 13 14  1  0
 13 44  1  6
 14 20  1  0
 14 15  2  0
 15 16  1  0
 15 45  1  0
 16 17  2  0
 16 46  1  0
 17 18  1  0
 17 19  1  0
 19 20  2  0
 19 47  1  0
 20 48  1  0
 21 22  1  0
 21 49  1  1
 22 27  1  0
 22 23  2  0
 23 24  1  0
 23 50  1  0
 24 25  2  0
 24 51  1  0
 25 26  1  0
 25 52  1  0
 26 27  2  0
 26 53  1  0
 27 54  1  0
M  CHG  1   9   1
M  END
>  <i_m_ct_stereo_status>  (63) 
1

>  <s_m_source_file>  (63) 
/var/tmp/pbs.5076255.sched01/tmp4ovtozgc/0905bh7x9.sdf

>  <i_m_source_file_index>  (63) 
24

>  <i_lp_mmshare_version>  (63) 
48012

>  <i_f3d_flags>  (63) 
0

>  <s_epik_input>  (63) 
W2NIXTFbY0hdW2NIXVtjSF1bY0hdYzFbQ0BASF0oTihbQ0gyXVtDQEBIXTIzKVtDSDJdW0NIXT1bQ0gyXSlOKFtDSDJdW0NIMl0yKVtDQEBIXShbQ0gyXVtPSF0pW0NASF0zYzRbY0hdW2NIXWMoQ2wpW2NIXVtjSF00

>  <s_epik_cmdline>  (63) 
J2VwaWtfcHl0aG9uJywgJy1waHQnLCAnMi4wJywgJy1waCcsICc3LjAnLCAnLXRuJywgJzgnLCAnLW1hJywgJzIwMCcsICctaW1hZScsICc8aW5maWxlLm1hZT4nLCAnLW9tYWUnLCAnPG91dGZpbGUubWFlPic=

>  <r_epik_Ionization_Penalty>  (63) 
0.00361911

>  <r_epik_Ionization_Penalty_Charging>  (63) 
0.00361557

>  <r_epik_Ionization_Penalty_Neutral>  (63) 
3.54473e-06

>  <r_epik_State_Penalty>  (63) 
0.0404935

>  <r_epik_Charging_Adjusted_Penalty>  (63) 
0.044109

>  <i_epik_Tot_Q>  (63) 
1

>  <i_epik_Tot_abs_Q>  (63) 
1

>  <s_epik_Chemistry_Notes>  (63) 
This compound contains an acetal/aminal-like group ( X-CH(R)-Y where X, Y are N, S, or O) that may be acid/base labile, releasing an aldehyde.

>  <s_lp_Force_Field>  (63) 
OPLS3e

>  <r_lp_Energy>  (63) 
50.5131

>  <b_lp_Chiralities_Consistent>  (63) 
1

>  <s_lp_Variant>  (63) 
17:0-1

>  <s_i_glide_gridfile>  (63) 
pfpi4k_grid

>  <i_i_glide_lignum>  (63) 
24

>  <i_i_glide_rotatable_bonds>  (63) 
6

>  <r_i_docking_score>  (63) 
-1.81244

>  <r_i_glide_ligand_efficiency>  (63) 
-0.0671275

>  <r_i_glide_ligand_efficiency_sa>  (63) 
-0.201382

>  <r_i_glide_ligand_efficiency_ln>  (63) 
-0.421907

>  <r_i_glide_gscore>  (63) 
-1.81244

>  <r_i_glide_lipo>  (63) 
-0.308553

>  <r_i_glide_hbond>  (63) 
0

>  <r_i_glide_metal>  (63) 
-0

>  <r_i_glide_rewards>  (63) 
-0.79136

>  <r_i_glide_evdw>  (63) 
-18.549

>  <r_i_glide_ecoul>  (63) 
-2.70635

>  <r_i_glide_erotb>  (63) 
0.659316

>  <r_i_glide_esite>  (63) 
-0.0384418

>  <r_i_glide_emodel>  (63) 
-20.9151

>  <r_i_glide_energy>  (63) 
-21.2554

>  <r_i_glide_einternal>  (63) 
2.86049

>  <r_i_glide_intrahb_reward>  (63) 
-0

>  <i_i_glide_confnum>  (63) 
4

>  <i_i_glide_posenum>  (63) 
1

>  <r_i_glide_eff_state_penalty>  (63) 
0

>  <ligand_id>  (63) 
17

>  <original_smiles>  (63) 
C=CCN1CC2CCN(C(CO)C2c2ccc(Cl)cc2)C1c1ccccc1

>  <smiles>  (63) 
[H]OC([H])([H])C1([H])C([H])(c2c([H])c([H])c(Cl)c([H])c2[H])C2([H])C([H])([H])N(C([H])([H])C([H])=C([H])[H])C([H])(c3c([H])c([H])c([H])c([H])c3[H])[N+]1([H])C([H])([H])C2([H])[H]

$$$$
18:0:0
     RDKit          3D

 45 48  0  0  1  0  0  0  0  0999 V2000
   -0.7722    3.6837    8.9346 C   0  0  0  0  0  0  0  0  0  0  0  0
   -1.5748    2.7673    7.9926 C   0  0  0  0  0  0  0  0  0  0  0  0
   -3.0847    2.9413    8.1957 C   0  0  0  0  0  0  0  0  0  0  0  0
   -1.2796    3.0803    6.6492 O   0  0  0  0  0  0  0  0  0  0  0  0
   -0.3227    2.1047    6.3089 C   0  0  2  0  0  0  0  0  0  0  0  0
   -0.0289    1.6285    4.8749 C   0  0  1  0  0  0  0  0  0  0  0  0
    0.4661    2.4585    3.8577 O   0  0  0  0  0  0  0  0  0  0  0  0
    1.0628    1.5319    2.9799 C   0  0  0  0  0  0  0  0  0  0  0  0
    0.1201    1.2317    1.8126 C   0  0  0  0  0  0  0  0  0  0  0  0
    2.3873    2.1286    2.4956 C   0  0  0  0  0  0  0  0  0  0  0  0
    1.3110    0.3260    3.6525 O   0  0  0  0  0  0  0  0  0  0  0  0
    1.2039    0.7186    4.9944 C   0  0  2  0  0  0  0  0  0  0  0  0
    1.0887   -0.2782    6.1814 C   0  0  2  0  0  0  0  0  0  0  0  0
    1.4760   -1.6255    6.0631 O   0  0  0  0  0  0  0  0  0  0  0  0
    0.8250   -2.2604    7.1333 C   0  0  0  0  0  0  0  0  0  0  0  0
    0.1874   -3.5521    6.5972 C   0  0  0  0  0  0  0  0  0  0  0  0
    1.8361   -2.5360    8.2564 C   0  0  0  0  0  0  0  0  0  0  0  0
   -0.1778   -1.4294    7.6503 O   0  0  0  0  0  0  0  0  0  0  0  0
   -0.3370   -0.4411    6.6577 C   0  0  1  0  0  0  0  0  0  0  0  0
   -1.0364    0.9171    6.9628 C   0  0  1  0  0  0  0  0  0  0  0  0
   -1.2199    1.4305    8.2589 O   0  0  0  0  0  0  0  0  0  0  0  0
    0.3012    3.5439    8.8042 H   0  0  0  0  0  0  0  0  0  0  0  0
   -1.0254    3.4558    9.9718 H   0  0  0  0  0  0  0  0  0  0  0  0
   -1.0181    4.7289    8.7423 H   0  0  0  0  0  0  0  0  0  0  0  0
   -3.6337    2.3138    7.4929 H   0  0  0  0  0  0  0  0  0  0  0  0
   -3.3625    3.9825    8.0289 H   0  0  0  0  0  0  0  0  0  0  0  0
   -3.3570    2.6589    9.2148 H   0  0  0  0  0  0  0  0  0  0  0  0
    0.6143    2.3503    6.8194 H   0  0  0  0  0  0  0  0  0  0  0  0
   -0.8958    1.0934    4.4736 H   0  0  0  0  0  0  0  0  0  0  0  0
   -0.8109    0.7799    2.1537 H   0  0  0  0  0  0  0  0  0  0  0  0
    0.6127    0.5456    1.1200 H   0  0  0  0  0  0  0  0  0  0  0  0
   -0.1167    2.1427    1.2737 H   0  0  0  0  0  0  0  0  0  0  0  0
    3.0377    2.3614    3.3412 H   0  0  0  0  0  0  0  0  0  0  0  0
    2.1901    3.0503    1.9468 H   0  0  0  0  0  0  0  0  0  0  0  0
    2.8969    1.4221    1.8396 H   0  0  0  0  0  0  0  0  0  0  0  0
    2.0876    1.3257    5.2142 H   0  0  0  0  0  0  0  0  0  0  0  0
    1.6571    0.1480    7.0116 H   0  0  0  0  0  0  0  0  0  0  0  0
   -0.5092   -3.3315    5.7872 H   0  0  0  0  0  0  0  0  0  0  0  0
   -0.3412   -4.0717    7.3984 H   0  0  0  0  0  0  0  0  0  0  0  0
    0.9696   -4.2070    6.2116 H   0  0  0  0  0  0  0  0  0  0  0  0
    2.2557   -1.6051    8.6365 H   0  0  0  0  0  0  0  0  0  0  0  0
    2.6467   -3.1677    7.8926 H   0  0  0  0  0  0  0  0  0  0  0  0
    1.3359   -3.0481    9.0793 H   0  0  0  0  0  0  0  0  0  0  0  0
   -0.8960   -0.9075    5.8410 H   0  0  0  0  0  0  0  0  0  0  0  0
   -2.0389    0.8170    6.5351 H   0  0  0  0  0  0  0  0  0  0  0  0
  1  2  1  0
  1 22  1  0
  1 23  1  0
  1 24  1  0
  2 21  1  0
  2  3  1  0
  2  4  1  0
  3 25  1  0
  3 26  1  0
  3 27  1  0
  4  5  1  0
  5 20  1  0
  5  6  1  0
  5 28  1  1
  6 12  1  0
  6  7  1  0
  6 29  1  6
  7  8  1  0
  8  9  1  0
  8 10  1  0
  8 11  1  0
  9 30  1  0
  9 31  1  0
  9 32  1  0
 10 33  1  0
 10 34  1  0
 10 35  1  0
 11 12  1  0
 12 13  1  0
 12 36  1  1
 13 19  1  0
 13 14  1  0
 13 37  1  1
 14 15  1  0
 15 16  1  0
 15 17  1  0
 15 18  1  0
 16 38  1  0
 16 39  1  0
 16 40  1  0
 17 41  1  0
 17 42  1  0
 17 43  1  0
 18 19  1  0
 19 20  1  0
 19 44  1  6
 20 21  1  0
 20 45  1  6
M  END
>  <i_m_ct_stereo_status>  (64) 
1

>  <s_m_source_file>  (64) 
/var/tmp/pbs.5076255.sched01/tmp4ovtozgc/0905bh7x9.sdf

>  <i_m_source_file_index>  (64) 
26

>  <i_lp_mmshare_version>  (64) 
48012

>  <i_f3d_flags>  (64) 
0

>  <s_epik_input>  (64) 
W0NIM11DKE8xKShbQ0gzXSlPW0NAQEhdMltDQEhdKE9DKE8zKShbQ0gzXSlbQ0gzXSlbQ0BASF0zW0NASF0oW0NASF00W0NAQEhdMTIpT0MoTzQpKFtDSDNdKVtDSDNd

>  <s_epik_cmdline>  (64) 
J2VwaWtfcHl0aG9uJywgJy1waHQnLCAnMi4wJywgJy1waCcsICc3LjAnLCAnLXRuJywgJzgnLCAnLW1hJywgJzIwMCcsICctaW1hZScsICc8aW5maWxlLm1hZT4nLCAnLW9tYWUnLCAnPG91dGZpbGUubWFlPic=

>  <r_lp_tautomer_probability>  (64) 
1

>  <r_epik_Ionization_Penalty>  (64) 
5.94643e-14

>  <r_epik_Ionization_Penalty_Charging>  (64) 
0

>  <r_epik_Ionization_Penalty_Neutral>  (64) 
5.94643e-14

>  <r_epik_State_Penalty>  (64) 
-0

>  <r_epik_Charging_Adjusted_Penalty>  (64) 
0

>  <i_epik_Tot_Q>  (64) 
0

>  <i_epik_Tot_abs_Q>  (64) 
0

>  <s_lp_Force_Field>  (64) 
OPLS3e

>  <r_lp_Energy>  (64) 
25.7638

>  <b_lp_Chiralities_Consistent>  (64) 
1

>  <s_lp_Variant>  (64) 
18:0-1

>  <s_i_glide_gridfile>  (64) 
pfpi4k_grid

>  <i_i_glide_lignum>  (64) 
26

>  <i_i_glide_rotatable_bonds>  (64) 
0

>  <r_i_docking_score>  (64) 
-2.58409

>  <r_i_glide_ligand_efficiency>  (64) 
-0.123052

>  <r_i_glide_ligand_efficiency_sa>  (64) 
-0.33949

>  <r_i_glide_ligand_efficiency_ln>  (64) 
-0.63891

>  <r_i_glide_gscore>  (64) 
-2.58409

>  <r_i_glide_lipo>  (64) 
-0.0918851

>  <r_i_glide_hbond>  (64) 
-0.0437194

>  <r_i_glide_metal>  (64) 
-0

>  <r_i_glide_rewards>  (64) 
-1.36127

>  <r_i_glide_evdw>  (64) 
-16.2915

>  <r_i_glide_ecoul>  (64) 
-1.47585

>  <r_i_glide_erotb>  (64) 
0

>  <r_i_glide_esite>  (64) 
-0.0512602

>  <r_i_glide_emodel>  (64) 
-20.8001

>  <r_i_glide_energy>  (64) 
-17.7674

>  <r_i_glide_einternal>  (64) 
0

>  <r_i_glide_intrahb_reward>  (64) 
-0

>  <i_i_glide_confnum>  (64) 
2

>  <i_i_glide_posenum>  (64) 
25

>  <r_i_glide_eff_state_penalty>  (64) 
0

>  <ligand_id>  (64) 
18

>  <original_smiles>  (64) 
CC1(C)OC2C3OC(C)(C)OC3C3OC(C)(C)OC3C2O1

>  <smiles>  (64) 
[H]C([H])([H])C1(C([H])([H])[H])OC2([H])C3([H])OC(C([H])([H])[H])(C([H])([H])[H])OC3([H])C3([H])OC(C([H])([H])[H])(C([H])([H])[H])OC3([H])C2([H])O1

$$$$
18:0:1
     RDKit          3D

 45 48  0  0  1  0  0  0  0  0999 V2000
   -1.5686   -4.0548    7.1509 C   0  0  0  0  0  0  0  0  0  0  0  0
   -0.1874   -3.3781    7.0823 C   0  0  0  0  0  0  0  0  0  0  0  0
    0.9326   -4.3521    7.4720 C   0  0  0  0  0  0  0  0  0  0  0  0
    0.0573   -2.9225    5.7695 O   0  0  0  0  0  0  0  0  0  0  0  0
   -0.2344   -1.5473    5.8574 C   0  0  2  0  0  0  0  0  0  0  0  0
    0.3233   -0.4659    4.9149 C   0  0  1  0  0  0  0  0  0  0  0  0
    0.0979   -0.4304    3.5309 O   0  0  0  0  0  0  0  0  0  0  0  0
    0.2988    0.9285    3.2200 C   0  0  0  0  0  0  0  0  0  0  0  0
    1.7087    1.1359    2.6464 C   0  0  0  0  0  0  0  0  0  0  0  0
   -0.7860    1.3550    2.2288 C   0  0  0  0  0  0  0  0  0  0  0  0
    0.1844    1.7014    4.3946 O   0  0  0  0  0  0  0  0  0  0  0  0
   -0.4603    0.8097    5.2651 C   0  0  2  0  0  0  0  0  0  0  0  0
   -0.5648    1.0272    6.7977 C   0  0  2  0  0  0  0  0  0  0  0  0
   -0.4150    2.3000    7.3784 O   0  0  0  0  0  0  0  0  0  0  0  0
   -0.1504    2.0154    8.7288 C   0  0  0  0  0  0  0  0  0  0  0  0
    1.0477    2.8714    9.1677 C   0  0  0  0  0  0  0  0  0  0  0  0
   -1.3997    2.3179    9.5661 C   0  0  0  0  0  0  0  0  0  0  0  0
    0.1549    0.6498    8.8858 O   0  0  0  0  0  0  0  0  0  0  0  0
    0.4592    0.2258    7.5795 C   0  0  1  0  0  0  0  0  0  0  0  0
    0.4574   -1.2865    7.2050 C   0  0  1  0  0  0  0  0  0  0  0  0
   -0.1844   -2.2789    7.9660 O   0  0  0  0  0  0  0  0  0  0  0  0
   -2.3618   -3.3654    6.8544 H   0  0  0  0  0  0  0  0  0  0  0  0
   -1.7604   -4.3923    8.1708 H   0  0  0  0  0  0  0  0  0  0  0  0
   -1.5965   -4.9192    6.4862 H   0  0  0  0  0  0  0  0  0  0  0  0
    1.9094   -3.8737    7.3918 H   0  0  0  0  0  0  0  0  0  0  0  0
    0.9096   -5.2113    6.8018 H   0  0  0  0  0  0  0  0  0  0  0  0
    0.7847   -4.6936    8.4960 H   0  0  0  0  0  0  0  0  0  0  0  0
   -1.3221   -1.4494    5.9354 H   0  0  0  0  0  0  0  0  0  0  0  0
    1.3992   -0.3366    5.0797 H   0  0  0  0  0  0  0  0  0  0  0  0
    2.4744    0.8575    3.3718 H   0  0  0  0  0  0  0  0  0  0  0  0
    1.8434    2.1859    2.3883 H   0  0  0  0  0  0  0  0  0  0  0  0
    1.8337    0.5334    1.7443 H   0  0  0  0  0  0  0  0  0  0  0  0
   -1.7838    1.1727    2.6330 H   0  0  0  0  0  0  0  0  0  0  0  0
   -0.6684    0.7960    1.3006 H   0  0  0  0  0  0  0  0  0  0  0  0
   -0.6796    2.4180    2.0181 H   0  0  0  0  0  0  0  0  0  0  0  0
   -1.4930    0.7159    4.9135 H   0  0  0  0  0  0  0  0  0  0  0  0
   -1.5499    0.6637    7.0961 H   0  0  0  0  0  0  0  0  0  0  0  0
    1.9228    2.6707    8.5457 H   0  0  0  0  0  0  0  0  0  0  0  0
    1.2918    2.6722   10.2111 H   0  0  0  0  0  0  0  0  0  0  0  0
    0.7858    3.9243    9.0626 H   0  0  0  0  0  0  0  0  0  0  0  0
   -2.2382    1.7087    9.2314 H   0  0  0  0  0  0  0  0  0  0  0  0
   -1.6746    3.3681    9.4680 H   0  0  0  0  0  0  0  0  0  0  0  0
   -1.1976    2.0953   10.6149 H   0  0  0  0  0  0  0  0  0  0  0  0
    1.4445    0.6213    7.3216 H   0  0  0  0  0  0  0  0  0  0  0  0
    1.5139   -1.5722    7.1365 H   0  0  0  0  0  0  0  0  0  0  0  0
  1  2  1  0
  1 22  1  0
  1 23  1  0
  1 24  1  0
  2 21  1  0
  2  3  1  0
  2  4  1  0
  3 25  1  0
  3 26  1  0
  3 27  1  0
  4  5  1  0
  5 20  1  0
  5  6  1  0
  5 28  1  1
  6 12  1  0
  6  7  1  0
  6 29  1  6
  7  8  1  0
  8  9  1  0
  8 10  1  0
  8 11  1  0
  9 30  1  0
  9 31  1  0
  9 32  1  0
 10 33  1  0
 10 34  1  0
 10 35  1  0
 11 12  1  0
 12 13  1  0
 12 36  1  6
 13 19  1  0
 13 14  1  0
 13 37  1  1
 14 15  1  0
 15 16  1  0
 15 17  1  0
 15 18  1  0
 16 38  1  0
 16 39  1  0
 16 40  1  0
 17 41  1  0
 17 42  1  0
 17 43  1  0
 18 19  1  0
 19 20  1  0
 19 44  1  6
 20 21  1  0
 20 45  1  6
M  END
>  <i_m_ct_stereo_status>  (65) 
1

>  <s_m_source_file>  (65) 
/var/tmp/pbs.5076255.sched01/tmp4ovtozgc/0905bh7x9.sdf

>  <i_m_source_file_index>  (65) 
26

>  <i_lp_mmshare_version>  (65) 
48012

>  <i_f3d_flags>  (65) 
0

>  <s_epik_input>  (65) 
W0NIM11DKE8xKShbQ0gzXSlPW0NAQEhdMltDQEhdKE9DKE8zKShbQ0gzXSlbQ0gzXSlbQ0BASF0zW0NASF0oW0NASF00W0NAQEhdMTIpT0MoTzQpKFtDSDNdKVtDSDNd

>  <s_epik_cmdline>  (65) 
J2VwaWtfcHl0aG9uJywgJy1waHQnLCAnMi4wJywgJy1waCcsICc3LjAnLCAnLXRuJywgJzgnLCAnLW1hJywgJzIwMCcsICctaW1hZScsICc8aW5maWxlLm1hZT4nLCAnLW9tYWUnLCAnPG91dGZpbGUubWFlPic=

>  <r_lp_tautomer_probability>  (65) 
1

>  <r_epik_Ionization_Penalty>  (65) 
5.94643e-14

>  <r_epik_Ionization_Penalty_Charging>  (65) 
0

>  <r_epik_Ionization_Penalty_Neutral>  (65) 
5.94643e-14

>  <r_epik_State_Penalty>  (65) 
-0

>  <r_epik_Charging_Adjusted_Penalty>  (65) 
0

>  <i_epik_Tot_Q>  (65) 
0

>  <i_epik_Tot_abs_Q>  (65) 
0

>  <s_lp_Force_Field>  (65) 
OPLS3e

>  <r_lp_Energy>  (65) 
25.7638

>  <b_lp_Chiralities_Consistent>  (65) 
1

>  <s_lp_Variant>  (65) 
18:0-1

>  <s_i_glide_gridfile>  (65) 
pfpi4k_grid

>  <i_i_glide_lignum>  (65) 
26

>  <i_i_glide_rotatable_bonds>  (65) 
0

>  <r_i_docking_score>  (65) 
-2.40498

>  <r_i_glide_ligand_efficiency>  (65) 
-0.114523

>  <r_i_glide_ligand_efficiency_sa>  (65) 
-0.31596

>  <r_i_glide_ligand_efficiency_ln>  (65) 
-0.594627

>  <r_i_glide_gscore>  (65) 
-2.40498

>  <r_i_glide_lipo>  (65) 
0

>  <r_i_glide_hbond>  (65) 
-0.110805

>  <r_i_glide_metal>  (65) 
-0

>  <r_i_glide_rewards>  (65) 
-1.36127

>  <r_i_glide_evdw>  (65) 
-17.0979

>  <r_i_glide_ecoul>  (65) 
-0.0796929

>  <r_i_glide_erotb>  (65) 
0

>  <r_i_glide_esite>  (65) 
-0.0660656

>  <r_i_glide_emodel>  (65) 
-19.9965

>  <r_i_glide_energy>  (65) 
-17.1775

>  <r_i_glide_einternal>  (65) 
0

>  <r_i_glide_intrahb_reward>  (65) 
-0

>  <i_i_glide_confnum>  (65) 
1

>  <i_i_glide_posenum>  (65) 
1

>  <r_i_glide_eff_state_penalty>  (65) 
0

>  <ligand_id>  (65) 
18

>  <original_smiles>  (65) 
CC1(C)OC2C3OC(C)(C)OC3C3OC(C)(C)OC3C2O1

>  <smiles>  (65) 
[H]C([H])([H])C1(C([H])([H])[H])OC2([H])C3([H])OC(C([H])([H])[H])(C([H])([H])[H])OC3([H])C3([H])OC(C([H])([H])[H])(C([H])([H])[H])OC3([H])C2([H])O1

$$$$
18:0:2
     RDKit          3D

 45 48  0  0  1  0  0  0  0  0999 V2000
   -1.1011   -3.8215    6.9633 C   0  0  0  0  0  0  0  0  0  0  0  0
    0.1858   -3.0056    6.7620 C   0  0  0  0  0  0  0  0  0  0  0  0
    1.4210   -3.9183    6.7397 C   0  0  0  0  0  0  0  0  0  0  0  0
    0.1210   -2.3117    5.5368 O   0  0  0  0  0  0  0  0  0  0  0  0
   -0.2127   -1.0061    5.9446 C   0  0  2  0  0  0  0  0  0  0  0  0
    0.0634    0.2652    5.1247 C   0  0  1  0  0  0  0  0  0  0  0  0
   -0.4703    0.5169    3.8505 O   0  0  0  0  0  0  0  0  0  0  0  0
   -0.4081    1.9211    3.7652 C   0  0  0  0  0  0  0  0  0  0  0  0
    0.8431    2.3384    2.9750 C   0  0  0  0  0  0  0  0  0  0  0  0
   -1.6944    2.4180    3.1027 C   0  0  0  0  0  0  0  0  0  0  0  0
   -0.3136    2.4678    5.0594 O   0  0  0  0  0  0  0  0  0  0  0  0
   -0.6929    1.3823    5.8627 C   0  0  2  0  0  0  0  0  0  0  0  0
   -0.4787    1.3233    7.3977 C   0  0  2  0  0  0  0  0  0  0  0  0
   -0.2725    2.4838    8.1632 O   0  0  0  0  0  0  0  0  0  0  0  0
    0.2968    1.9992    9.3523 C   0  0  0  0  0  0  0  0  0  0  0  0
    1.5062    2.8766    9.6959 C   0  0  0  0  0  0  0  0  0  0  0  0
   -0.7569    2.0262   10.4681 C   0  0  0  0  0  0  0  0  0  0  0  0
    0.7122    0.6660    9.1844 O   0  0  0  0  0  0  0  0  0  0  0  0
    0.7319    0.4967    7.7898 C   0  0  1  0  0  0  0  0  0  0  0  0
    0.7280   -0.9192    7.1530 C   0  0  1  0  0  0  0  0  0  0  0  0
    0.2951   -2.0783    7.8197 O   0  0  0  0  0  0  0  0  0  0  0  0
   -1.9714   -3.1702    6.9634 H   0  0  0  0  0  0  0  0  0  0  0  0
   -1.0513   -4.3477    7.9168 H   0  0  0  0  0  0  0  0  0  0  0  0
   -1.2076   -4.5523    6.1621 H   0  0  0  0  0  0  0  0  0  0  0  0
    2.3325   -3.3436    6.5584 H   0  0  0  0  0  0  0  0  0  0  0  0
    1.3114   -4.6503    5.9377 H   0  0  0  0  0  0  0  0  0  0  0  0
    1.5163   -4.4450    7.6913 H   0  0  0  0  0  0  0  0  0  0  0  0
   -1.2675   -1.0241    6.2454 H   0  0  0  0  0  0  0  0  0  0  0  0
    1.1393    0.4602    5.0823 H   0  0  0  0  0  0  0  0  0  0  0  0
    1.7565    2.0072    3.4698 H   0  0  0  0  0  0  0  0  0  0  0  0
    0.8722    3.4253    2.8946 H   0  0  0  0  0  0  0  0  0  0  0  0
    0.8088    1.9170    1.9677 H   0  0  0  0  0  0  0  0  0  0  0  0
   -2.5675    2.0997    3.6717 H   0  0  0  0  0  0  0  0  0  0  0  0
   -1.7645    2.0099    2.0935 H   0  0  0  0  0  0  0  0  0  0  0  0
   -1.6893    3.5057    3.0475 H   0  0  0  0  0  0  0  0  0  0  0  0
   -1.7733    1.2522    5.7186 H   0  0  0  0  0  0  0  0  0  0  0  0
   -1.3597    0.8303    7.8179 H   0  0  0  0  0  0  0  0  0  0  0  0
    2.2337    2.8652    8.8856 H   0  0  0  0  0  0  0  0  0  0  0  0
    1.9794    2.5206   10.6109 H   0  0  0  0  0  0  0  0  0  0  0  0
    1.1680    3.9010    9.8449 H   0  0  0  0  0  0  0  0  0  0  0  0
   -1.5927    1.3744   10.2179 H   0  0  0  0  0  0  0  0  0  0  0  0
   -1.1317    3.0413   10.6194 H   0  0  0  0  0  0  0  0  0  0  0  0
   -0.3164    1.6689   11.4008 H   0  0  0  0  0  0  0  0  0  0  0  0
    1.6182    1.0144    7.4143 H   0  0  0  0  0  0  0  0  0  0  0  0
    1.7599   -1.1003    6.8374 H   0  0  0  0  0  0  0  0  0  0  0  0
  1  2  1  0
  1 22  1  0
  1 23  1  0
  1 24  1  0
  2 21  1  0
  2  3  1  0
  2  4  1  0
  3 25  1  0
  3 26  1  0
  3 27  1  0
  4  5  1  0
  5 20  1  0
  5  6  1  0
  5 28  1  1
  6 12  1  0
  6  7  1  0
  6 29  1  6
  7  8  1  0
  8  9  1  0
  8 10  1  0
  8 11  1  0
  9 30  1  0
  9 31  1  0
  9 32  1  0
 10 33  1  0
 10 34  1  0
 10 35  1  0
 11 12  1  0
 12 13  1  0
 12 36  1  1
 13 19  1  0
 13 14  1  0
 13 37  1  1
 14 15  1  0
 15 16  1  0
 15 17  1  0
 15 18  1  0
 16 38  1  0
 16 39  1  0
 16 40  1  0
 17 41  1  0
 17 42  1  0
 17 43  1  0
 18 19  1  0
 19 20  1  0
 19 44  1  6
 20 21  1  0
 20 45  1  6
M  END
>  <i_m_ct_stereo_status>  (66) 
1

>  <s_m_source_file>  (66) 
/var/tmp/pbs.5076255.sched01/tmp4ovtozgc/0905bh7x9.sdf

>  <i_m_source_file_index>  (66) 
26

>  <i_lp_mmshare_version>  (66) 
48012

>  <i_f3d_flags>  (66) 
0

>  <s_epik_input>  (66) 
W0NIM11DKE8xKShbQ0gzXSlPW0NAQEhdMltDQEhdKE9DKE8zKShbQ0gzXSlbQ0gzXSlbQ0BASF0zW0NASF0oW0NASF00W0NAQEhdMTIpT0MoTzQpKFtDSDNdKVtDSDNd

>  <s_epik_cmdline>  (66) 
J2VwaWtfcHl0aG9uJywgJy1waHQnLCAnMi4wJywgJy1waCcsICc3LjAnLCAnLXRuJywgJzgnLCAnLW1hJywgJzIwMCcsICctaW1hZScsICc8aW5maWxlLm1hZT4nLCAnLW9tYWUnLCAnPG91dGZpbGUubWFlPic=

>  <r_lp_tautomer_probability>  (66) 
1

>  <r_epik_Ionization_Penalty>  (66) 
5.94643e-14

>  <r_epik_Ionization_Penalty_Charging>  (66) 
0

>  <r_epik_Ionization_Penalty_Neutral>  (66) 
5.94643e-14

>  <r_epik_State_Penalty>  (66) 
-0

>  <r_epik_Charging_Adjusted_Penalty>  (66) 
0

>  <i_epik_Tot_Q>  (66) 
0

>  <i_epik_Tot_abs_Q>  (66) 
0

>  <s_lp_Force_Field>  (66) 
OPLS3e

>  <r_lp_Energy>  (66) 
25.7638

>  <b_lp_Chiralities_Consistent>  (66) 
1

>  <s_lp_Variant>  (66) 
18:0-1

>  <s_i_glide_gridfile>  (66) 
pfpi4k_grid

>  <i_i_glide_lignum>  (66) 
26

>  <i_i_glide_rotatable_bonds>  (66) 
0

>  <r_i_docking_score>  (66) 
-2.09054

>  <r_i_glide_ligand_efficiency>  (66) 
-0.0995493

>  <r_i_glide_ligand_efficiency_sa>  (66) 
-0.274649

>  <r_i_glide_ligand_efficiency_ln>  (66) 
-0.516881

>  <r_i_glide_gscore>  (66) 
-2.09054

>  <r_i_glide_lipo>  (66) 
0

>  <r_i_glide_hbond>  (66) 
-0.00208005

>  <r_i_glide_metal>  (66) 
-0

>  <r_i_glide_rewards>  (66) 
-1.36127

>  <r_i_glide_evdw>  (66) 
-15.7172

>  <r_i_glide_ecoul>  (66) 
0.762841

>  <r_i_glide_erotb>  (66) 
0

>  <r_i_glide_esite>  (66) 
-0.0557528

>  <r_i_glide_emodel>  (66) 
-17.4082

>  <r_i_glide_energy>  (66) 
-14.9544

>  <r_i_glide_einternal>  (66) 
0

>  <r_i_glide_intrahb_reward>  (66) 
-0

>  <i_i_glide_confnum>  (66) 
2

>  <i_i_glide_posenum>  (66) 
9

>  <r_i_glide_eff_state_penalty>  (66) 
0

>  <ligand_id>  (66) 
18

>  <original_smiles>  (66) 
CC1(C)OC2C3OC(C)(C)OC3C3OC(C)(C)OC3C2O1

>  <smiles>  (66) 
[H]C([H])([H])C1(C([H])([H])[H])OC2([H])C3([H])OC(C([H])([H])[H])(C([H])([H])[H])OC3([H])C3([H])OC(C([H])([H])[H])(C([H])([H])[H])OC3([H])C2([H])O1

$$$$
20:0:0
     RDKit          3D

 48 53  0  0  1  0  0  0  0  0999 V2000
    8.6150   -8.1232    2.9000 O   0  0  0  0  0  0  0  0  0  0  0  0
    7.5794   -7.5438    2.2347 C   0  0  0  0  0  0  0  0  0  0  0  0
    7.7776   -6.3360    1.5518 C   0  0  0  0  0  0  0  0  0  0  0  0
    6.7013   -5.7314    0.8789 C   0  0  0  0  0  0  0  0  0  0  0  0
    5.4179   -6.3168    0.9079 C   0  0  0  0  0  0  0  0  0  0  0  0
    5.1946   -7.5240    1.6129 C   0  0  0  0  0  0  0  0  0  0  0  0
    6.3209   -8.1539    2.2323 C   0  0  0  0  0  0  0  0  0  0  0  0
    6.0950   -9.4696    2.9373 C   0  0  2  0  0  0  0  0  0  0  0  0
    6.3539  -10.7066    2.1106 C   0  0  0  0  0  0  0  0  0  0  0  0
    5.8137  -11.9135    2.9395 C   0  0  0  0  0  0  0  0  0  0  0  0
    5.4434  -11.4071    4.3578 C   0  0  2  0  0  0  0  0  0  0  0  0
    3.9648  -11.5922    4.8457 C   0  0  0  0  0  0  0  0  0  0  0  0
    2.7421  -11.2857    3.8900 C   0  0  0  0  0  0  0  0  0  0  0  0
    2.5284   -9.8694    3.4146 N   0  0  2  0  0  0  0  0  0  0  0  0
    1.2726   -9.7500    2.6264 C   0  0  0  0  0  0  0  0  0  0  0  0
    0.0691   -9.4840    3.5067 C   0  0  0  0  0  0  0  0  0  0  0  0
   -1.2368   -9.0253    2.8773 C   0  0  0  0  0  0  0  0  0  0  0  0
   -0.4354   -8.0719    3.7153 C   0  0  0  0  0  0  0  0  0  0  0  0
    3.7324   -9.3956    2.6989 C   0  0  1  0  0  0  0  0  0  0  0  0
    3.7516   -8.1132    1.7942 C   0  0  0  0  0  0  0  0  0  0  0  0
    4.8021   -9.1355    3.6818 C   0  0  1  0  0  0  0  0  0  0  0  0
    5.7681   -9.9554    4.3317 C   0  0  2  0  0  0  0  0  0  0  0  0
    9.4661   -7.8763    2.5417 H   0  0  0  0  0  0  0  0  0  0  0  0
    8.7549   -5.8723    1.5551 H   0  0  0  0  0  0  0  0  0  0  0  0
    6.8712   -4.8070    0.3366 H   0  0  0  0  0  0  0  0  0  0  0  0
    4.5973   -5.8195    0.3951 H   0  0  0  0  0  0  0  0  0  0  0  0
    5.8566  -10.6367    1.1467 H   0  0  0  0  0  0  0  0  0  0  0  0
    7.4202  -10.7981    1.9318 H   0  0  0  0  0  0  0  0  0  0  0  0
    4.9420  -12.3718    2.4697 H   0  0  0  0  0  0  0  0  0  0  0  0
    6.5746  -12.6929    2.9897 H   0  0  0  0  0  0  0  0  0  0  0  0
    6.1277  -11.8680    5.0817 H   0  0  0  0  0  0  0  0  0  0  0  0
    3.8799  -12.6428    5.1563 H   0  0  0  0  0  0  0  0  0  0  0  0
    3.8483  -11.0248    5.7777 H   0  0  0  0  0  0  0  0  0  0  0  0
    2.7798  -11.9924    3.0598 H   0  0  0  0  0  0  0  0  0  0  0  0
    1.8639  -11.5839    4.4599 H   0  0  0  0  0  0  0  0  0  0  0  0
    1.3090   -8.9466    1.9067 H   0  0  0  0  0  0  0  0  0  0  0  0
    1.0626  -10.6496    2.0661 H   0  0  0  0  0  0  0  0  0  0  0  0
   -0.0663  -10.1864    4.3301 H   0  0  0  0  0  0  0  0  0  0  0  0
   -1.2635   -8.8644    1.7997 H   0  0  0  0  0  0  0  0  0  0  0  0
   -2.1686   -9.3918    3.3078 H   0  0  0  0  0  0  0  0  0  0  0  0
   -0.8192   -7.8266    4.7069 H   0  0  0  0  0  0  0  0  0  0  0  0
    0.1037   -7.2728    3.2100 H   0  0  0  0  0  0  0  0  0  0  0  0
    3.9686  -10.2045    2.0252 H   0  0  0  0  0  0  0  0  0  0  0  0
    3.1217   -7.3172    2.2040 H   0  0  0  0  0  0  0  0  0  0  0  0
    3.3774   -8.3462    0.7942 H   0  0  0  0  0  0  0  0  0  0  0  0
    4.6943   -8.2039    4.2130 H   0  0  0  0  0  0  0  0  0  0  0  0
    6.4114   -9.5675    5.0955 H   0  0  0  0  0  0  0  0  0  0  0  0
    2.4167   -9.2903    4.2166 H   0  0  0  0  0  0  0  0  0  0  0  0
  1  2  1  0
  1 23  1  0
  2  7  2  0
  2  3  1  0
  3  4  2  0
  3 24  1  0
  4  5  1  0
  4 25  1  0
  5  6  2  0
  5 26  1  0
  6 20  1  0
  6  7  1  0
  7  8  1  0
  8 21  1  0
  8 22  1  0
  8  9  1  6
  9 10  1  0
  9 27  1  0
  9 28  1  0
 10 11  1  0
 10 29  1  0
 10 30  1  0
 11 22  1  0
 11 12  1  0
 11 31  1  1
 12 13  1  0
 12 32  1  0
 12 33  1  0
 13 14  1  0
 13 34  1  0
 13 35  1  0
 14 15  1  0
 14 19  1  0
 14 48  1  1
 15 16  1  0
 15 36  1  0
 15 37  1  0
 16 18  1  0
 16 17  1  0
 16 38  1  0
 17 18  1  0
 17 39  1  0
 17 40  1  0
 18 41  1  0
 18 42  1  0
 19 20  1  0
 19 21  1  0
 19 43  1  6
 20 44  1  0
 20 45  1  0
 21 22  1  0
 21 46  1  1
 22 47  1  1
M  CHG  1  14   1
M  END
>  <i_m_ct_stereo_status>  (67) 
1

>  <s_m_source_file>  (67) 
/var/tmp/pbs.5076255.sched01/tmp4ovtozgc/0905bh7x9.sdf

>  <i_m_source_file_index>  (67) 
28

>  <i_lp_mmshare_version>  (67) 
48012

>  <i_f3d_flags>  (67) 
0

>  <s_epik_input>  (67) 
W09IXWMxW2NIXVtjSF1bY0hdYyhjMVtDQF0yMzQpW0NIMl1bQ0BIXTVbQ0BIXTNbQ0BIXTRbQ0BIXShbQ0gyXVtDSDJdMilbQ0gyXVtDSDJdTjVbQ0gyXVtDSF02W0NIMl1bQ0gyXTY=

>  <s_epik_cmdline>  (67) 
J2VwaWtfcHl0aG9uJywgJy1waHQnLCAnMi4wJywgJy1waCcsICc3LjAnLCAnLXRuJywgJzgnLCAnLW1hJywgJzIwMCcsICctaW1hZScsICc8aW5maWxlLm1hZT4nLCAnLW9tYWUnLCAnPG91dGZpbGUubWFlPic=

>  <r_lp_tautomer_probability>  (67) 
1

>  <r_epik_Ionization_Penalty>  (67) 
0.00212357

>  <r_epik_Ionization_Penalty_Charging>  (67) 
0.000703707

>  <r_epik_Ionization_Penalty_Neutral>  (67) 
0.00141987

>  <r_epik_State_Penalty>  (67) 
-0

>  <r_epik_Charging_Adjusted_Penalty>  (67) 
0.000703707

>  <i_epik_Tot_Q>  (67) 
1

>  <i_epik_Tot_abs_Q>  (67) 
1

>  <s_lp_Force_Field>  (67) 
OPLS3e

>  <r_lp_Energy>  (67) 
136.098

>  <b_lp_Chiralities_Consistent>  (67) 
1

>  <s_lp_Variant>  (67) 
20:0-1

>  <s_i_glide_gridfile>  (67) 
pfpi4k_grid

>  <i_i_glide_lignum>  (67) 
28

>  <i_i_glide_rotatable_bonds>  (67) 
3

>  <r_i_docking_score>  (67) 
-3.76293

>  <r_i_glide_ligand_efficiency>  (67) 
-0.171042

>  <r_i_glide_ligand_efficiency_sa>  (67) 
-0.479268

>  <r_i_glide_ligand_efficiency_ln>  (67) 
-0.919798

>  <r_i_glide_gscore>  (67) 
-3.76293

>  <r_i_glide_lipo>  (67) 
-0.408672

>  <r_i_glide_hbond>  (67) 
-0.16

>  <r_i_glide_metal>  (67) 
-0

>  <r_i_glide_rewards>  (67) 
-1.388

>  <r_i_glide_evdw>  (67) 
-24.166

>  <r_i_glide_ecoul>  (67) 
-6.7383

>  <r_i_glide_erotb>  (67) 
0.416981

>  <r_i_glide_esite>  (67) 
-0.00419997

>  <r_i_glide_emodel>  (67) 
-39.0021

>  <r_i_glide_energy>  (67) 
-30.9043

>  <r_i_glide_einternal>  (67) 
1.69827

>  <r_i_glide_intrahb_reward>  (67) 
-0

>  <i_i_glide_confnum>  (67) 
5

>  <i_i_glide_posenum>  (67) 
15

>  <r_i_glide_eff_state_penalty>  (67) 
0

>  <ligand_id>  (67) 
20

>  <original_smiles>  (67) 
Oc1cccc2c1C13CCC4CCN(CC5CC5)C(C2)C1C43

>  <smiles>  (67) 
[H]Oc1c([H])c([H])c([H])c2c1C13C([H])([H])C([H])([H])C4([H])C([H])([H])C([H])([H])[N+]([H])(C([H])([H])C5([H])C([H])([H])C5([H])[H])C([H])(C2([H])[H])C1([H])C43[H]

$$$$
20:0:1
     RDKit          3D

 48 53  0  0  1  0  0  0  0  0999 V2000
    8.5296   -8.1761    2.8707 O   0  0  0  0  0  0  0  0  0  0  0  0
    7.3767   -7.7381    2.2721 C   0  0  0  0  0  0  0  0  0  0  0  0
    7.3794   -6.5307    1.5549 C   0  0  0  0  0  0  0  0  0  0  0  0
    6.1928   -6.0465    0.9748 C   0  0  0  0  0  0  0  0  0  0  0  0
    4.9839   -6.7568    1.1159 C   0  0  0  0  0  0  0  0  0  0  0  0
    4.9521   -7.9710    1.8412 C   0  0  0  0  0  0  0  0  0  0  0  0
    6.1858   -8.4701    2.3740 C   0  0  0  0  0  0  0  0  0  0  0  0
    6.1373   -9.7871    3.1092 C   0  0  2  0  0  0  0  0  0  0  0  0
    6.4288  -11.0084    2.2715 C   0  0  0  0  0  0  0  0  0  0  0  0
    6.0801  -12.2472    3.1530 C   0  0  0  0  0  0  0  0  0  0  0  0
    5.7941  -11.7519    4.5954 C   0  0  2  0  0  0  0  0  0  0  0  0
    4.3888  -12.0642    5.2132 C   0  0  0  0  0  0  0  0  0  0  0  0
    3.0665  -11.8819    4.3645 C   0  0  0  0  0  0  0  0  0  0  0  0
    2.6765  -10.5081    3.8984 N   0  0  2  0  0  0  0  0  0  0  0  0
    1.3576  -10.5432    3.2103 C   0  0  0  0  0  0  0  0  0  0  0  0
    0.5346   -9.3082    3.5279 C   0  0  0  0  0  0  0  0  0  0  0  0
   -0.8011   -9.0722    2.8383 C   0  0  0  0  0  0  0  0  0  0  0  0
    0.3645   -8.1977    2.5073 C   0  0  0  0  0  0  0  0  0  0  0  0
    3.7683   -9.9312    3.0825 C   0  0  1  0  0  0  0  0  0  0  0  0
    3.5920   -8.6842    2.1569 C   0  0  0  0  0  0  0  0  0  0  0  0
    4.8874   -9.5580    3.9645 C   0  0  1  0  0  0  0  0  0  0  0  0
    5.9763  -10.2768    4.5299 C   0  0  2  0  0  0  0  0  0  0  0  0
    9.3123   -7.8747    2.4095 H   0  0  0  0  0  0  0  0  0  0  0  0
    8.2964   -5.9660    1.4654 H   0  0  0  0  0  0  0  0  0  0  0  0
    6.2156   -5.1172    0.4128 H   0  0  0  0  0  0  0  0  0  0  0  0
    4.0724   -6.3478    0.6844 H   0  0  0  0  0  0  0  0  0  0  0  0
    5.8460  -10.9940    1.3553 H   0  0  0  0  0  0  0  0  0  0  0  0
    7.4730  -11.0063    1.9945 H   0  0  0  0  0  0  0  0  0  0  0  0
    5.2179  -12.7907    2.7562 H   0  0  0  0  0  0  0  0  0  0  0  0
    6.9174  -12.9471    3.1420 H   0  0  0  0  0  0  0  0  0  0  0  0
    6.5813  -12.1327    5.2593 H   0  0  0  0  0  0  0  0  0  0  0  0
    4.4280  -13.1148    5.5344 H   0  0  0  0  0  0  0  0  0  0  0  0
    4.3015  -11.4986    6.1505 H   0  0  0  0  0  0  0  0  0  0  0  0
    3.0963  -12.5959    3.5390 H   0  0  0  0  0  0  0  0  0  0  0  0
    2.2753  -12.2497    5.0195 H   0  0  0  0  0  0  0  0  0  0  0  0
    1.4522  -10.6655    2.1382 H   0  0  0  0  0  0  0  0  0  0  0  0
    0.7548  -11.3857    3.5445 H   0  0  0  0  0  0  0  0  0  0  0  0
    0.5310   -9.0255    4.5821 H   0  0  0  0  0  0  0  0  0  0  0  0
   -1.1164   -9.7868    2.0810 H   0  0  0  0  0  0  0  0  0  0  0  0
   -1.6099   -8.6027    3.3996 H   0  0  0  0  0  0  0  0  0  0  0  0
    0.3811   -7.1767    2.8912 H   0  0  0  0  0  0  0  0  0  0  0  0
    0.8318   -8.3395    1.5354 H   0  0  0  0  0  0  0  0  0  0  0  0
    4.0193  -10.7283    2.4025 H   0  0  0  0  0  0  0  0  0  0  0  0
    2.9775   -7.9220    2.6401 H   0  0  0  0  0  0  0  0  0  0  0  0
    3.1204   -8.9603    1.2054 H   0  0  0  0  0  0  0  0  0  0  0  0
    4.7387   -8.6334    4.4967 H   0  0  0  0  0  0  0  0  0  0  0  0
    6.6398   -9.8194    5.2338 H   0  0  0  0  0  0  0  0  0  0  0  0
    2.5581   -9.9610    4.7234 H   0  0  0  0  0  0  0  0  0  0  0  0
  1  2  1  0
  1 23  1  0
  2  7  2  0
  2  3  1  0
  3  4  2  0
  3 24  1  0
  4  5  1  0
  4 25  1  0
  5  6  2  0
  5 26  1  0
  6 20  1  0
  6  7  1  0
  7  8  1  0
  8 21  1  0
  8 22  1  0
  8  9  1  6
  9 10  1  0
  9 27  1  0
  9 28  1  0
 10 11  1  0
 10 29  1  0
 10 30  1  0
 11 22  1  0
 11 12  1  0
 11 31  1  1
 12 13  1  0
 12 32  1  0
 12 33  1  0
 13 14  1  0
 13 34  1  0
 13 35  1  0
 14 15  1  0
 14 19  1  0
 14 48  1  1
 15 16  1  0
 15 36  1  0
 15 37  1  0
 16 18  1  0
 16 17  1  0
 16 38  1  0
 17 18  1  0
 17 39  1  0
 17 40  1  0
 18 41  1  0
 18 42  1  0
 19 20  1  0
 19 21  1  0
 19 43  1  6
 20 44  1  0
 20 45  1  0
 21 22  1  0
 21 46  1  1
 22 47  1  1
M  CHG  1  14   1
M  END
>  <i_m_ct_stereo_status>  (68) 
1

>  <s_m_source_file>  (68) 
/var/tmp/pbs.5076255.sched01/tmp4ovtozgc/0905bh7x9.sdf

>  <i_m_source_file_index>  (68) 
28

>  <i_lp_mmshare_version>  (68) 
48012

>  <i_f3d_flags>  (68) 
0

>  <s_epik_input>  (68) 
W09IXWMxW2NIXVtjSF1bY0hdYyhjMVtDQF0yMzQpW0NIMl1bQ0BIXTVbQ0BIXTNbQ0BIXTRbQ0BIXShbQ0gyXVtDSDJdMilbQ0gyXVtDSDJdTjVbQ0gyXVtDSF02W0NIMl1bQ0gyXTY=

>  <s_epik_cmdline>  (68) 
J2VwaWtfcHl0aG9uJywgJy1waHQnLCAnMi4wJywgJy1waCcsICc3LjAnLCAnLXRuJywgJzgnLCAnLW1hJywgJzIwMCcsICctaW1hZScsICc8aW5maWxlLm1hZT4nLCAnLW9tYWUnLCAnPG91dGZpbGUubWFlPic=

>  <r_lp_tautomer_probability>  (68) 
1

>  <r_epik_Ionization_Penalty>  (68) 
0.00212357

>  <r_epik_Ionization_Penalty_Charging>  (68) 
0.000703707

>  <r_epik_Ionization_Penalty_Neutral>  (68) 
0.00141987

>  <r_epik_State_Penalty>  (68) 
-0

>  <r_epik_Charging_Adjusted_Penalty>  (68) 
0.000703707

>  <i_epik_Tot_Q>  (68) 
1

>  <i_epik_Tot_abs_Q>  (68) 
1

>  <s_lp_Force_Field>  (68) 
OPLS3e

>  <r_lp_Energy>  (68) 
136.098

>  <b_lp_Chiralities_Consistent>  (68) 
1

>  <s_lp_Variant>  (68) 
20:0-1

>  <s_i_glide_gridfile>  (68) 
pfpi4k_grid

>  <i_i_glide_lignum>  (68) 
28

>  <i_i_glide_rotatable_bonds>  (68) 
3

>  <r_i_docking_score>  (68) 
-3.71619

>  <r_i_glide_ligand_efficiency>  (68) 
-0.168918

>  <r_i_glide_ligand_efficiency_sa>  (68) 
-0.473315

>  <r_i_glide_ligand_efficiency_ln>  (68) 
-0.908373

>  <r_i_glide_gscore>  (68) 
-3.71619

>  <r_i_glide_lipo>  (68) 
-0.390858

>  <r_i_glide_hbond>  (68) 
-0.16

>  <r_i_glide_metal>  (68) 
-0

>  <r_i_glide_rewards>  (68) 
-1.388

>  <r_i_glide_evdw>  (68) 
-23.2821

>  <r_i_glide_ecoul>  (68) 
-6.79855

>  <r_i_glide_erotb>  (68) 
0.416981

>  <r_i_glide_esite>  (68) 
-0.0104297

>  <r_i_glide_emodel>  (68) 
-37.3696

>  <r_i_glide_energy>  (68) 
-30.0806

>  <r_i_glide_einternal>  (68) 
2.26673

>  <r_i_glide_intrahb_reward>  (68) 
-0

>  <i_i_glide_confnum>  (68) 
5

>  <i_i_glide_posenum>  (68) 
28

>  <r_i_glide_eff_state_penalty>  (68) 
0

>  <ligand_id>  (68) 
20

>  <original_smiles>  (68) 
Oc1cccc2c1C13CCC4CCN(CC5CC5)C(C2)C1C43

>  <smiles>  (68) 
[H]Oc1c([H])c([H])c([H])c2c1C13C([H])([H])C([H])([H])C4([H])C([H])([H])C([H])([H])[N+]([H])(C([H])([H])C5([H])C([H])([H])C5([H])[H])C([H])(C2([H])[H])C1([H])C43[H]

$$$$
20:0:2
     RDKit          3D

 48 53  0  0  1  0  0  0  0  0999 V2000
    7.7856   -7.5343    2.7503 O   0  0  0  0  0  0  0  0  0  0  0  0
    6.6557   -7.1992    2.0736 C   0  0  0  0  0  0  0  0  0  0  0  0
    6.6307   -6.0566    1.2614 C   0  0  0  0  0  0  0  0  0  0  0  0
    5.4598   -5.6836    0.5834 C   0  0  0  0  0  0  0  0  0  0  0  0
    4.2798   -6.4451    0.7273 C   0  0  0  0  0  0  0  0  0  0  0  0
    4.2818   -7.5997    1.5471 C   0  0  0  0  0  0  0  0  0  0  0  0
    5.4929   -7.9896    2.1861 C   0  0  0  0  0  0  0  0  0  0  0  0
    5.4684   -9.2179    3.0487 C   0  0  2  0  0  0  0  0  0  0  0  0
    5.8646  -10.4969    2.3415 C   0  0  0  0  0  0  0  0  0  0  0  0
    5.5177  -11.6672    3.3085 C   0  0  0  0  0  0  0  0  0  0  0  0
    5.1474  -11.0566    4.6897 C   0  0  2  0  0  0  0  0  0  0  0  0
    3.7263  -11.3848    5.2758 C   0  0  0  0  0  0  0  0  0  0  0  0
    2.4365  -11.3433    4.3675 C   0  0  0  0  0  0  0  0  0  0  0  0
    2.0022  -10.0342    3.7481 N   0  0  2  0  0  0  0  0  0  0  0  0
    0.6988  -10.1800    3.0526 C   0  0  0  0  0  0  0  0  0  0  0  0
   -0.0889   -8.8797    2.9436 C   0  0  0  0  0  0  0  0  0  0  0  0
   -0.9849   -8.4005    4.0635 C   0  0  0  0  0  0  0  0  0  0  0  0
   -1.5831   -8.8544    2.7552 C   0  0  0  0  0  0  0  0  0  0  0  0
    3.1097   -9.4766    2.9299 C   0  0  1  0  0  0  0  0  0  0  0  0
    2.9425   -8.3217    1.8821 C   0  0  0  0  0  0  0  0  0  0  0  0
    4.1774   -8.9760    3.8188 C   0  0  1  0  0  0  0  0  0  0  0  0
    5.2751   -9.5862    4.4945 C   0  0  2  0  0  0  0  0  0  0  0  0
    7.6867   -8.3248    3.2604 H   0  0  0  0  0  0  0  0  0  0  0  0
    7.5289   -5.4618    1.1585 H   0  0  0  0  0  0  0  0  0  0  0  0
    5.4553   -4.8055   -0.0552 H   0  0  0  0  0  0  0  0  0  0  0  0
    3.3708   -6.1153    0.2406 H   0  0  0  0  0  0  0  0  0  0  0  0
    5.3293  -10.5903    1.4022 H   0  0  0  0  0  0  0  0  0  0  0  0
    6.9242  -10.4600    2.0995 H   0  0  0  0  0  0  0  0  0  0  0  0
    4.6937  -12.2774    2.9286 H   0  0  0  0  0  0  0  0  0  0  0  0
    6.3793  -12.3311    3.3969 H   0  0  0  0  0  0  0  0  0  0  0  0
    5.9172  -11.3461    5.4150 H   0  0  0  0  0  0  0  0  0  0  0  0
    3.8009  -12.3963    5.6965 H   0  0  0  0  0  0  0  0  0  0  0  0
    3.5774  -10.7426    6.1534 H   0  0  0  0  0  0  0  0  0  0  0  0
    2.5248  -12.1266    3.6103 H   0  0  0  0  0  0  0  0  0  0  0  0
    1.6358  -11.6851    5.0225 H   0  0  0  0  0  0  0  0  0  0  0  0
    0.8360  -10.6118    2.0654 H   0  0  0  0  0  0  0  0  0  0  0  0
    0.0672  -10.8933    3.5880 H   0  0  0  0  0  0  0  0  0  0  0  0
    0.3540   -8.1117    2.3159 H   0  0  0  0  0  0  0  0  0  0  0  0
   -1.0868   -9.0487    4.9367 H   0  0  0  0  0  0  0  0  0  0  0  0
   -0.9594   -7.3325    4.2762 H   0  0  0  0  0  0  0  0  0  0  0  0
   -1.9579   -8.0825    2.0838 H   0  0  0  0  0  0  0  0  0  0  0  0
   -2.0982   -9.8130    2.6998 H   0  0  0  0  0  0  0  0  0  0  0  0
    3.4243  -10.3316    2.3409 H   0  0  0  0  0  0  0  0  0  0  0  0
    2.3773   -7.4778    2.2865 H   0  0  0  0  0  0  0  0  0  0  0  0
    2.4699   -8.6782    0.9617 H   0  0  0  0  0  0  0  0  0  0  0  0
    3.9531   -8.0129    4.2645 H   0  0  0  0  0  0  0  0  0  0  0  0
    5.8805   -9.0372    5.1946 H   0  0  0  0  0  0  0  0  0  0  0  0
    1.8356   -9.4066    4.5249 H   0  0  0  0  0  0  0  0  0  0  0  0
  1  2  1  0
  1 23  1  0
  2  7  2  0
  2  3  1  0
  3  4  2  0
  3 24  1  0
  4  5  1  0
  4 25  1  0
  5  6  2  0
  5 26  1  0
  6 20  1  0
  6  7  1  0
  7  8  1  0
  8 21  1  0
  8 22  1  0
  8  9  1  6
  9 10  1  0
  9 27  1  0
  9 28  1  0
 10 11  1  0
 10 29  1  0
 10 30  1  0
 11 22  1  0
 11 12  1  0
 11 31  1  1
 12 13  1  0
 12 32  1  0
 12 33  1  0
 13 14  1  0
 13 34  1  0
 13 35  1  0
 14 15  1  0
 14 19  1  0
 14 48  1  1
 15 16  1  0
 15 36  1  0
 15 37  1  0
 16 18  1  0
 16 17  1  0
 16 38  1  0
 17 18  1  0
 17 39  1  0
 17 40  1  0
 18 41  1  0
 18 42  1  0
 19 20  1  0
 19 21  1  0
 19 43  1  6
 20 44  1  0
 20 45  1  0
 21 22  1  0
 21 46  1  1
 22 47  1  1
M  CHG  1  14   1
M  END
>  <i_m_ct_stereo_status>  (69) 
1

>  <s_m_source_file>  (69) 
/var/tmp/pbs.5076255.sched01/tmp4ovtozgc/0905bh7x9.sdf

>  <i_m_source_file_index>  (69) 
28

>  <i_lp_mmshare_version>  (69) 
48012

>  <i_f3d_flags>  (69) 
0

>  <s_epik_input>  (69) 
W09IXWMxW2NIXVtjSF1bY0hdYyhjMVtDQF0yMzQpW0NIMl1bQ0BIXTVbQ0BIXTNbQ0BIXTRbQ0BIXShbQ0gyXVtDSDJdMilbQ0gyXVtDSDJdTjVbQ0gyXVtDSF02W0NIMl1bQ0gyXTY=

>  <s_epik_cmdline>  (69) 
J2VwaWtfcHl0aG9uJywgJy1waHQnLCAnMi4wJywgJy1waCcsICc3LjAnLCAnLXRuJywgJzgnLCAnLW1hJywgJzIwMCcsICctaW1hZScsICc8aW5maWxlLm1hZT4nLCAnLW9tYWUnLCAnPG91dGZpbGUubWFlPic=

>  <r_lp_tautomer_probability>  (69) 
1

>  <r_epik_Ionization_Penalty>  (69) 
0.00212357

>  <r_epik_Ionization_Penalty_Charging>  (69) 
0.000703707

>  <r_epik_Ionization_Penalty_Neutral>  (69) 
0.00141987

>  <r_epik_State_Penalty>  (69) 
-0

>  <r_epik_Charging_Adjusted_Penalty>  (69) 
0.000703707

>  <i_epik_Tot_Q>  (69) 
1

>  <i_epik_Tot_abs_Q>  (69) 
1

>  <s_lp_Force_Field>  (69) 
OPLS3e

>  <r_lp_Energy>  (69) 
136.098

>  <b_lp_Chiralities_Consistent>  (69) 
1

>  <s_lp_Variant>  (69) 
20:0-1

>  <s_i_glide_gridfile>  (69) 
pfpi4k_grid

>  <i_i_glide_lignum>  (69) 
28

>  <i_i_glide_rotatable_bonds>  (69) 
3

>  <r_i_docking_score>  (69) 
-3.27577

>  <r_i_glide_ligand_efficiency>  (69) 
-0.148899

>  <r_i_glide_ligand_efficiency_sa>  (69) 
-0.41722

>  <r_i_glide_ligand_efficiency_ln>  (69) 
-0.800718

>  <r_i_glide_gscore>  (69) 
-3.27577

>  <r_i_glide_lipo>  (69) 
-0.521484

>  <r_i_glide_hbond>  (69) 
0

>  <r_i_glide_metal>  (69) 
-0

>  <r_i_glide_rewards>  (69) 
-1.388

>  <r_i_glide_evdw>  (69) 
-25.2983

>  <r_i_glide_ecoul>  (69) 
-3.44162

>  <r_i_glide_erotb>  (69) 
0.416981

>  <r_i_glide_esite>  (69) 
-0.00211053

>  <r_i_glide_emodel>  (69) 
-35.8556

>  <r_i_glide_energy>  (69) 
-28.7399

>  <r_i_glide_einternal>  (69) 
1.57061

>  <r_i_glide_intrahb_reward>  (69) 
-0

>  <i_i_glide_confnum>  (69) 
2

>  <i_i_glide_posenum>  (69) 
20

>  <r_i_glide_eff_state_penalty>  (69) 
0

>  <ligand_id>  (69) 
20

>  <original_smiles>  (69) 
Oc1cccc2c1C13CCC4CCN(CC5CC5)C(C2)C1C43

>  <smiles>  (69) 
[H]Oc1c([H])c([H])c([H])c2c1C13C([H])([H])C([H])([H])C4([H])C([H])([H])C([H])([H])[N+]([H])(C([H])([H])C5([H])C([H])([H])C5([H])[H])C([H])(C2([H])[H])C1([H])C43[H]

$$$$
21:0:0
     RDKit          3D

 90 96  0  0  1  0  0  0  0  0999 V2000
   -2.1650   -4.6046    8.6149 C   0  0  0  0  0  0  0  0  0  0  0  0
   -0.9336   -5.2238    8.9508 O   0  0  0  0  0  0  0  0  0  0  0  0
    0.2850   -4.5966    8.5442 C   0  0  2  0  0  0  0  0  0  0  0  0
    0.1106   -3.2608    7.7557 C   0  0  1  0  0  0  0  0  0  0  0  0
   -0.1526   -2.2270    8.7134 O   0  0  0  0  0  0  0  0  0  0  0  0
    1.2880   -2.8561    6.8612 C   0  0  0  0  0  0  0  0  0  0  0  0
    2.4006   -3.6247    6.7423 C   0  0  0  0  0  0  0  0  0  0  0  0
    3.4625   -3.2315    5.8334 C   0  0  0  0  0  0  0  0  0  0  0  0
    3.3446   -2.1876    4.9812 C   0  0  0  0  0  0  0  0  0  0  0  0
    2.1024   -1.3290    4.8381 C   0  0  2  0  0  0  0  0  0  0  0  0
    1.4597   -1.7445    3.4752 C   0  0  0  0  0  0  0  0  0  0  0  0
    2.5388    0.1756    4.9350 C   0  0  1  0  0  0  0  0  0  0  0  0
    2.6682    0.9627    3.6175 C   0  0  0  0  0  0  0  0  0  0  0  0
    3.7543    0.5286    2.6313 C   0  0  0  0  0  0  0  0  0  0  0  0
    1.9573    1.9383    3.3730 O   0  0  0  0  0  0  0  0  0  0  0  0
    1.6040    0.8411    5.9528 C   0  0  0  0  0  0  0  0  0  0  0  0
    1.2897   -0.2883    6.9258 C   0  0  0  0  0  0  0  0  0  0  0  0
    1.1051   -1.5377    6.0499 C   0  0  2  0  0  0  0  0  0  0  0  0
   -0.2371   -1.4462    5.5732 O   0  0  0  0  0  0  0  0  0  0  0  0
    2.4885   -4.9143    7.4514 C   0  0  0  0  0  0  0  0  0  0  0  0
    3.6807   -5.4967    7.7116 C   0  0  0  0  0  0  0  0  0  0  0  0
    3.8434   -6.9075    8.2552 C   0  0  0  0  0  0  0  0  0  0  0  0
    2.5369   -7.7310    8.0996 C   0  0  1  0  0  0  0  0  0  0  0  0
    1.4369   -6.8646    8.7270 C   0  0  0  0  0  0  0  0  0  0  0  0
    1.1727   -5.6401    7.8030 C   0  0  1  0  0  0  0  0  0  0  0  0
    0.5067   -6.1974    6.5076 C   0  0  0  0  0  0  0  0  0  0  0  0
    0.7589   -7.7083    6.1834 C   0  0  1  0  0  0  0  0  0  0  0  0
    0.2330   -8.1922    4.7716 C   0  0  1  0  0  0  0  0  0  0  0  0
   -1.2957   -7.9426    4.7664 C   0  0  0  0  0  0  0  0  0  0  0  0
    0.8118   -7.3935    3.6118 C   0  0  0  0  0  0  0  0  0  0  0  0
    1.3443   -7.9247    2.4866 C   0  0  0  0  0  0  0  0  0  0  0  0
    1.4032   -9.3676    2.2977 C   0  0  0  0  0  0  0  0  0  0  0  0
    2.2397   -9.8289    1.5044 O   0  0  0  0  0  0  0  0  0  0  0  0
    0.4020  -10.2494    3.0727 C   0  0  0  0  0  0  0  0  0  0  0  0
   -0.9957  -10.0319    2.4102 C   0  0  0  0  0  0  0  0  0  0  0  0
    0.7494  -11.7777    3.0532 C   0  0  0  0  0  0  0  0  0  0  0  0
    0.4551   -9.7440    4.5630 C   0  0  1  0  0  0  0  0  0  0  0  0
    1.6890  -10.3629    5.2873 C   0  0  0  0  0  0  0  0  0  0  0  0
    2.0763   -9.7616    6.6353 C   0  0  1  0  0  0  0  0  0  0  0  0
    3.2883  -10.3793    7.0279 O   0  0  0  0  0  0  0  0  0  0  0  0
    2.1819   -8.2174    6.6147 C   0  0  2  0  0  0  0  0  0  0  0  0
    3.2569   -7.8108    5.5700 C   0  0  0  0  0  0  0  0  0  0  0  0
   -3.0152   -5.1346    9.0684 H   0  0  0  0  0  0  0  0  0  0  0  0
   -2.3103   -4.6095    7.5438 H   0  0  0  0  0  0  0  0  0  0  0  0
   -2.1904   -3.5833    8.9796 H   0  0  0  0  0  0  0  0  0  0  0  0
    0.8189   -4.3577    9.4606 H   0  0  0  0  0  0  0  0  0  0  0  0
   -0.7344   -3.3911    7.0857 H   0  0  0  0  0  0  0  0  0  0  0  0
    0.6255   -2.1454    9.2609 H   0  0  0  0  0  0  0  0  0  0  0  0
    4.3940   -3.7787    5.7994 H   0  0  0  0  0  0  0  0  0  0  0  0
    4.1761   -1.9513    4.3390 H   0  0  0  0  0  0  0  0  0  0  0  0
    0.6426   -1.0826    3.1869 H   0  0  0  0  0  0  0  0  0  0  0  0
    1.0521   -2.7566    3.5432 H   0  0  0  0  0  0  0  0  0  0  0  0
    2.1893   -1.7344    2.6690 H   0  0  0  0  0  0  0  0  0  0  0  0
    3.5250    0.2096    5.3909 H   0  0  0  0  0  0  0  0  0  0  0  0
    4.7346    0.6104    3.0951 H   0  0  0  0  0  0  0  0  0  0  0  0
    3.7317    1.1710    1.7535 H   0  0  0  0  0  0  0  0  0  0  0  0
    3.5980   -0.5023    2.3094 H   0  0  0  0  0  0  0  0  0  0  0  0
    2.0739    1.6885    6.4652 H   0  0  0  0  0  0  0  0  0  0  0  0
    0.6796    1.2026    5.4926 H   0  0  0  0  0  0  0  0  0  0  0  0
    2.1396   -0.4320    7.5980 H   0  0  0  0  0  0  0  0  0  0  0  0
    0.4251   -0.0412    7.5430 H   0  0  0  0  0  0  0  0  0  0  0  0
   -0.2774   -0.7244    4.9647 H   0  0  0  0  0  0  0  0  0  0  0  0
    4.6046   -4.9865    7.5018 H   0  0  0  0  0  0  0  0  0  0  0  0
    4.6933   -7.3893    7.7830 H   0  0  0  0  0  0  0  0  0  0  0  0
    4.1028   -6.8205    9.3072 H   0  0  0  0  0  0  0  0  0  0  0  0
    2.6644   -8.5991    8.7366 H   0  0  0  0  0  0  0  0  0  0  0  0
    0.5357   -7.4500    8.9018 H   0  0  0  0  0  0  0  0  0  0  0  0
    1.7577   -6.5381    9.7193 H   0  0  0  0  0  0  0  0  0  0  0  0
   -0.5626   -6.0651    6.6080 H   0  0  0  0  0  0  0  0  0  0  0  0
    0.7949   -5.5729    5.6634 H   0  0  0  0  0  0  0  0  0  0  0  0
    0.0955   -8.2288    6.8797 H   0  0  0  0  0  0  0  0  0  0  0  0
   -1.7346   -8.5538    5.5627 H   0  0  0  0  0  0  0  0  0  0  0  0
   -1.8331   -8.2387    3.8735 H   0  0  0  0  0  0  0  0  0  0  0  0
   -1.5410   -6.8865    4.8752 H   0  0  0  0  0  0  0  0  0  0  0  0
    0.7805   -6.3152    3.6965 H   0  0  0  0  0  0  0  0  0  0  0  0
    1.7215   -7.2734    1.6930 H   0  0  0  0  0  0  0  0  0  0  0  0
   -1.8060  -10.2361    3.1232 H   0  0  0  0  0  0  0  0  0  0  0  0
   -1.1303  -10.7018    1.5571 H   0  0  0  0  0  0  0  0  0  0  0  0
   -1.1737   -9.0260    2.0114 H   0  0  0  0  0  0  0  0  0  0  0  0
    0.2429  -12.3429    3.8569 H   0  0  0  0  0  0  0  0  0  0  0  0
    1.8273  -11.9500    3.1176 H   0  0  0  0  0  0  0  0  0  0  0  0
    0.4637  -12.2425    2.0853 H   0  0  0  0  0  0  0  0  0  0  0  0
   -0.3568  -10.2279    5.1079 H   0  0  0  0  0  0  0  0  0  0  0  0
    1.4962  -11.4137    5.4527 H   0  0  0  0  0  0  0  0  0  0  0  0
    2.5468  -10.3349    4.6148 H   0  0  0  0  0  0  0  0  0  0  0  0
    1.3281  -10.0677    7.3729 H   0  0  0  0  0  0  0  0  0  0  0  0
    3.0766  -11.2742    7.2786 H   0  0  0  0  0  0  0  0  0  0  0  0
    3.0810   -8.2296    4.5845 H   0  0  0  0  0  0  0  0  0  0  0  0
    4.2518   -8.1609    5.8348 H   0  0  0  0  0  0  0  0  0  0  0  0
    3.2970   -6.7339    5.4245 H   0  0  0  0  0  0  0  0  0  0  0  0
  1  2  1  0
  1 43  1  0
  1 44  1  0
  1 45  1  0
  2  3  1  0
  3 25  1  0
  3  4  1  0
  3 46  1  1
  4  5  1  0
  4  6  1  0
  4 47  1  6
  5 48  1  0
  6 18  1  0
  6  7  2  0
  7  8  1  0
  7 20  1  0
  8  9  2  0
  8 49  1  0
  9 10  1  0
  9 50  1  0
 10 18  1  0
 10 11  1  6
 10 12  1  0
 11 51  1  0
 11 52  1  0
 11 53  1  0
 12 13  1  0
 12 16  1  0
 12 54  1  1
 13 14  1  0
 13 15  2  0
 14 55  1  0
 14 56  1  0
 14 57  1  0
 16 17  1  0
 16 58  1  0
 16 59  1  0
 17 18  1  0
 17 60  1  0
 17 61  1  0
 18 19  1  6
 19 62  1  0
 20 25  1  0
 20 21  2  0
 21 22  1  0
 21 63  1  0
 22 23  1  0
 22 64  1  0
 22 65  1  0
 23 41  1  0
 23 24  1  0
 23 66  1  1
 24 25  1  0
 24 67  1  0
 24 68  1  0
 25 26  1  6
 26 27  1  0
 26 69  1  0
 26 70  1  0
 27 41  1  0
 27 28  1  0
 27 71  1  1
 28 37  1  0
 28 29  1  1
 28 30  1  0
 29 72  1  0
 29 73  1  0
 29 74  1  0
 30 31  2  0
 30 75  1  0
 31 32  1  0
 31 76  1  0
 32 33  2  0
 32 34  1  0
 34 35  1  0
 34 36  1  0
 34 37  1  0
 35 77  1  0
 35 78  1  0
 35 79  1  0
 36 80  1  0
 36 81  1  0
 36 82  1  0
 37 38  1  0
 37 83  1  1
 38 39  1  0
 38 84  1  0
 38 85  1  0
 39 40  1  0
 39 41  1  0
 39 86  1  1
 40 87  1  0
 41 42  1  6
 42 88  1  0
 42 89  1  0
 42 90  1  0
M  END
>  <i_m_ct_stereo_status>  (70) 
1

>  <s_m_source_file>  (70) 
/var/tmp/pbs.5076255.sched01/tmp4ovtozgc/0905bh7x9.sdf

>  <i_m_source_file_index>  (70) 
29

>  <i_lp_mmshare_version>  (70) 
48012

>  <i_f3d_flags>  (70) 
0

>  <s_epik_input>  (70) 
W0NIM11DKD1PKVtDQEBIXShbQ0gyXVtDSDJdMSlbQ0BAXShbQ0gzXSkoW0NIXT1bQ0hdMilbQ0BAXTEoW09IXSlDKFtDQEhdKFtPSF0pW0NASF0zT1tDSDNdKT1DMkMoW0NAXTM0NSk9W0NIXVtDSDJdW0NAQEhdKFtDSDJdNClbQ0BdNihbQ0gzXSlbQ0BASF0oW0NIMl01KVtDQF03KFtDSDNdKVtDQEhdKFtDSDJdW0NASF02W09IXSlDKFtDSDNdKShbQ0gzXSlDKD1PKVtDSF09W0NIXTc=

>  <s_epik_cmdline>  (70) 
J2VwaWtfcHl0aG9uJywgJy1waHQnLCAnMi4wJywgJy1waCcsICc3LjAnLCAnLXRuJywgJzgnLCAnLW1hJywgJzIwMCcsICctaW1hZScsICc8aW5maWxlLm1hZT4nLCAnLW9tYWUnLCAnPG91dGZpbGUubWFlPic=

>  <r_lp_tautomer_probability>  (70) 
1

>  <r_epik_Ionization_Penalty>  (70) 
3.69196e-06

>  <r_epik_Ionization_Penalty_Charging>  (70) 
0

>  <r_epik_Ionization_Penalty_Neutral>  (70) 
3.69196e-06

>  <r_epik_State_Penalty>  (70) 
-0

>  <r_epik_Charging_Adjusted_Penalty>  (70) 
0

>  <i_epik_Tot_Q>  (70) 
0

>  <i_epik_Tot_abs_Q>  (70) 
0

>  <s_lp_Force_Field>  (70) 
OPLS3e

>  <r_lp_Energy>  (70) 
93.891

>  <b_lp_Chiralities_Consistent>  (70) 
1

>  <s_lp_Variant>  (70) 
21:0-1

>  <s_i_glide_gridfile>  (70) 
pfpi4k_grid

>  <i_i_glide_lignum>  (70) 
29

>  <i_i_glide_rotatable_bonds>  (70) 
5

>  <r_i_docking_score>  (70) 
-2.36826

>  <r_i_glide_ligand_efficiency>  (70) 
-0.0563872

>  <r_i_glide_ligand_efficiency_sa>  (70) 
-0.196004

>  <r_i_glide_ligand_efficiency_ln>  (70) 
-0.49988

>  <r_i_glide_gscore>  (70) 
-2.36826

>  <r_i_glide_lipo>  (70) 
-0.127955

>  <r_i_glide_hbond>  (70) 
-0.159548

>  <r_i_glide_metal>  (70) 
-0

>  <r_i_glide_rewards>  (70) 
-0.108564

>  <r_i_glide_evdw>  (70) 
-13.8911

>  <r_i_glide_ecoul>  (70) 
-8.48268

>  <r_i_glide_erotb>  (70) 
0

>  <r_i_glide_esite>  (70) 
-0.00524085

>  <r_i_glide_emodel>  (70) 
-21.005

>  <r_i_glide_energy>  (70) 
-22.3738

>  <r_i_glide_einternal>  (70) 
9.68904

>  <r_i_glide_intrahb_reward>  (70) 
-0

>  <i_i_glide_confnum>  (70) 
1

>  <i_i_glide_posenum>  (70) 
1

>  <r_i_glide_eff_state_penalty>  (70) 
0

>  <ligand_id>  (70) 
21

>  <original_smiles>  (70) 
COC1C(O)C2=C(C=CC3(C)C(C(C)=O)CCC23O)C2=CCC3CC21CC1C2(C)C=CC(=O)C(C)(C)C2CC(O)C31C

>  <smiles>  (70) 
[H]OC1([H])C2=C(C([H])=C([H])C3(C([H])([H])[H])C([H])(C(=O)C([H])([H])[H])C([H])([H])C([H])([H])C23O[H])C2=C([H])C([H])([H])C3([H])C([H])([H])C2(C([H])([H])C2([H])C4(C([H])([H])[H])C([H])=C([H])C(=O)C(C([H])([H])[H])(C([H])([H])[H])C4([H])C([H])([H])C([H])(O[H])C32C([H])([H])[H])C1([H])OC([H])([H])[H]

$$$$
21:0:1
     RDKit          3D

 90 96  0  0  1  0  0  0  0  0999 V2000
   -0.4459   -5.1097   10.8561 C   0  0  0  0  0  0  0  0  0  0  0  0
    0.1944   -5.5240    9.6506 O   0  0  0  0  0  0  0  0  0  0  0  0
    1.0830   -4.5666    9.0661 C   0  0  2  0  0  0  0  0  0  0  0  0
    0.3075   -3.4477    8.3055 C   0  0  1  0  0  0  0  0  0  0  0  0
   -0.1678   -2.5025    9.2515 O   0  0  0  0  0  0  0  0  0  0  0  0
    1.1149   -2.7342    7.1967 C   0  0  0  0  0  0  0  0  0  0  0  0
    2.3820   -3.1112    6.8847 C   0  0  0  0  0  0  0  0  0  0  0  0
    3.0820   -2.4495    5.7919 C   0  0  0  0  0  0  0  0  0  0  0  0
    2.5026   -1.5588    4.9811 C   0  0  0  0  0  0  0  0  0  0  0  0
    1.0459   -1.1435    5.0628 C   0  0  2  0  0  0  0  0  0  0  0  0
    0.3578   -1.8036    3.8356 C   0  0  0  0  0  0  0  0  0  0  0  0
    0.9881    0.4255    5.0615 C   0  0  1  0  0  0  0  0  0  0  0  0
    0.6205    1.1276    3.7371 C   0  0  0  0  0  0  0  0  0  0  0  0
    1.6897    1.1981    2.6519 C   0  0  0  0  0  0  0  0  0  0  0  0
   -0.4890    1.6368    3.5594 O   0  0  0  0  0  0  0  0  0  0  0  0
    0.0865    0.8206    6.2326 C   0  0  0  0  0  0  0  0  0  0  0  0
    0.3267   -0.2864    7.2524 C   0  0  0  0  0  0  0  0  0  0  0  0
    0.3885   -1.5903    6.4320 C   0  0  2  0  0  0  0  0  0  0  0  0
   -0.9701   -1.9425    6.2012 O   0  0  0  0  0  0  0  0  0  0  0  0
    3.0062   -4.2519    7.5670 C   0  0  0  0  0  0  0  0  0  0  0  0
    4.3509   -4.4067    7.5922 C   0  0  0  0  0  0  0  0  0  0  0  0
    5.0518   -5.6566    8.0956 C   0  0  0  0  0  0  0  0  0  0  0  0
    4.0792   -6.8596    8.1849 C   0  0  1  0  0  0  0  0  0  0  0  0
    2.8962   -6.3418    9.0187 C   0  0  0  0  0  0  0  0  0  0  0  0
    2.0929   -5.3330    8.1628 C   0  0  1  0  0  0  0  0  0  0  0  0
    1.4226   -6.1476    7.0105 C   0  0  0  0  0  0  0  0  0  0  0  0
    2.0765   -7.5358    6.6589 C   0  0  1  0  0  0  0  0  0  0  0  0
    1.4732   -8.2748    5.3871 C   0  0  1  0  0  0  0  0  0  0  0  0
   -0.0411   -8.4493    5.6901 C   0  0  0  0  0  0  0  0  0  0  0  0
    1.5644   -7.4114    4.1231 C   0  0  0  0  0  0  0  0  0  0  0  0
    2.0105   -7.8059    2.9188 C   0  0  0  0  0  0  0  0  0  0  0  0
    2.4280   -9.1846    2.6698 C   0  0  0  0  0  0  0  0  0  0  0  0
    3.0899   -9.4752    1.6763 O   0  0  0  0  0  0  0  0  0  0  0  0
    1.9682  -10.2708    3.6644 C   0  0  0  0  0  0  0  0  0  0  0  0
    0.5055  -10.6305    3.3015 C   0  0  0  0  0  0  0  0  0  0  0  0
    2.7871  -11.5795    3.4568 C   0  0  0  0  0  0  0  0  0  0  0  0
    2.1179   -9.7114    5.1459 C   0  0  1  0  0  0  0  0  0  0  0  0
    3.6064   -9.8195    5.5990 C   0  0  0  0  0  0  0  0  0  0  0  0
    4.0255   -9.0445    6.8557 C   0  0  1  0  0  0  0  0  0  0  0  0
    5.4269   -9.2088    7.0010 O   0  0  0  0  0  0  0  0  0  0  0  0
    3.6396   -7.5409    6.8078 C   0  0  2  0  0  0  0  0  0  0  0  0
    4.3263   -6.8780    5.5769 C   0  0  0  0  0  0  0  0  0  0  0  0
   -0.9802   -5.9521   11.2977 H   0  0  0  0  0  0  0  0  0  0  0  0
   -1.1831   -4.3283   10.6723 H   0  0  0  0  0  0  0  0  0  0  0  0
    0.2717   -4.7497   11.5967 H   0  0  0  0  0  0  0  0  0  0  0  0
    1.6698   -4.1033    9.8630 H   0  0  0  0  0  0  0  0  0  0  0  0
   -0.5539   -3.9125    7.8271 H   0  0  0  0  0  0  0  0  0  0  0  0
    0.5574   -2.2331    9.8019 H   0  0  0  0  0  0  0  0  0  0  0  0
    4.1152   -2.6852    5.5869 H   0  0  0  0  0  0  0  0  0  0  0  0
    3.0817   -1.1157    4.1832 H   0  0  0  0  0  0  0  0  0  0  0  0
   -0.6626   -1.4481    3.7044 H   0  0  0  0  0  0  0  0  0  0  0  0
    0.3388   -2.8897    3.9299 H   0  0  0  0  0  0  0  0  0  0  0  0
    0.8869   -1.5882    2.9085 H   0  0  0  0  0  0  0  0  0  0  0  0
    1.9822    0.7936    5.3192 H   0  0  0  0  0  0  0  0  0  0  0  0
    2.5646    1.7407    3.0072 H   0  0  0  0  0  0  0  0  0  0  0  0
    1.3033    1.7064    1.7688 H   0  0  0  0  0  0  0  0  0  0  0  0
    2.0043    0.2007    2.3557 H   0  0  0  0  0  0  0  0  0  0  0  0
    0.3414    1.8040    6.6343 H   0  0  0  0  0  0  0  0  0  0  0  0
   -0.9685    0.8396    5.9438 H   0  0  0  0  0  0  0  0  0  0  0  0
    1.2862   -0.1132    7.7445 H   0  0  0  0  0  0  0  0  0  0  0  0
   -0.4440   -0.2807    8.0217 H   0  0  0  0  0  0  0  0  0  0  0  0
   -0.9711   -2.5951    5.5160 H   0  0  0  0  0  0  0  0  0  0  0  0
    5.0158   -3.6516    7.2058 H   0  0  0  0  0  0  0  0  0  0  0  0
    5.9210   -5.8734    7.4755 H   0  0  0  0  0  0  0  0  0  0  0  0
    5.4546   -5.4239    9.0809 H   0  0  0  0  0  0  0  0  0  0  0  0
    4.5892   -7.6012    8.7998 H   0  0  0  0  0  0  0  0  0  0  0  0
    2.2728   -7.1672    9.3612 H   0  0  0  0  0  0  0  0  0  0  0  0
    3.2683   -5.8684    9.9282 H   0  0  0  0  0  0  0  0  0  0  0  0
    0.3982   -6.3467    7.3132 H   0  0  0  0  0  0  0  0  0  0  0  0
    1.3378   -5.5215    6.1267 H   0  0  0  0  0  0  0  0  0  0  0  0
    1.7496   -8.1804    7.4780 H   0  0  0  0  0  0  0  0  0  0  0  0
   -0.2078   -8.9452    6.6483 H   0  0  0  0  0  0  0  0  0  0  0  0
   -0.5790   -9.0354    4.9535 H   0  0  0  0  0  0  0  0  0  0  0  0
   -0.5569   -7.4899    5.7093 H   0  0  0  0  0  0  0  0  0  0  0  0
    1.2340   -6.3898    4.2188 H   0  0  0  0  0  0  0  0  0  0  0  0
    2.0401   -7.1233    2.0818 H   0  0  0  0  0  0  0  0  0  0  0  0
    0.0071  -11.1505    4.1211 H   0  0  0  0  0  0  0  0  0  0  0  0
    0.4564  -11.2887    2.4326 H   0  0  0  0  0  0  0  0  0  0  0  0
   -0.0862   -9.7547    3.0314 H   0  0  0  0  0  0  0  0  0  0  0  0
    2.5485  -12.3176    4.2243 H   0  0  0  0  0  0  0  0  0  0  0  0
    3.8642  -11.4101    3.4779 H   0  0  0  0  0  0  0  0  0  0  0  0
    2.5896  -12.0390    2.4851 H   0  0  0  0  0  0  0  0  0  0  0  0
    1.5873  -10.4062    5.8038 H   0  0  0  0  0  0  0  0  0  0  0  0
    3.8176  -10.8687    5.8008 H   0  0  0  0  0  0  0  0  0  0  0  0
    4.2728   -9.5582    4.7796 H   0  0  0  0  0  0  0  0  0  0  0  0
    3.5645   -9.5167    7.7252 H   0  0  0  0  0  0  0  0  0  0  0  0
    5.6154  -10.1327    7.0931 H   0  0  0  0  0  0  0  0  0  0  0  0
    4.1244   -7.3906    4.6441 H   0  0  0  0  0  0  0  0  0  0  0  0
    5.4120   -6.8773    5.6528 H   0  0  0  0  0  0  0  0  0  0  0  0
    3.9964   -5.8545    5.4246 H   0  0  0  0  0  0  0  0  0  0  0  0
  1  2  1  0
  1 43  1  0
  1 44  1  0
  1 45  1  0
  2  3  1  0
  3 25  1  0
  3  4  1  0
  3 46  1  1
  4  5  1  0
  4  6  1  0
  4 47  1  6
  5 48  1  0
  6 18  1  0
  6  7  2  0
  7  8  1  0
  7 20  1  0
  8  9  2  0
  8 49  1  0
  9 10  1  0
  9 50  1  0
 10 18  1  0
 10 11  1  6
 10 12  1  0
 11 51  1  0
 11 52  1  0
 11 53  1  0
 12 13  1  0
 12 16  1  0
 12 54  1  1
 13 14  1  0
 13 15  2  0
 14 55  1  0
 14 56  1  0
 14 57  1  0
 16 17  1  0
 16 58  1  0
 16 59  1  0
 17 18  1  0
 17 60  1  0
 17 61  1  0
 18 19  1  6
 19 62  1  0
 20 25  1  0
 20 21  2  0
 21 22  1  0
 21 63  1  0
 22 23  1  0
 22 64  1  0
 22 65  1  0
 23 41  1  0
 23 24  1  0
 23 66  1  1
 24 25  1  0
 24 67  1  0
 24 68  1  0
 25 26  1  6
 26 27  1  0
 26 69  1  0
 26 70  1  0
 27 41  1  0
 27 28  1  0
 27 71  1  1
 28 37  1  0
 28 29  1  1
 28 30  1  0
 29 72  1  0
 29 73  1  0
 29 74  1  0
 30 31  2  0
 30 75  1  0
 31 32  1  0
 31 76  1  0
 32 33  2  0
 32 34  1  0
 34 35  1  0
 34 36  1  0
 34 37  1  0
 35 77  1  0
 35 78  1  0
 35 79  1  0
 36 80  1  0
 36 81  1  0
 36 82  1  0
 37 38  1  0
 37 83  1  1
 38 39  1  0
 38 84  1  0
 38 85  1  0
 39 40  1  0
 39 41  1  0
 39 86  1  1
 40 87  1  0
 41 42  1  6
 42 88  1  0
 42 89  1  0
 42 90  1  0
M  END
>  <i_m_ct_stereo_status>  (71) 
1

>  <s_m_source_file>  (71) 
/var/tmp/pbs.5076255.sched01/tmp4ovtozgc/0905bh7x9.sdf

>  <i_m_source_file_index>  (71) 
29

>  <i_lp_mmshare_version>  (71) 
48012

>  <i_f3d_flags>  (71) 
0

>  <s_epik_input>  (71) 
W0NIM11DKD1PKVtDQEBIXShbQ0gyXVtDSDJdMSlbQ0BAXShbQ0gzXSkoW0NIXT1bQ0hdMilbQ0BAXTEoW09IXSlDKFtDQEhdKFtPSF0pW0NASF0zT1tDSDNdKT1DMkMoW0NAXTM0NSk9W0NIXVtDSDJdW0NAQEhdKFtDSDJdNClbQ0BdNihbQ0gzXSlbQ0BASF0oW0NIMl01KVtDQF03KFtDSDNdKVtDQEhdKFtDSDJdW0NASF02W09IXSlDKFtDSDNdKShbQ0gzXSlDKD1PKVtDSF09W0NIXTc=

>  <s_epik_cmdline>  (71) 
J2VwaWtfcHl0aG9uJywgJy1waHQnLCAnMi4wJywgJy1waCcsICc3LjAnLCAnLXRuJywgJzgnLCAnLW1hJywgJzIwMCcsICctaW1hZScsICc8aW5maWxlLm1hZT4nLCAnLW9tYWUnLCAnPG91dGZpbGUubWFlPic=

>  <r_lp_tautomer_probability>  (71) 
1

>  <r_epik_Ionization_Penalty>  (71) 
3.69196e-06

>  <r_epik_Ionization_Penalty_Charging>  (71) 
0

>  <r_epik_Ionization_Penalty_Neutral>  (71) 
3.69196e-06

>  <r_epik_State_Penalty>  (71) 
-0

>  <r_epik_Charging_Adjusted_Penalty>  (71) 
0

>  <i_epik_Tot_Q>  (71) 
0

>  <i_epik_Tot_abs_Q>  (71) 
0

>  <s_lp_Force_Field>  (71) 
OPLS3e

>  <r_lp_Energy>  (71) 
93.891

>  <b_lp_Chiralities_Consistent>  (71) 
1

>  <s_lp_Variant>  (71) 
21:0-1

>  <s_i_glide_gridfile>  (71) 
pfpi4k_grid

>  <i_i_glide_lignum>  (71) 
29

>  <i_i_glide_rotatable_bonds>  (71) 
5

>  <r_i_docking_score>  (71) 
-2.24788

>  <r_i_glide_ligand_efficiency>  (71) 
-0.0535208

>  <r_i_glide_ligand_efficiency_sa>  (71) 
-0.18604

>  <r_i_glide_ligand_efficiency_ln>  (71) 
-0.474469

>  <r_i_glide_gscore>  (71) 
-2.24788

>  <r_i_glide_lipo>  (71) 
-0.0355393

>  <r_i_glide_hbond>  (71) 
0

>  <r_i_glide_metal>  (71) 
-0

>  <r_i_glide_rewards>  (71) 
0

>  <r_i_glide_evdw>  (71) 
-23.9191

>  <r_i_glide_ecoul>  (71) 
-6.65434

>  <r_i_glide_erotb>  (71) 
0

>  <r_i_glide_esite>  (71) 
-0.0182286

>  <r_i_glide_emodel>  (71) 
-34.6824

>  <r_i_glide_energy>  (71) 
-30.5735

>  <r_i_glide_einternal>  (71) 
0.414134

>  <r_i_glide_intrahb_reward>  (71) 
-0

>  <i_i_glide_confnum>  (71) 
1

>  <i_i_glide_posenum>  (71) 
33

>  <r_i_glide_eff_state_penalty>  (71) 
0

>  <ligand_id>  (71) 
21

>  <original_smiles>  (71) 
COC1C(O)C2=C(C=CC3(C)C(C(C)=O)CCC23O)C2=CCC3CC21CC1C2(C)C=CC(=O)C(C)(C)C2CC(O)C31C

>  <smiles>  (71) 
[H]OC1([H])C2=C(C([H])=C([H])C3(C([H])([H])[H])C([H])(C(=O)C([H])([H])[H])C([H])([H])C([H])([H])C23O[H])C2=C([H])C([H])([H])C3([H])C([H])([H])C2(C([H])([H])C2([H])C4(C([H])([H])[H])C([H])=C([H])C(=O)C(C([H])([H])[H])(C([H])([H])[H])C4([H])C([H])([H])C([H])(O[H])C32C([H])([H])[H])C1([H])OC([H])([H])[H]

$$$$
21:0:2
     RDKit          3D

 90 96  0  0  1  0  0  0  0  0999 V2000
    7.8885   -6.2401    2.6274 C   0  0  0  0  0  0  0  0  0  0  0  0
    6.9986   -5.4629    3.4161 O   0  0  0  0  0  0  0  0  0  0  0  0
    6.0344   -6.1765    4.1796 C   0  0  2  0  0  0  0  0  0  0  0  0
    4.8193   -6.5781    3.2972 C   0  0  1  0  0  0  0  0  0  0  0  0
    5.1629   -7.7257    2.5444 O   0  0  0  0  0  0  0  0  0  0  0  0
    3.5121   -6.8296    4.0740 C   0  0  0  0  0  0  0  0  0  0  0  0
    3.4253   -6.6379    5.4166 C   0  0  0  0  0  0  0  0  0  0  0  0
    2.1577   -6.8384    6.0964 C   0  0  0  0  0  0  0  0  0  0  0  0
    1.0131   -7.0873    5.4495 C   0  0  0  0  0  0  0  0  0  0  0  0
    0.8841   -7.1572    3.9422 C   0  0  2  0  0  0  0  0  0  0  0  0
    0.1715   -5.8503    3.5337 C   0  0  0  0  0  0  0  0  0  0  0  0
    0.1041   -8.4704    3.5828 C   0  0  1  0  0  0  0  0  0  0  0  0
   -1.3933   -8.3685    3.2079 C   0  0  0  0  0  0  0  0  0  0  0  0
   -1.9177   -9.2425    2.0773 C   0  0  0  0  0  0  0  0  0  0  0  0
   -2.1696   -7.6273    3.8150 O   0  0  0  0  0  0  0  0  0  0  0  0
    0.9470   -9.1701    2.5226 C   0  0  0  0  0  0  0  0  0  0  0  0
    2.3755   -8.7796    2.8533 C   0  0  0  0  0  0  0  0  0  0  0  0
    2.2885   -7.2907    3.2367 C   0  0  2  0  0  0  0  0  0  0  0  0
    2.2544   -6.5944    1.9970 O   0  0  0  0  0  0  0  0  0  0  0  0
    4.5853   -6.1284    6.1591 C   0  0  0  0  0  0  0  0  0  0  0  0
    4.6914   -6.3028    7.4978 C   0  0  0  0  0  0  0  0  0  0  0  0
    5.7476   -5.6322    8.3565 C   0  0  0  0  0  0  0  0  0  0  0  0
    6.4063   -4.4392    7.6223 C   0  0  1  0  0  0  0  0  0  0  0  0
    6.8723   -5.0214    6.2780 C   0  0  0  0  0  0  0  0  0  0  0  0
    5.6291   -5.3023    5.4011 C   0  0  1  0  0  0  0  0  0  0  0  0
    5.0194   -3.9105    5.0274 C   0  0  0  0  0  0  0  0  0  0  0  0
    5.3915   -2.7030    5.9684 C   0  0  1  0  0  0  0  0  0  0  0  0
    4.6473   -1.3342    5.6564 C   0  0  1  0  0  0  0  0  0  0  0  0
    4.9785   -0.9945    4.1741 C   0  0  0  0  0  0  0  0  0  0  0  0
    3.1230   -1.4854    5.7294 C   0  0  0  0  0  0  0  0  0  0  0  0
    2.2694   -0.6729    6.3773 C   0  0  0  0  0  0  0  0  0  0  0  0
    2.7384    0.5314    7.0653 C   0  0  0  0  0  0  0  0  0  0  0  0
    2.0305    1.1270    7.8813 O   0  0  0  0  0  0  0  0  0  0  0  0
    4.1333    1.0772    6.7046 C   0  0  0  0  0  0  0  0  0  0  0  0
    3.9781    1.8782    5.3883 C   0  0  0  0  0  0  0  0  0  0  0  0
    4.5944    2.1167    7.7695 C   0  0  0  0  0  0  0  0  0  0  0  0
    5.1476   -0.1378    6.5831 C   0  0  1  0  0  0  0  0  0  0  0  0
    5.5960   -0.5881    8.0079 C   0  0  0  0  0  0  0  0  0  0  0  0
    6.3143   -1.9381    8.1335 C   0  0  1  0  0  0  0  0  0  0  0  0
    6.5502   -2.1633    9.5098 O   0  0  0  0  0  0  0  0  0  0  0  0
    5.5366   -3.1095    7.4786 C   0  0  2  0  0  0  0  0  0  0  0  0
    4.1418   -3.2354    8.1612 C   0  0  0  0  0  0  0  0  0  0  0  0
    8.6669   -5.5945    2.2216 H   0  0  0  0  0  0  0  0  0  0  0  0
    7.3832   -6.7047    1.7800 H   0  0  0  0  0  0  0  0  0  0  0  0
    8.3827   -7.0176    3.2141 H   0  0  0  0  0  0  0  0  0  0  0  0
    6.4947   -7.0852    4.5777 H   0  0  0  0  0  0  0  0  0  0  0  0
    4.6307   -5.7586    2.6014 H   0  0  0  0  0  0  0  0  0  0  0  0
    5.3548   -8.4367    3.1442 H   0  0  0  0  0  0  0  0  0  0  0  0
    2.1000   -6.7670    7.1720 H   0  0  0  0  0  0  0  0  0  0  0  0
    0.0996   -7.2154    6.0079 H   0  0  0  0  0  0  0  0  0  0  0  0
   -0.1307   -5.8756    2.4873 H   0  0  0  0  0  0  0  0  0  0  0  0
    0.7988   -4.9703    3.6890 H   0  0  0  0  0  0  0  0  0  0  0  0
   -0.7168   -5.6971    4.1409 H   0  0  0  0  0  0  0  0  0  0  0  0
    0.1252   -9.1177    4.4586 H   0  0  0  0  0  0  0  0  0  0  0  0
   -1.4179   -9.0131    1.1405 H   0  0  0  0  0  0  0  0  0  0  0  0
   -2.9848   -9.0745    1.9282 H   0  0  0  0  0  0  0  0  0  0  0  0
   -1.7680  -10.2853    2.3300 H   0  0  0  0  0  0  0  0  0  0  0  0
    0.8097  -10.2540    2.5150 H   0  0  0  0  0  0  0  0  0  0  0  0
    0.7201   -8.7660    1.5374 H   0  0  0  0  0  0  0  0  0  0  0  0
    2.7292   -9.3753    3.6980 H   0  0  0  0  0  0  0  0  0  0  0  0
    3.0260   -8.9815    1.9985 H   0  0  0  0  0  0  0  0  0  0  0  0
    3.0297   -6.8368    1.5107 H   0  0  0  0  0  0  0  0  0  0  0  0
    3.9899   -6.9099    8.0468 H   0  0  0  0  0  0  0  0  0  0  0  0
    5.3167   -5.3448    9.3140 H   0  0  0  0  0  0  0  0  0  0  0  0
    6.4958   -6.3897    8.5906 H   0  0  0  0  0  0  0  0  0  0  0  0
    7.3105   -4.2108    8.1858 H   0  0  0  0  0  0  0  0  0  0  0  0
    7.5696   -4.3476    5.7846 H   0  0  0  0  0  0  0  0  0  0  0  0
    7.4370   -5.9394    6.4518 H   0  0  0  0  0  0  0  0  0  0  0  0
    5.3808   -3.6619    4.0345 H   0  0  0  0  0  0  0  0  0  0  0  0
    3.9404   -4.0018    4.9205 H   0  0  0  0  0  0  0  0  0  0  0  0
    6.4197   -2.4787    5.6803 H   0  0  0  0  0  0  0  0  0  0  0  0
    6.0506   -0.9678    3.9790 H   0  0  0  0  0  0  0  0  0  0  0  0
    4.6032   -0.0341    3.8422 H   0  0  0  0  0  0  0  0  0  0  0  0
    4.5389   -1.7207    3.4892 H   0  0  0  0  0  0  0  0  0  0  0  0
    2.7076   -2.3253    5.1948 H   0  0  0  0  0  0  0  0  0  0  0  0
    1.2071   -0.8585    6.3627 H   0  0  0  0  0  0  0  0  0  0  0  0
    4.9432    2.0352    4.9029 H   0  0  0  0  0  0  0  0  0  0  0  0
    3.5375    2.8638    5.5643 H   0  0  0  0  0  0  0  0  0  0  0  0
    3.3070    1.3895    4.6797 H   0  0  0  0  0  0  0  0  0  0  0  0
    5.6196    2.4450    7.5903 H   0  0  0  0  0  0  0  0  0  0  0  0
    4.5351    1.7276    8.7865 H   0  0  0  0  0  0  0  0  0  0  0  0
    3.9617    3.0071    7.7624 H   0  0  0  0  0  0  0  0  0  0  0  0
    6.0591    0.2549    6.1206 H   0  0  0  0  0  0  0  0  0  0  0  0
    6.2893    0.1574    8.3914 H   0  0  0  0  0  0  0  0  0  0  0  0
    4.7532   -0.5569    8.7000 H   0  0  0  0  0  0  0  0  0  0  0  0
    7.2988   -1.8487    7.6703 H   0  0  0  0  0  0  0  0  0  0  0  0
    5.7103   -2.2455    9.9429 H   0  0  0  0  0  0  0  0  0  0  0  0
    3.5789   -2.3100    8.1616 H   0  0  0  0  0  0  0  0  0  0  0  0
    4.2093   -3.5147    9.2102 H   0  0  0  0  0  0  0  0  0  0  0  0
    3.5086   -3.9604    7.6583 H   0  0  0  0  0  0  0  0  0  0  0  0
  1  2  1  0
  1 43  1  0
  1 44  1  0
  1 45  1  0
  2  3  1  0
  3 25  1  0
  3  4  1  0
  3 46  1  1
  4  5  1  0
  4  6  1  0
  4 47  1  6
  5 48  1  0
  6 18  1  0
  6  7  2  0
  7  8  1  0
  7 20  1  0
  8  9  2  0
  8 49  1  0
  9 10  1  0
  9 50  1  0
 10 18  1  0
 10 11  1  6
 10 12  1  0
 11 51  1  0
 11 52  1  0
 11 53  1  0
 12 13  1  0
 12 16  1  0
 12 54  1  1
 13 14  1  0
 13 15  2  0
 14 55  1  0
 14 56  1  0
 14 57  1  0
 16 17  1  0
 16 58  1  0
 16 59  1  0
 17 18  1  0
 17 60  1  0
 17 61  1  0
 18 19  1  6
 19 62  1  0
 20 25  1  0
 20 21  2  0
 21 22  1  0
 21 63  1  0
 22 23  1  0
 22 64  1  0
 22 65  1  0
 23 41  1  0
 23 24  1  0
 23 66  1  1
 24 25  1  0
 24 67  1  0
 24 68  1  0
 25 26  1  6
 26 27  1  0
 26 69  1  0
 26 70  1  0
 27 41  1  0
 27 28  1  0
 27 71  1  6
 28 37  1  0
 28 29  1  6
 28 30  1  0
 29 72  1  0
 29 73  1  0
 29 74  1  0
 30 31  2  0
 30 75  1  0
 31 32  1  0
 31 76  1  0
 32 33  2  0
 32 34  1  0
 34 35  1  0
 34 36  1  0
 34 37  1  0
 35 77  1  0
 35 78  1  0
 35 79  1  0
 36 80  1  0
 36 81  1  0
 36 82  1  0
 37 38  1  0
 37 83  1  6
 38 39  1  0
 38 84  1  0
 38 85  1  0
 39 40  1  0
 39 41  1  0
 39 86  1  6
 40 87  1  0
 41 42  1  1
 42 88  1  0
 42 89  1  0
 42 90  1  0
M  END
>  <i_m_ct_stereo_status>  (72) 
1

>  <s_m_source_file>  (72) 
/var/tmp/pbs.5076255.sched01/tmp4ovtozgc/0905bh7x9.sdf

>  <i_m_source_file_index>  (72) 
29

>  <i_lp_mmshare_version>  (72) 
48012

>  <i_f3d_flags>  (72) 
0

>  <s_epik_input>  (72) 
W0NIM11DKD1PKVtDQEBIXShbQ0gyXVtDSDJdMSlbQ0BAXShbQ0gzXSkoW0NIXT1bQ0hdMilbQ0BAXTEoW09IXSlDKFtDQEhdKFtPSF0pW0NASF0zT1tDSDNdKT1DMkMoW0NAXTM0NSk9W0NIXVtDSDJdW0NAQEhdKFtDSDJdNClbQ0BdNihbQ0gzXSlbQ0BASF0oW0NIMl01KVtDQF03KFtDSDNdKVtDQEhdKFtDSDJdW0NASF02W09IXSlDKFtDSDNdKShbQ0gzXSlDKD1PKVtDSF09W0NIXTc=

>  <s_epik_cmdline>  (72) 
J2VwaWtfcHl0aG9uJywgJy1waHQnLCAnMi4wJywgJy1waCcsICc3LjAnLCAnLXRuJywgJzgnLCAnLW1hJywgJzIwMCcsICctaW1hZScsICc8aW5maWxlLm1hZT4nLCAnLW9tYWUnLCAnPG91dGZpbGUubWFlPic=

>  <r_lp_tautomer_probability>  (72) 
1

>  <r_epik_Ionization_Penalty>  (72) 
3.69196e-06

>  <r_epik_Ionization_Penalty_Charging>  (72) 
0

>  <r_epik_Ionization_Penalty_Neutral>  (72) 
3.69196e-06

>  <r_epik_State_Penalty>  (72) 
-0

>  <r_epik_Charging_Adjusted_Penalty>  (72) 
0

>  <i_epik_Tot_Q>  (72) 
0

>  <i_epik_Tot_abs_Q>  (72) 
0

>  <s_lp_Force_Field>  (72) 
OPLS3e

>  <r_lp_Energy>  (72) 
93.891

>  <b_lp_Chiralities_Consistent>  (72) 
1

>  <s_lp_Variant>  (72) 
21:0-1

>  <s_i_glide_gridfile>  (72) 
pfpi4k_grid

>  <i_i_glide_lignum>  (72) 
29

>  <i_i_glide_rotatable_bonds>  (72) 
5

>  <r_i_docking_score>  (72) 
-1.71799

>  <r_i_glide_ligand_efficiency>  (72) 
-0.0409046

>  <r_i_glide_ligand_efficiency_sa>  (72) 
-0.142186

>  <r_i_glide_ligand_efficiency_ln>  (72) 
-0.362624

>  <r_i_glide_gscore>  (72) 
-1.71799

>  <r_i_glide_lipo>  (72) 
-0.345377

>  <r_i_glide_hbond>  (72) 
0

>  <r_i_glide_metal>  (72) 
-0

>  <r_i_glide_rewards>  (72) 
0

>  <r_i_glide_evdw>  (72) 
-19.9282

>  <r_i_glide_ecoul>  (72) 
-2.14024

>  <r_i_glide_erotb>  (72) 
0

>  <r_i_glide_esite>  (72) 
-0.055174

>  <r_i_glide_emodel>  (72) 
-24.0519

>  <r_i_glide_energy>  (72) 
-22.0684

>  <r_i_glide_einternal>  (72) 
2.36452

>  <r_i_glide_intrahb_reward>  (72) 
-0

>  <i_i_glide_confnum>  (72) 
1

>  <i_i_glide_posenum>  (72) 
32

>  <r_i_glide_eff_state_penalty>  (72) 
0

>  <ligand_id>  (72) 
21

>  <original_smiles>  (72) 
COC1C(O)C2=C(C=CC3(C)C(C(C)=O)CCC23O)C2=CCC3CC21CC1C2(C)C=CC(=O)C(C)(C)C2CC(O)C31C

>  <smiles>  (72) 
[H]OC1([H])C2=C(C([H])=C([H])C3(C([H])([H])[H])C([H])(C(=O)C([H])([H])[H])C([H])([H])C([H])([H])C23O[H])C2=C([H])C([H])([H])C3([H])C([H])([H])C2(C([H])([H])C2([H])C4(C([H])([H])[H])C([H])=C([H])C(=O)C(C([H])([H])[H])(C([H])([H])[H])C4([H])C([H])([H])C([H])(O[H])C32C([H])([H])[H])C1([H])OC([H])([H])[H]

$$$$
22:0:0
     RDKit          3D

 22 24  0  0  1  0  0  0  0  0999 V2000
    3.2300   -9.4340    1.5990 N   0  0  0  0  0  0  0  0  0  0  0  0
    2.0692   -9.1367    2.0700 C   0  0  0  0  0  0  0  0  0  0  0  0
    0.9488  -10.2444    2.9383 S   0  0  0  0  0  0  0  0  0  0  0  0
   -0.3176   -9.0031    3.1148 C   0  0  0  0  0  0  0  0  0  0  0  0
    0.2333   -7.7462    2.4627 C   0  0  0  0  0  0  0  0  0  0  0  0
   -0.4510   -6.7177    2.4712 O   0  0  0  0  0  0  0  0  0  0  0  0
    1.4801   -7.8602    1.9365 N   0  0  0  0  0  0  0  0  0  0  0  0
    2.1133   -6.7412    1.2825 C   0  0  0  0  0  0  0  0  0  0  0  0
    1.4156   -5.8762    0.4820 N   0  0  0  0  0  0  0  0  0  0  0  0
    2.3449   -5.0101    0.0845 C   0  0  0  0  0  0  0  0  0  0  0  0
    2.2327   -3.9133   -0.6886 N   0  0  0  0  0  0  0  0  0  0  0  0
    3.3485   -3.2219   -0.9084 C   0  0  0  0  0  0  0  0  0  0  0  0
    4.6212   -3.5733   -0.3750 C   0  0  0  0  0  0  0  0  0  0  0  0
    4.7156   -4.6906    0.4276 C   0  0  0  0  0  0  0  0  0  0  0  0
    3.5729   -5.3855    0.6557 N   0  0  0  0  0  0  0  0  0  0  0  0
    3.4102   -6.4748    1.4374 N   0  0  0  0  0  0  0  0  0  0  0  0
    3.4585  -10.4094    1.7586 H   0  0  0  0  0  0  0  0  0  0  0  0
   -0.5066   -8.8121    4.1705 H   0  0  0  0  0  0  0  0  0  0  0  0
   -1.2333   -9.3131    2.6172 H   0  0  0  0  0  0  0  0  0  0  0  0
    3.2430   -2.3449   -1.5411 H   0  0  0  0  0  0  0  0  0  0  0  0
    5.5046   -2.9730   -0.5881 H   0  0  0  0  0  0  0  0  0  0  0  0
    5.6237   -5.0524    0.9004 H   0  0  0  0  0  0  0  0  0  0  0  0
  1  2  2  0
  1 17  1  0
  2  3  1  0
  2  7  1  0
  3  4  1  0
  4  5  1  0
  4 18  1  0
  4 19  1  0
  5  7  1  0
  5  6  2  0
  7  8  1  0
  8 16  2  0
  8  9  1  0
  9 10  2  0
 10 15  1  0
 10 11  1  0
 11 12  2  0
 12 13  1  0
 12 20  1  0
 13 14  2  0
 13 21  1  0
 14 15  1  0
 14 22  1  0
 15 16  1  0
M  END
>  <i_m_ct_stereo_status>  (73) 
1

>  <s_m_source_file>  (73) 
/var/tmp/pbs.5076255.sched01/tmp4ovtozgc/0905bh7x9.sdf

>  <i_m_source_file_index>  (73) 
30

>  <i_lp_mmshare_version>  (73) 
48012

>  <i_f3d_flags>  (73) 
0

>  <s_epik_input>  (73) 
W0hdL049YzFcc1tjSF1jKFtPSF0pbjEtYyhuMilubihjMjMpW2NIXVtjSF1bY0hdbjM=

>  <s_epik_cmdline>  (73) 
J2VwaWtfcHl0aG9uJywgJy1waHQnLCAnMi4wJywgJy1waCcsICc3LjAnLCAnLXRuJywgJzgnLCAnLW1hJywgJzIwMCcsICctaW1hZScsICc8aW5maWxlLm1hZT4nLCAnLW9tYWUnLCAnPG91dGZpbGUubWFlPic=

>  <r_lp_tautomer_probability>  (73) 
0.5

>  <r_epik_Ionization_Penalty>  (73) 
0.00133663

>  <r_epik_Ionization_Penalty_Charging>  (73) 
0

>  <r_epik_Ionization_Penalty_Neutral>  (73) 
0.00133663

>  <r_epik_State_Penalty>  (73) 
0.411124

>  <r_epik_Charging_Adjusted_Penalty>  (73) 
0.411124

>  <i_epik_Tot_Q>  (73) 
0

>  <i_epik_Tot_abs_Q>  (73) 
0

>  <s_epik_Chemistry_Notes>  (73) 
This compound has an imine and may undergo hydrolysis.

>  <s_lp_Force_Field>  (73) 
OPLS3e

>  <r_lp_Energy>  (73) 
16.6296

>  <b_lp_Chiralities_Consistent>  (73) 
1

>  <s_lp_Variant>  (73) 
22:0-1

>  <s_i_glide_gridfile>  (73) 
pfpi4k_grid

>  <i_i_glide_lignum>  (73) 
30

>  <i_i_glide_rotatable_bonds>  (73) 
1

>  <r_i_docking_score>  (73) 
-4.86195

>  <r_i_glide_ligand_efficiency>  (73) 
-0.303872

>  <r_i_glide_ligand_efficiency_sa>  (73) 
-0.765708

>  <r_i_glide_ligand_efficiency_ln>  (73) 
-1.28876

>  <r_i_glide_gscore>  (73) 
-4.86195

>  <r_i_glide_lipo>  (73) 
-0.257953

>  <r_i_glide_hbond>  (73) 
-0.345439

>  <r_i_glide_metal>  (73) 
-0

>  <r_i_glide_rewards>  (73) 
-1.89034

>  <r_i_glide_evdw>  (73) 
-22.9576

>  <r_i_glide_ecoul>  (73) 
-9.06742

>  <r_i_glide_erotb>  (73) 
0.312932

>  <r_i_glide_esite>  (73) 
-0.173158

>  <r_i_glide_emodel>  (73) 
-42.7208

>  <r_i_glide_energy>  (73) 
-32.025

>  <r_i_glide_einternal>  (73) 
0.532768

>  <r_i_glide_intrahb_reward>  (73) 
-0

>  <i_i_glide_confnum>  (73) 
6

>  <i_i_glide_posenum>  (73) 
22

>  <r_i_glide_eff_state_penalty>  (73) 
0

>  <ligand_id>  (73) 
22

>  <original_smiles>  (73) 
N=c1scc(O)n1-c1nc2ncccn2n1

>  <smiles>  (73) 
[H]N=C1SC([H])([H])C(=O)N1c1nc2nc([H])c([H])c([H])n2n1

$$$$
22:0:1
     RDKit          3D

 22 24  0  0  1  0  0  0  0  0999 V2000
   -1.3801    4.1404    4.0356 N   0  0  0  0  0  0  0  0  0  0  0  0
   -1.2565    2.8573    4.0792 C   0  0  0  0  0  0  0  0  0  0  0  0
   -0.8603    1.7477    2.7019 S   0  0  0  0  0  0  0  0  0  0  0  0
   -0.9582    0.2904    3.6967 C   0  0  0  0  0  0  0  0  0  0  0  0
   -1.2883    0.7503    5.0961 C   0  0  0  0  0  0  0  0  0  0  0  0
   -1.3972   -0.1060    5.9775 O   0  0  0  0  0  0  0  0  0  0  0  0
   -1.4379    2.0971    5.2567 N   0  0  0  0  0  0  0  0  0  0  0  0
   -1.7317    2.6621    6.5627 C   0  0  0  0  0  0  0  0  0  0  0  0
   -2.5948    2.0551    7.4374 N   0  0  0  0  0  0  0  0  0  0  0  0
   -2.5662    2.8608    8.4981 C   0  0  0  0  0  0  0  0  0  0  0  0
   -3.2016    2.7475    9.6670 N   0  0  0  0  0  0  0  0  0  0  0  0
   -2.9751    3.7231   10.5475 C   0  0  0  0  0  0  0  0  0  0  0  0
   -2.1561    4.8505   10.2934 C   0  0  0  0  0  0  0  0  0  0  0  0
   -1.5049    4.9438    9.0859 C   0  0  0  0  0  0  0  0  0  0  0  0
   -1.7101    3.9308    8.2069 N   0  0  0  0  0  0  0  0  0  0  0  0
   -1.1589    3.7942    6.9816 N   0  0  0  0  0  0  0  0  0  0  0  0
   -1.1311    4.4404    3.1022 H   0  0  0  0  0  0  0  0  0  0  0  0
   -0.0067   -0.2399    3.6822 H   0  0  0  0  0  0  0  0  0  0  0  0
   -1.7768   -0.3267    3.3400 H   0  0  0  0  0  0  0  0  0  0  0  0
   -3.5026    3.6246   11.4900 H   0  0  0  0  0  0  0  0  0  0  0  0
   -2.0377    5.6299   11.0434 H   0  0  0  0  0  0  0  0  0  0  0  0
   -0.8421    5.7457    8.7835 H   0  0  0  0  0  0  0  0  0  0  0  0
  1  2  2  0
  1 17  1  0
  2  3  1  0
  2  7  1  0
  3  4  1  0
  4  5  1  0
  4 18  1  0
  4 19  1  0
  5  7  1  0
  5  6  2  0
  7  8  1  0
  8 16  2  0
  8  9  1  0
  9 10  2  0
 10 15  1  0
 10 11  1  0
 11 12  2  0
 12 13  1  0
 12 20  1  0
 13 14  2  0
 13 21  1  0
 14 15  1  0
 14 22  1  0
 15 16  1  0
M  END
>  <i_m_ct_stereo_status>  (74) 
1

>  <s_m_source_file>  (74) 
/var/tmp/pbs.5076255.sched01/tmp4ovtozgc/0905bh7x9.sdf

>  <i_m_source_file_index>  (74) 
30

>  <i_lp_mmshare_version>  (74) 
48012

>  <i_f3d_flags>  (74) 
0

>  <s_epik_input>  (74) 
W0hdL049YzFcc1tjSF1jKFtPSF0pbjEtYyhuMilubihjMjMpW2NIXVtjSF1bY0hdbjM=

>  <s_epik_cmdline>  (74) 
J2VwaWtfcHl0aG9uJywgJy1waHQnLCAnMi4wJywgJy1waCcsICc3LjAnLCAnLXRuJywgJzgnLCAnLW1hJywgJzIwMCcsICctaW1hZScsICc8aW5maWxlLm1hZT4nLCAnLW9tYWUnLCAnPG91dGZpbGUubWFlPic=

>  <r_lp_tautomer_probability>  (74) 
0.5

>  <r_epik_Ionization_Penalty>  (74) 
0.00133663

>  <r_epik_Ionization_Penalty_Charging>  (74) 
0

>  <r_epik_Ionization_Penalty_Neutral>  (74) 
0.00133663

>  <r_epik_State_Penalty>  (74) 
0.411124

>  <r_epik_Charging_Adjusted_Penalty>  (74) 
0.411124

>  <i_epik_Tot_Q>  (74) 
0

>  <i_epik_Tot_abs_Q>  (74) 
0

>  <s_epik_Chemistry_Notes>  (74) 
This compound has an imine and may undergo hydrolysis.

>  <s_lp_Force_Field>  (74) 
OPLS3e

>  <r_lp_Energy>  (74) 
16.6296

>  <b_lp_Chiralities_Consistent>  (74) 
1

>  <s_lp_Variant>  (74) 
22:0-1

>  <s_i_glide_gridfile>  (74) 
pfpi4k_grid

>  <i_i_glide_lignum>  (74) 
30

>  <i_i_glide_rotatable_bonds>  (74) 
1

>  <r_i_docking_score>  (74) 
-4.04168

>  <r_i_glide_ligand_efficiency>  (74) 
-0.252605

>  <r_i_glide_ligand_efficiency_sa>  (74) 
-0.636525

>  <r_i_glide_ligand_efficiency_ln>  (74) 
-1.07133

>  <r_i_glide_gscore>  (74) 
-4.04168

>  <r_i_glide_lipo>  (74) 
0

>  <r_i_glide_hbond>  (74) 
-0.0666559

>  <r_i_glide_metal>  (74) 
-0

>  <r_i_glide_rewards>  (74) 
-1.93577

>  <r_i_glide_evdw>  (74) 
-21.9854

>  <r_i_glide_ecoul>  (74) 
-7.84567

>  <r_i_glide_erotb>  (74) 
0.312932

>  <r_i_glide_esite>  (74) 
-0.076071

>  <r_i_glide_emodel>  (74) 
-38.5675

>  <r_i_glide_energy>  (74) 
-29.831

>  <r_i_glide_einternal>  (74) 
0.672552

>  <r_i_glide_intrahb_reward>  (74) 
-0

>  <i_i_glide_confnum>  (74) 
5

>  <i_i_glide_posenum>  (74) 
24

>  <r_i_glide_eff_state_penalty>  (74) 
0

>  <ligand_id>  (74) 
22

>  <original_smiles>  (74) 
N=c1scc(O)n1-c1nc2ncccn2n1

>  <smiles>  (74) 
[H]N=C1SC([H])([H])C(=O)N1c1nc2nc([H])c([H])c([H])n2n1

$$$$
22:0:2
     RDKit          3D

 22 24  0  0  1  0  0  0  0  0999 V2000
   -1.3564    4.1232    4.0798 N   0  0  0  0  0  0  0  0  0  0  0  0
   -1.2471    2.8427    4.2063 C   0  0  0  0  0  0  0  0  0  0  0  0
   -0.9540    1.6542    2.8756 S   0  0  0  0  0  0  0  0  0  0  0  0
   -0.9977    0.2515    3.9618 C   0  0  0  0  0  0  0  0  0  0  0  0
   -1.2343    0.8053    5.3459 C   0  0  0  0  0  0  0  0  0  0  0  0
   -1.2939   -0.0003    6.2762 O   0  0  0  0  0  0  0  0  0  0  0  0
   -1.3642    2.1618    5.4419 N   0  0  0  0  0  0  0  0  0  0  0  0
   -1.5915    2.8109    6.7283 C   0  0  0  0  0  0  0  0  0  0  0  0
   -1.0361    4.0265    7.0431 N   0  0  0  0  0  0  0  0  0  0  0  0
   -1.4722    4.2525    8.2829 C   0  0  0  0  0  0  0  0  0  0  0  0
   -1.2789    5.3105    9.0738 N   0  0  0  0  0  0  0  0  0  0  0  0
   -1.8275    5.2347   10.2877 C   0  0  0  0  0  0  0  0  0  0  0  0
   -2.5717    4.1222   10.7538 C   0  0  0  0  0  0  0  0  0  0  0  0
   -2.7798    3.0528    9.9240 C   0  0  0  0  0  0  0  0  0  0  0  0
   -2.2357    3.1411    8.6799 N   0  0  0  0  0  0  0  0  0  0  0  0
   -2.3392    2.2413    7.6807 N   0  0  0  0  0  0  0  0  0  0  0  0
   -1.1553    4.3608    3.1165 H   0  0  0  0  0  0  0  0  0  0  0  0
   -0.0508   -0.2875    3.9377 H   0  0  0  0  0  0  0  0  0  0  0  0
   -1.8304   -0.4033    3.7082 H   0  0  0  0  0  0  0  0  0  0  0  0
   -1.6662    6.0954   10.9249 H   0  0  0  0  0  0  0  0  0  0  0  0
   -2.9889    4.0934   11.7603 H   0  0  0  0  0  0  0  0  0  0  0  0
   -3.3348    2.1567   10.1872 H   0  0  0  0  0  0  0  0  0  0  0  0
  1  2  2  0
  1 17  1  0
  2  3  1  0
  2  7  1  0
  3  4  1  0
  4  5  1  0
  4 18  1  0
  4 19  1  0
  5  7  1  0
  5  6  2  0
  7  8  1  0
  8 16  2  0
  8  9  1  0
  9 10  2  0
 10 15  1  0
 10 11  1  0
 11 12  2  0
 12 13  1  0
 12 20  1  0
 13 14  2  0
 13 21  1  0
 14 15  1  0
 14 22  1  0
 15 16  1  0
M  END
>  <i_m_ct_stereo_status>  (75) 
1

>  <s_m_source_file>  (75) 
/var/tmp/pbs.5076255.sched01/tmp4ovtozgc/0905bh7x9.sdf

>  <i_m_source_file_index>  (75) 
30

>  <i_lp_mmshare_version>  (75) 
48012

>  <i_f3d_flags>  (75) 
0

>  <s_epik_input>  (75) 
W0hdL049YzFcc1tjSF1jKFtPSF0pbjEtYyhuMilubihjMjMpW2NIXVtjSF1bY0hdbjM=

>  <s_epik_cmdline>  (75) 
J2VwaWtfcHl0aG9uJywgJy1waHQnLCAnMi4wJywgJy1waCcsICc3LjAnLCAnLXRuJywgJzgnLCAnLW1hJywgJzIwMCcsICctaW1hZScsICc8aW5maWxlLm1hZT4nLCAnLW9tYWUnLCAnPG91dGZpbGUubWFlPic=

>  <r_lp_tautomer_probability>  (75) 
0.5

>  <r_epik_Ionization_Penalty>  (75) 
0.00133663

>  <r_epik_Ionization_Penalty_Charging>  (75) 
0

>  <r_epik_Ionization_Penalty_Neutral>  (75) 
0.00133663

>  <r_epik_State_Penalty>  (75) 
0.411124

>  <r_epik_Charging_Adjusted_Penalty>  (75) 
0.411124

>  <i_epik_Tot_Q>  (75) 
0

>  <i_epik_Tot_abs_Q>  (75) 
0

>  <s_epik_Chemistry_Notes>  (75) 
This compound has an imine and may undergo hydrolysis.

>  <s_lp_Force_Field>  (75) 
OPLS3e

>  <r_lp_Energy>  (75) 
16.6296

>  <b_lp_Chiralities_Consistent>  (75) 
1

>  <s_lp_Variant>  (75) 
22:0-1

>  <s_i_glide_gridfile>  (75) 
pfpi4k_grid

>  <i_i_glide_lignum>  (75) 
30

>  <i_i_glide_rotatable_bonds>  (75) 
1

>  <r_i_docking_score>  (75) 
-4.00308

>  <r_i_glide_ligand_efficiency>  (75) 
-0.250193

>  <r_i_glide_ligand_efficiency_sa>  (75) 
-0.630446

>  <r_i_glide_ligand_efficiency_ln>  (75) 
-1.0611

>  <r_i_glide_gscore>  (75) 
-4.00308

>  <r_i_glide_lipo>  (75) 
0

>  <r_i_glide_hbond>  (75) 
-0.12046

>  <r_i_glide_metal>  (75) 
-0

>  <r_i_glide_rewards>  (75) 
-1.86928

>  <r_i_glide_evdw>  (75) 
-21.9705

>  <r_i_glide_ecoul>  (75) 
-7.69286

>  <r_i_glide_erotb>  (75) 
0.312932

>  <r_i_glide_esite>  (75) 
-0.0738212

>  <r_i_glide_emodel>  (75) 
-38.0216

>  <r_i_glide_energy>  (75) 
-29.6634

>  <r_i_glide_einternal>  (75) 
1.09944

>  <r_i_glide_intrahb_reward>  (75) 
-0

>  <i_i_glide_confnum>  (75) 
1

>  <i_i_glide_posenum>  (75) 
38

>  <r_i_glide_eff_state_penalty>  (75) 
0

>  <ligand_id>  (75) 
22

>  <original_smiles>  (75) 
N=c1scc(O)n1-c1nc2ncccn2n1

>  <smiles>  (75) 
[H]N=C1SC([H])([H])C(=O)N1c1nc2nc([H])c([H])c([H])n2n1

$$$$
22:1:0
     RDKit          3D

 22 24  0  0  1  0  0  0  0  0999 V2000
    2.7778   -3.6820   -3.8658 N   0  0  0  0  0  0  0  0  0  0  0  0
    3.3314   -2.6792   -3.2789 C   0  0  0  0  0  0  0  0  0  0  0  0
    3.8039   -1.1303   -4.0644 S   0  0  0  0  0  0  0  0  0  0  0  0
    4.4819   -0.4656   -2.5655 C   0  0  0  0  0  0  0  0  0  0  0  0
    4.2769   -1.5062   -1.4919 C   0  0  0  0  0  0  0  0  0  0  0  0
    4.6572   -1.2780   -0.3434 O   0  0  0  0  0  0  0  0  0  0  0  0
    3.6916   -2.6456   -1.9178 N   0  0  0  0  0  0  0  0  0  0  0  0
    3.4679   -3.7040   -0.9929 C   0  0  0  0  0  0  0  0  0  0  0  0
    2.2043   -4.1187   -0.6980 N   0  0  0  0  0  0  0  0  0  0  0  0
    2.4148   -5.0875    0.1864 C   0  0  0  0  0  0  0  0  0  0  0  0
    1.5264   -5.8725    0.8277 N   0  0  0  0  0  0  0  0  0  0  0  0
    2.0347   -6.7809    1.6579 C   0  0  0  0  0  0  0  0  0  0  0  0
    3.4219   -6.9482    1.9067 C   0  0  0  0  0  0  0  0  0  0  0  0
    4.3173   -6.1314    1.2519 C   0  0  0  0  0  0  0  0  0  0  0  0
    3.8003   -5.2114    0.3975 N   0  0  0  0  0  0  0  0  0  0  0  0
    4.4710   -4.3099   -0.3589 N   0  0  0  0  0  0  0  0  0  0  0  0
    2.6100   -4.4510   -3.2207 H   0  0  0  0  0  0  0  0  0  0  0  0
    3.9851    0.4604   -2.3215 H   0  0  0  0  0  0  0  0  0  0  0  0
    5.5391   -0.2659   -2.6489 H   0  0  0  0  0  0  0  0  0  0  0  0
    1.3173   -7.4217    2.1632 H   0  0  0  0  0  0  0  0  0  0  0  0
    3.7768   -7.7066    2.5994 H   0  0  0  0  0  0  0  0  0  0  0  0
    5.3959   -6.1680    1.3655 H   0  0  0  0  0  0  0  0  0  0  0  0
  1  2  2  0
  1 17  1  0
  2  3  1  0
  2  7  1  0
  3  4  1  0
  4  5  1  0
  4 18  1  0
  4 19  1  0
  5  7  1  0
  5  6  2  0
  7  8  1  0
  8 16  2  0
  8  9  1  0
  9 10  2  0
 10 15  1  0
 10 11  1  0
 11 12  2  0
 12 13  1  0
 12 20  1  0
 13 14  2  0
 13 21  1  0
 14 15  1  0
 14 22  1  0
 15 16  1  0
M  END
>  <i_m_ct_stereo_status>  (76) 
1

>  <s_m_source_file>  (76) 
/var/tmp/pbs.5076255.sched01/tmp4ovtozgc/0905bh7x9.sdf

>  <i_m_source_file_index>  (76) 
31

>  <i_lp_mmshare_version>  (76) 
48012

>  <i_f3d_flags>  (76) 
0

>  <s_epik_input>  (76) 
W0hdL049YzFcc1tjSF1jKFtPSF0pbjEtYyhuMilubihjMjMpW2NIXVtjSF1bY0hdbjM=

>  <s_epik_cmdline>  (76) 
J2VwaWtfcHl0aG9uJywgJy1waHQnLCAnMi4wJywgJy1waCcsICc3LjAnLCAnLXRuJywgJzgnLCAnLW1hJywgJzIwMCcsICctaW1hZScsICc8aW5maWxlLm1hZT4nLCAnLW9tYWUnLCAnPG91dGZpbGUubWFlPic=

>  <r_lp_tautomer_probability>  (76) 
0.5

>  <r_epik_Ionization_Penalty>  (76) 
0.00133663

>  <r_epik_Ionization_Penalty_Charging>  (76) 
0

>  <r_epik_Ionization_Penalty_Neutral>  (76) 
0.00133663

>  <r_epik_State_Penalty>  (76) 
0.411124

>  <r_epik_Charging_Adjusted_Penalty>  (76) 
0.411124

>  <i_epik_Tot_Q>  (76) 
0

>  <i_epik_Tot_abs_Q>  (76) 
0

>  <s_epik_Chemistry_Notes>  (76) 
This compound has an imine and may undergo hydrolysis.

>  <s_lp_Force_Field>  (76) 
OPLS3e

>  <r_lp_Energy>  (76) 
15.6232

>  <b_lp_Chiralities_Consistent>  (76) 
1

>  <s_lp_Variant>  (76) 
22:0-2

>  <s_i_glide_gridfile>  (76) 
pfpi4k_grid

>  <i_i_glide_lignum>  (76) 
31

>  <i_i_glide_rotatable_bonds>  (76) 
1

>  <r_i_docking_score>  (76) 
-4.57913

>  <r_i_glide_ligand_efficiency>  (76) 
-0.286196

>  <r_i_glide_ligand_efficiency_sa>  (76) 
-0.721169

>  <r_i_glide_ligand_efficiency_ln>  (76) 
-1.21379

>  <r_i_glide_gscore>  (76) 
-4.57913

>  <r_i_glide_lipo>  (76) 
-0.232904

>  <r_i_glide_hbond>  (76) 
-0.470321

>  <r_i_glide_metal>  (76) 
-0

>  <r_i_glide_rewards>  (76) 
-1.9857

>  <r_i_glide_evdw>  (76) 
-20.2739

>  <r_i_glide_ecoul>  (76) 
-7.07473

>  <r_i_glide_erotb>  (76) 
0.312932

>  <r_i_glide_esite>  (76) 
-0.128236

>  <r_i_glide_emodel>  (76) 
-36.5873

>  <r_i_glide_energy>  (76) 
-27.3486

>  <r_i_glide_einternal>  (76) 
0.0781038

>  <r_i_glide_intrahb_reward>  (76) 
-0

>  <i_i_glide_confnum>  (76) 
4

>  <i_i_glide_posenum>  (76) 
3

>  <r_i_glide_eff_state_penalty>  (76) 
0

>  <ligand_id>  (76) 
22

>  <original_smiles>  (76) 
N=c1scc(O)n1-c1nc2ncccn2n1

>  <smiles>  (76) 
[H]N=C1SC([H])([H])C(=O)N1c1nc2nc([H])c([H])c([H])n2n1

$$$$
22:1:1
     RDKit          3D

 22 24  0  0  1  0  0  0  0  0999 V2000
    3.2861   -9.2962    1.8091 N   0  0  0  0  0  0  0  0  0  0  0  0
    2.0597   -9.0605    2.1335 C   0  0  0  0  0  0  0  0  0  0  0  0
    0.8683  -10.1761    2.9227 S   0  0  0  0  0  0  0  0  0  0  0  0
   -0.4523   -8.9822    2.9186 C   0  0  0  0  0  0  0  0  0  0  0  0
    0.1341   -7.7329    2.2923 C   0  0  0  0  0  0  0  0  0  0  0  0
   -0.5746   -6.7230    2.2089 O   0  0  0  0  0  0  0  0  0  0  0  0
    1.4359   -7.8129    1.8914 N   0  0  0  0  0  0  0  0  0  0  0  0
    2.1003   -6.6838    1.2684 C   0  0  0  0  0  0  0  0  0  0  0  0
    1.4499   -5.8597    0.3772 N   0  0  0  0  0  0  0  0  0  0  0  0
    2.3703   -4.9599    0.0735 C   0  0  0  0  0  0  0  0  0  0  0  0
    2.2800   -3.8621   -0.7037 N   0  0  0  0  0  0  0  0  0  0  0  0
    3.3864   -3.1521   -0.8485 C   0  0  0  0  0  0  0  0  0  0  0  0
    4.6325   -3.4744   -0.2345 C   0  0  0  0  0  0  0  0  0  0  0  0
    4.6974   -4.5859    0.5777 C   0  0  0  0  0  0  0  0  0  0  0  0
    3.5653   -5.3048    0.7286 N   0  0  0  0  0  0  0  0  0  0  0  0
    3.3841   -6.4114    1.4974 N   0  0  0  0  0  0  0  0  0  0  0  0
    3.7251   -8.4766    1.4037 H   0  0  0  0  0  0  0  0  0  0  0  0
   -0.7676   -8.7566    3.9391 H   0  0  0  0  0  0  0  0  0  0  0  0
   -1.2962   -9.3376    2.3244 H   0  0  0  0  0  0  0  0  0  0  0  0
    3.3092   -2.2783   -1.4925 H   0  0  0  0  0  0  0  0  0  0  0  0
    5.5176   -2.8640   -0.3976 H   0  0  0  0  0  0  0  0  0  0  0  0
    5.5809   -4.9270    1.1080 H   0  0  0  0  0  0  0  0  0  0  0  0
  1  2  2  0
  1 17  1  0
  2  3  1  0
  2  7  1  0
  3  4  1  0
  4  5  1  0
  4 18  1  0
  4 19  1  0
  5  7  1  0
  5  6  2  0
  7  8  1  0
  8 16  2  0
  8  9  1  0
  9 10  2  0
 10 15  1  0
 10 11  1  0
 11 12  2  0
 12 13  1  0
 12 20  1  0
 13 14  2  0
 13 21  1  0
 14 15  1  0
 14 22  1  0
 15 16  1  0
M  END
>  <i_m_ct_stereo_status>  (77) 
1

>  <s_m_source_file>  (77) 
/var/tmp/pbs.5076255.sched01/tmp4ovtozgc/0905bh7x9.sdf

>  <i_m_source_file_index>  (77) 
31

>  <i_lp_mmshare_version>  (77) 
48012

>  <i_f3d_flags>  (77) 
0

>  <s_epik_input>  (77) 
W0hdL049YzFcc1tjSF1jKFtPSF0pbjEtYyhuMilubihjMjMpW2NIXVtjSF1bY0hdbjM=

>  <s_epik_cmdline>  (77) 
J2VwaWtfcHl0aG9uJywgJy1waHQnLCAnMi4wJywgJy1waCcsICc3LjAnLCAnLXRuJywgJzgnLCAnLW1hJywgJzIwMCcsICctaW1hZScsICc8aW5maWxlLm1hZT4nLCAnLW9tYWUnLCAnPG91dGZpbGUubWFlPic=

>  <r_lp_tautomer_probability>  (77) 
0.5

>  <r_epik_Ionization_Penalty>  (77) 
0.00133663

>  <r_epik_Ionization_Penalty_Charging>  (77) 
0

>  <r_epik_Ionization_Penalty_Neutral>  (77) 
0.00133663

>  <r_epik_State_Penalty>  (77) 
0.411124

>  <r_epik_Charging_Adjusted_Penalty>  (77) 
0.411124

>  <i_epik_Tot_Q>  (77) 
0

>  <i_epik_Tot_abs_Q>  (77) 
0

>  <s_epik_Chemistry_Notes>  (77) 
This compound has an imine and may undergo hydrolysis.

>  <s_lp_Force_Field>  (77) 
OPLS3e

>  <r_lp_Energy>  (77) 
15.6232

>  <b_lp_Chiralities_Consistent>  (77) 
1

>  <s_lp_Variant>  (77) 
22:0-2

>  <s_i_glide_gridfile>  (77) 
pfpi4k_grid

>  <i_i_glide_lignum>  (77) 
31

>  <i_i_glide_rotatable_bonds>  (77) 
1

>  <r_i_docking_score>  (77) 
-4.47929

>  <r_i_glide_ligand_efficiency>  (77) 
-0.279956

>  <r_i_glide_ligand_efficiency_sa>  (77) 
-0.705444

>  <r_i_glide_ligand_efficiency_ln>  (77) 
-1.18733

>  <r_i_glide_gscore>  (77) 
-4.47929

>  <r_i_glide_lipo>  (77) 
-0.213018

>  <r_i_glide_hbond>  (77) 
-0.312552

>  <r_i_glide_metal>  (77) 
-0

>  <r_i_glide_rewards>  (77) 
-1.87123

>  <r_i_glide_evdw>  (77) 
-23.0961

>  <r_i_glide_ecoul>  (77) 
-7.05945

>  <r_i_glide_erotb>  (77) 
0.312932

>  <r_i_glide_esite>  (77) 
-0.181706

>  <r_i_glide_emodel>  (77) 
-38.6207

>  <r_i_glide_energy>  (77) 
-30.1555

>  <r_i_glide_einternal>  (77) 
0.841657

>  <r_i_glide_intrahb_reward>  (77) 
-0

>  <i_i_glide_confnum>  (77) 
6

>  <i_i_glide_posenum>  (77) 
40

>  <r_i_glide_eff_state_penalty>  (77) 
0

>  <ligand_id>  (77) 
22

>  <original_smiles>  (77) 
N=c1scc(O)n1-c1nc2ncccn2n1

>  <smiles>  (77) 
[H]N=C1SC([H])([H])C(=O)N1c1nc2nc([H])c([H])c([H])n2n1

$$$$
22:1:2
     RDKit          3D

 22 24  0  0  1  0  0  0  0  0999 V2000
    4.9961   -7.5969    0.8833 N   0  0  0  0  0  0  0  0  0  0  0  0
    4.7781   -6.3269    0.9315 C   0  0  0  0  0  0  0  0  0  0  0  0
    5.9279   -4.9899    0.5291 S   0  0  0  0  0  0  0  0  0  0  0  0
    4.7611   -3.6974    0.8965 C   0  0  0  0  0  0  0  0  0  0  0  0
    3.5028   -4.4103    1.3392 C   0  0  0  0  0  0  0  0  0  0  0  0
    2.5500   -3.7201    1.7074 O   0  0  0  0  0  0  0  0  0  0  0  0
    3.5391   -5.7692    1.3338 N   0  0  0  0  0  0  0  0  0  0  0  0
    2.3872   -6.5640    1.7305 C   0  0  0  0  0  0  0  0  0  0  0  0
    1.0914   -6.1907    1.4448 N   0  0  0  0  0  0  0  0  0  0  0  0
    0.3778   -7.1437    2.0129 C   0  0  0  0  0  0  0  0  0  0  0  0
   -0.9599   -7.2638    2.1037 N   0  0  0  0  0  0  0  0  0  0  0  0
   -1.4010   -8.3786    2.6783 C   0  0  0  0  0  0  0  0  0  0  0  0
   -0.5582   -9.3832    3.2182 C   0  0  0  0  0  0  0  0  0  0  0  0
    0.8030   -9.2229    3.1598 C   0  0  0  0  0  0  0  0  0  0  0  0
    1.2536   -8.1029    2.5568 N   0  0  0  0  0  0  0  0  0  0  0  0
    2.5405   -7.7157    2.3842 N   0  0  0  0  0  0  0  0  0  0  0  0
    4.1838   -8.1184    1.2022 H   0  0  0  0  0  0  0  0  0  0  0  0
    4.5479   -3.0941    0.0157 H   0  0  0  0  0  0  0  0  0  0  0  0
    5.1169   -3.0678    1.7116 H   0  0  0  0  0  0  0  0  0  0  0  0
   -2.4797   -8.4982    2.7167 H   0  0  0  0  0  0  0  0  0  0  0  0
   -0.9838  -10.2688    3.6784 H   0  0  0  0  0  0  0  0  0  0  0  0
    1.5373   -9.9233    3.5498 H   0  0  0  0  0  0  0  0  0  0  0  0
  1  2  2  0
  1 17  1  0
  2  3  1  0
  2  7  1  0
  3  4  1  0
  4  5  1  0
  4 18  1  0
  4 19  1  0
  5  7  1  0
  5  6  2  0
  7  8  1  0
  8 16  2  0
  8  9  1  0
  9 10  2  0
 10 15  1  0
 10 11  1  0
 11 12  2  0
 12 13  1  0
 12 20  1  0
 13 14  2  0
 13 21  1  0
 14 15  1  0
 14 22  1  0
 15 16  1  0
M  END
>  <i_m_ct_stereo_status>  (78) 
1

>  <s_m_source_file>  (78) 
/var/tmp/pbs.5076255.sched01/tmp4ovtozgc/0905bh7x9.sdf

>  <i_m_source_file_index>  (78) 
31

>  <i_lp_mmshare_version>  (78) 
48012

>  <i_f3d_flags>  (78) 
0

>  <s_epik_input>  (78) 
W0hdL049YzFcc1tjSF1jKFtPSF0pbjEtYyhuMilubihjMjMpW2NIXVtjSF1bY0hdbjM=

>  <s_epik_cmdline>  (78) 
J2VwaWtfcHl0aG9uJywgJy1waHQnLCAnMi4wJywgJy1waCcsICc3LjAnLCAnLXRuJywgJzgnLCAnLW1hJywgJzIwMCcsICctaW1hZScsICc8aW5maWxlLm1hZT4nLCAnLW9tYWUnLCAnPG91dGZpbGUubWFlPic=

>  <r_lp_tautomer_probability>  (78) 
0.5

>  <r_epik_Ionization_Penalty>  (78) 
0.00133663

>  <r_epik_Ionization_Penalty_Charging>  (78) 
0

>  <r_epik_Ionization_Penalty_Neutral>  (78) 
0.00133663

>  <r_epik_State_Penalty>  (78) 
0.411124

>  <r_epik_Charging_Adjusted_Penalty>  (78) 
0.411124

>  <i_epik_Tot_Q>  (78) 
0

>  <i_epik_Tot_abs_Q>  (78) 
0

>  <s_epik_Chemistry_Notes>  (78) 
This compound has an imine and may undergo hydrolysis.

>  <s_lp_Force_Field>  (78) 
OPLS3e

>  <r_lp_Energy>  (78) 
15.6232

>  <b_lp_Chiralities_Consistent>  (78) 
1

>  <s_lp_Variant>  (78) 
22:0-2

>  <s_i_glide_gridfile>  (78) 
pfpi4k_grid

>  <i_i_glide_lignum>  (78) 
31

>  <i_i_glide_rotatable_bonds>  (78) 
1

>  <r_i_docking_score>  (78) 
-4.05902

>  <r_i_glide_ligand_efficiency>  (78) 
-0.253689

>  <r_i_glide_ligand_efficiency_sa>  (78) 
-0.639256

>  <r_i_glide_ligand_efficiency_ln>  (78) 
-1.07593

>  <r_i_glide_gscore>  (78) 
-4.05902

>  <r_i_glide_lipo>  (78) 
-0.141476

>  <r_i_glide_hbond>  (78) 
-0.259195

>  <r_i_glide_metal>  (78) 
-0

>  <r_i_glide_rewards>  (78) 
-2.01457

>  <r_i_glide_evdw>  (78) 
-21.1207

>  <r_i_glide_ecoul>  (78) 
-5.28084

>  <r_i_glide_erotb>  (78) 
0.312932

>  <r_i_glide_esite>  (78) 
-0.108552

>  <r_i_glide_emodel>  (78) 
-33.9869

>  <r_i_glide_energy>  (78) 
-26.4016

>  <r_i_glide_einternal>  (78) 
0.982752

>  <r_i_glide_intrahb_reward>  (78) 
-0

>  <i_i_glide_confnum>  (78) 
5

>  <i_i_glide_posenum>  (78) 
38

>  <r_i_glide_eff_state_penalty>  (78) 
0

>  <ligand_id>  (78) 
22

>  <original_smiles>  (78) 
N=c1scc(O)n1-c1nc2ncccn2n1

>  <smiles>  (78) 
[H]N=C1SC([H])([H])C(=O)N1c1nc2nc([H])c([H])c([H])n2n1

$$$$
23:0:0
     RDKit          3D

 14 15  0  0  1  0  0  0  0  0999 V2000
    2.6558   -2.3810   -3.5205 C   0  0  0  0  0  0  0  0  0  0  0  0
    3.4518   -1.2139   -3.6259 C   0  0  0  0  0  0  0  0  0  0  0  0
    4.2199   -0.6829   -2.6762 N   0  0  0  0  0  0  0  0  0  0  0  0
    4.1570   -1.3936   -1.5159 N   0  0  0  0  0  0  0  0  0  0  0  0
    4.8338   -1.0945   -0.3459 C   0  0  0  0  0  0  0  0  0  0  0  0
    4.4891   -2.0580    0.5630 C   0  0  0  0  0  0  0  0  0  0  0  0
    3.6133   -2.9766   -0.0009 N   0  0  0  0  0  0  0  0  0  0  0  0
    3.4128   -2.5685   -1.2526 C   0  0  0  0  0  0  0  0  0  0  0  0
    2.6283   -3.0567   -2.3266 C   0  0  0  0  0  0  0  0  0  0  0  0
    2.0520   -2.7346   -4.3473 H   0  0  0  0  0  0  0  0  0  0  0  0
    3.4500   -0.6785   -4.5701 H   0  0  0  0  0  0  0  0  0  0  0  0
    5.4617   -0.2213   -0.2947 H   0  0  0  0  0  0  0  0  0  0  0  0
    4.8047   -2.1677    1.5934 H   0  0  0  0  0  0  0  0  0  0  0  0
    2.0275   -3.9497   -2.2014 H   0  0  0  0  0  0  0  0  0  0  0  0
  1  9  2  0
  1  2  1  0
  1 10  1  0
  2  3  2  0
  2 11  1  0
  3  4  1  0
  4  8  1  0
  4  5  1  0
  5  6  2  0
  5 12  1  0
  6  7  1  0
  6 13  1  0
  7  8  2  0
  8  9  1  0
  9 14  1  0
M  END
>  <i_m_ct_stereo_status>  (79) 
1

>  <s_m_source_file>  (79) 
/var/tmp/pbs.5076255.sched01/tmp4ovtozgc/0905bh7x9.sdf

>  <i_m_source_file_index>  (79) 
32

>  <i_lp_mmshare_version>  (79) 
48012

>  <i_f3d_flags>  (79) 
0

>  <s_epik_input>  (79) 
bjFbY0hdW2NIXVtjSF1jKG4xMiluW2NIXVtjSF0y

>  <s_epik_cmdline>  (79) 
J2VwaWtfcHl0aG9uJywgJy1waHQnLCAnMi4wJywgJy1waCcsICc3LjAnLCAnLXRuJywgJzgnLCAnLW1hJywgJzIwMCcsICctaW1hZScsICc8aW5maWxlLm1hZT4nLCAnLW9tYWUnLCAnPG91dGZpbGUubWFlPic=

>  <r_lp_tautomer_probability>  (79) 
1

>  <r_epik_Ionization_Penalty>  (79) 
0.00304482

>  <r_epik_Ionization_Penalty_Charging>  (79) 
0

>  <r_epik_Ionization_Penalty_Neutral>  (79) 
0.00304482

>  <r_epik_State_Penalty>  (79) 
0.00214

>  <r_epik_Charging_Adjusted_Penalty>  (79) 
0.00214

>  <i_epik_Tot_Q>  (79) 
0

>  <i_epik_Tot_abs_Q>  (79) 
0

>  <s_lp_Force_Field>  (79) 
OPLS3e

>  <r_lp_Energy>  (79) 
13.0914

>  <b_lp_Chiralities_Consistent>  (79) 
1

>  <s_lp_Variant>  (79) 
23:0-1

>  <s_i_glide_gridfile>  (79) 
pfpi4k_grid

>  <i_i_glide_lignum>  (79) 
32

>  <i_i_glide_rotatable_bonds>  (79) 
0

>  <r_i_docking_score>  (79) 
-3.91486

>  <r_i_glide_ligand_efficiency>  (79) 
-0.434984

>  <r_i_glide_ligand_efficiency_sa>  (79) 
-0.904803

>  <r_i_glide_ligand_efficiency_ln>  (79) 
-1.22445

>  <r_i_glide_gscore>  (79) 
-3.91486

>  <r_i_glide_lipo>  (79) 
-0.483009

>  <r_i_glide_hbond>  (79) 
0

>  <r_i_glide_metal>  (79) 
-0

>  <r_i_glide_rewards>  (79) 
-2.25

>  <r_i_glide_evdw>  (79) 
-16.8221

>  <r_i_glide_ecoul>  (79) 
-1.68112

>  <r_i_glide_erotb>  (79) 
0

>  <r_i_glide_esite>  (79) 
-0.0885746

>  <r_i_glide_emodel>  (79) 
-23.3982

>  <r_i_glide_energy>  (79) 
-18.5032

>  <r_i_glide_einternal>  (79) 
0

>  <r_i_glide_intrahb_reward>  (79) 
-0

>  <i_i_glide_confnum>  (79) 
2

>  <i_i_glide_posenum>  (79) 
19

>  <r_i_glide_eff_state_penalty>  (79) 
0

>  <ligand_id>  (79) 
23

>  <original_smiles>  (79) 
c1cnn2ccnc2c1

>  <smiles>  (79) 
[H]c1nn2c([H])c([H])nc2c([H])c1[H]

$$$$
23:0:1
     RDKit          3D

 14 15  0  0  1  0  0  0  0  0999 V2000
   -1.0747    1.7931    3.2049 C   0  0  0  0  0  0  0  0  0  0  0  0
   -1.4551    3.1480    3.3649 C   0  0  0  0  0  0  0  0  0  0  0  0
   -1.8932    3.7258    4.4844 N   0  0  0  0  0  0  0  0  0  0  0  0
   -1.9458    2.8461    5.5230 N   0  0  0  0  0  0  0  0  0  0  0  0
   -2.3554    3.1420    6.8120 C   0  0  0  0  0  0  0  0  0  0  0  0
   -2.2527    1.9847    7.5326 C   0  0  0  0  0  0  0  0  0  0  0  0
   -1.8044    0.9394    6.7331 N   0  0  0  0  0  0  0  0  0  0  0  0
   -1.6068    1.4701    5.5234 C   0  0  0  0  0  0  0  0  0  0  0  0
   -1.1489    0.9457    4.2859 C   0  0  0  0  0  0  0  0  0  0  0  0
   -0.7341    1.4349    2.2372 H   0  0  0  0  0  0  0  0  0  0  0  0
   -1.3855    3.8019    2.4972 H   0  0  0  0  0  0  0  0  0  0  0  0
   -2.6666    4.1415    7.0746 H   0  0  0  0  0  0  0  0  0  0  0  0
   -2.4804    1.8157    8.5757 H   0  0  0  0  0  0  0  0  0  0  0  0
   -0.8691   -0.0981    4.2024 H   0  0  0  0  0  0  0  0  0  0  0  0
  1  9  2  0
  1  2  1  0
  1 10  1  0
  2  3  2  0
  2 11  1  0
  3  4  1  0
  4  8  1  0
  4  5  1  0
  5  6  2  0
  5 12  1  0
  6  7  1  0
  6 13  1  0
  7  8  2  0
  8  9  1  0
  9 14  1  0
M  END
>  <i_m_ct_stereo_status>  (80) 
1

>  <s_m_source_file>  (80) 
/var/tmp/pbs.5076255.sched01/tmp4ovtozgc/0905bh7x9.sdf

>  <i_m_source_file_index>  (80) 
32

>  <i_lp_mmshare_version>  (80) 
48012

>  <i_f3d_flags>  (80) 
0

>  <s_epik_input>  (80) 
bjFbY0hdW2NIXVtjSF1jKG4xMiluW2NIXVtjSF0y

>  <s_epik_cmdline>  (80) 
J2VwaWtfcHl0aG9uJywgJy1waHQnLCAnMi4wJywgJy1waCcsICc3LjAnLCAnLXRuJywgJzgnLCAnLW1hJywgJzIwMCcsICctaW1hZScsICc8aW5maWxlLm1hZT4nLCAnLW9tYWUnLCAnPG91dGZpbGUubWFlPic=

>  <r_lp_tautomer_probability>  (80) 
1

>  <r_epik_Ionization_Penalty>  (80) 
0.00304482

>  <r_epik_Ionization_Penalty_Charging>  (80) 
0

>  <r_epik_Ionization_Penalty_Neutral>  (80) 
0.00304482

>  <r_epik_State_Penalty>  (80) 
0.00214

>  <r_epik_Charging_Adjusted_Penalty>  (80) 
0.00214

>  <i_epik_Tot_Q>  (80) 
0

>  <i_epik_Tot_abs_Q>  (80) 
0

>  <s_lp_Force_Field>  (80) 
OPLS3e

>  <r_lp_Energy>  (80) 
13.0914

>  <b_lp_Chiralities_Consistent>  (80) 
1

>  <s_lp_Variant>  (80) 
23:0-1

>  <s_i_glide_gridfile>  (80) 
pfpi4k_grid

>  <i_i_glide_lignum>  (80) 
32

>  <i_i_glide_rotatable_bonds>  (80) 
0

>  <r_i_docking_score>  (80) 
-3.85973

>  <r_i_glide_ligand_efficiency>  (80) 
-0.428858

>  <r_i_glide_ligand_efficiency_sa>  (80) 
-0.892061

>  <r_i_glide_ligand_efficiency_ln>  (80) 
-1.20721

>  <r_i_glide_gscore>  (80) 
-3.85973

>  <r_i_glide_lipo>  (80) 
-0.109858

>  <r_i_glide_hbond>  (80) 
-0.151913

>  <r_i_glide_metal>  (80) 
-0

>  <r_i_glide_rewards>  (80) 
-2.29825

>  <r_i_glide_evdw>  (80) 
-12.428

>  <r_i_glide_ecoul>  (80) 
-4.36498

>  <r_i_glide_erotb>  (80) 
0

>  <r_i_glide_esite>  (80) 
-0.0235586

>  <r_i_glide_emodel>  (80) 
-21.6212

>  <r_i_glide_energy>  (80) 
-16.793

>  <r_i_glide_einternal>  (80) 
0

>  <r_i_glide_intrahb_reward>  (80) 
-0

>  <i_i_glide_confnum>  (80) 
2

>  <i_i_glide_posenum>  (80) 
17

>  <r_i_glide_eff_state_penalty>  (80) 
0

>  <ligand_id>  (80) 
23

>  <original_smiles>  (80) 
c1cnn2ccnc2c1

>  <smiles>  (80) 
[H]c1nn2c([H])c([H])nc2c([H])c1[H]

$$$$
23:0:2
     RDKit          3D

 14 15  0  0  1  0  0  0  0  0999 V2000
    2.9946   -2.0828   -3.5933 C   0  0  0  0  0  0  0  0  0  0  0  0
    3.9135   -1.1268   -3.1023 C   0  0  0  0  0  0  0  0  0  0  0  0
    4.4253   -1.0674   -1.8736 N   0  0  0  0  0  0  0  0  0  0  0  0
    3.9233   -2.0444   -1.0684 N   0  0  0  0  0  0  0  0  0  0  0  0
    4.2498   -2.2368    0.2617 C   0  0  0  0  0  0  0  0  0  0  0  0
    3.5339   -3.3248    0.6859 C   0  0  0  0  0  0  0  0  0  0  0  0
    2.7497   -3.8348   -0.3412 N   0  0  0  0  0  0  0  0  0  0  0  0
    2.9976   -3.0615   -1.4020 C   0  0  0  0  0  0  0  0  0  0  0  0
    2.5318   -3.0561   -2.7422 C   0  0  0  0  0  0  0  0  0  0  0  0
    2.6260   -2.0380   -4.6120 H   0  0  0  0  0  0  0  0  0  0  0  0
    4.2530   -0.3517   -3.7818 H   0  0  0  0  0  0  0  0  0  0  0  0
    4.9470   -1.5744    0.7488 H   0  0  0  0  0  0  0  0  0  0  0  0
    3.5180   -3.7921    1.6621 H   0  0  0  0  0  0  0  0  0  0  0  0
    1.8270   -3.8136   -3.0692 H   0  0  0  0  0  0  0  0  0  0  0  0
  1  9  2  0
  1  2  1  0
  1 10  1  0
  2  3  2  0
  2 11  1  0
  3  4  1  0
  4  8  1  0
  4  5  1  0
  5  6  2  0
  5 12  1  0
  6  7  1  0
  6 13  1  0
  7  8  2  0
  8  9  1  0
  9 14  1  0
M  END
>  <i_m_ct_stereo_status>  (81) 
1

>  <s_m_source_file>  (81) 
/var/tmp/pbs.5076255.sched01/tmp4ovtozgc/0905bh7x9.sdf

>  <i_m_source_file_index>  (81) 
32

>  <i_lp_mmshare_version>  (81) 
48012

>  <i_f3d_flags>  (81) 
0

>  <s_epik_input>  (81) 
bjFbY0hdW2NIXVtjSF1jKG4xMiluW2NIXVtjSF0y

>  <s_epik_cmdline>  (81) 
J2VwaWtfcHl0aG9uJywgJy1waHQnLCAnMi4wJywgJy1waCcsICc3LjAnLCAnLXRuJywgJzgnLCAnLW1hJywgJzIwMCcsICctaW1hZScsICc8aW5maWxlLm1hZT4nLCAnLW9tYWUnLCAnPG91dGZpbGUubWFlPic=

>  <r_lp_tautomer_probability>  (81) 
1

>  <r_epik_Ionization_Penalty>  (81) 
0.00304482

>  <r_epik_Ionization_Penalty_Charging>  (81) 
0

>  <r_epik_Ionization_Penalty_Neutral>  (81) 
0.00304482

>  <r_epik_State_Penalty>  (81) 
0.00214

>  <r_epik_Charging_Adjusted_Penalty>  (81) 
0.00214

>  <i_epik_Tot_Q>  (81) 
0

>  <i_epik_Tot_abs_Q>  (81) 
0

>  <s_lp_Force_Field>  (81) 
OPLS3e

>  <r_lp_Energy>  (81) 
13.0914

>  <b_lp_Chiralities_Consistent>  (81) 
1

>  <s_lp_Variant>  (81) 
23:0-1

>  <s_i_glide_gridfile>  (81) 
pfpi4k_grid

>  <i_i_glide_lignum>  (81) 
32

>  <i_i_glide_rotatable_bonds>  (81) 
0

>  <r_i_docking_score>  (81) 
-3.65439

>  <r_i_glide_ligand_efficiency>  (81) 
-0.406043

>  <r_i_glide_ligand_efficiency_sa>  (81) 
-0.844604

>  <r_i_glide_ligand_efficiency_ln>  (81) 
-1.14299

>  <r_i_glide_gscore>  (81) 
-3.65439

>  <r_i_glide_lipo>  (81) 
-0.361239

>  <r_i_glide_hbond>  (81) 
0

>  <r_i_glide_metal>  (81) 
-0

>  <r_i_glide_rewards>  (81) 
-2.26252

>  <r_i_glide_evdw>  (81) 
-15.5884

>  <r_i_glide_ecoul>  (81) 
-1.38611

>  <r_i_glide_erotb>  (81) 
0

>  <r_i_glide_esite>  (81) 
-0.0432919

>  <r_i_glide_emodel>  (81) 
-21.5429

>  <r_i_glide_energy>  (81) 
-16.9745

>  <r_i_glide_einternal>  (81) 
0

>  <r_i_glide_intrahb_reward>  (81) 
-0

>  <i_i_glide_confnum>  (81) 
2

>  <i_i_glide_posenum>  (81) 
23

>  <r_i_glide_eff_state_penalty>  (81) 
0

>  <ligand_id>  (81) 
23

>  <original_smiles>  (81) 
c1cnn2ccnc2c1

>  <smiles>  (81) 
[H]c1nn2c([H])c([H])nc2c([H])c1[H]

$$$$
24:0:0
     RDKit          3D

 39 41  0  0  1  0  0  0  0  0999 V2000
    1.1050   -7.5299    5.3645 C   0  0  0  0  0  0  0  0  0  0  0  0
    0.7350   -7.2631    3.9579 C   0  0  0  0  0  0  0  0  0  0  0  0
   -0.3124   -8.3159    3.0646 S   0  0  0  0  0  0  0  0  0  0  0  0
   -0.2819   -7.3495    1.7033 N   0  0  0  0  0  0  0  0  0  0  0  0
    0.4744   -6.3008    1.8721 N   0  0  0  0  0  0  0  0  0  0  0  0
    1.0373   -6.1883    3.1432 C   0  0  0  0  0  0  0  0  0  0  0  0
    1.8187   -4.9464    3.5118 C   0  0  0  0  0  0  0  0  0  0  0  0
    3.2513   -5.0191    2.9398 C   0  0  0  0  0  0  0  0  0  0  0  0
    4.0051   -5.8553    3.4469 O   0  0  0  0  0  0  0  0  0  0  0  0
    3.6820   -4.1908    1.9488 N   0  0  0  0  0  0  0  0  0  0  0  0
    2.8824   -3.1817    1.2407 C   0  0  0  0  0  0  0  0  0  0  0  0
    2.9978   -3.3819   -0.2703 C   0  0  0  0  0  0  0  0  0  0  0  0
    4.4103   -3.3384   -0.7219 N   0  0  0  0  0  0  0  0  0  0  0  0
    4.5419   -3.4439   -2.2015 C   0  0  0  0  0  0  0  0  0  0  0  0
    4.1174   -2.1744   -2.8511 C   0  0  0  0  0  0  0  0  0  0  0  0
    3.1869   -2.0607   -3.8597 C   0  0  0  0  0  0  0  0  0  0  0  0
    3.0521   -0.4094   -4.3963 S   0  0  0  0  0  0  0  0  0  0  0  0
    4.2124    0.0388   -3.1748 C   0  0  0  0  0  0  0  0  0  0  0  0
    4.6796   -0.9732   -2.4392 N   0  0  0  0  0  0  0  0  0  0  0  0
    5.2482   -4.3262    0.0104 C   0  0  0  0  0  0  0  0  0  0  0  0
    5.1085   -4.1637    1.5370 C   0  0  0  0  0  0  0  0  0  0  0  0
    1.7217   -6.7308    5.7874 H   0  0  0  0  0  0  0  0  0  0  0  0
    1.6708   -8.4585    5.4247 H   0  0  0  0  0  0  0  0  0  0  0  0
    0.2148   -7.6379    5.9880 H   0  0  0  0  0  0  0  0  0  0  0  0
    1.2224   -4.0717    3.2090 H   0  0  0  0  0  0  0  0  0  0  0  0
    1.9236   -4.8717    4.5914 H   0  0  0  0  0  0  0  0  0  0  0  0
    1.8044   -3.2344    1.4193 H   0  0  0  0  0  0  0  0  0  0  0  0
    3.2139   -2.1827    1.5349 H   0  0  0  0  0  0  0  0  0  0  0  0
    2.5741   -4.3534   -0.5250 H   0  0  0  0  0  0  0  0  0  0  0  0
    2.3963   -2.6346   -0.7823 H   0  0  0  0  0  0  0  0  0  0  0  0
    5.5662   -3.6752   -2.5025 H   0  0  0  0  0  0  0  0  0  0  0  0
    3.9103   -4.2372   -2.5789 H   0  0  0  0  0  0  0  0  0  0  0  0
    2.5758   -2.8263   -4.2988 H   0  0  0  0  0  0  0  0  0  0  0  0
    4.5760    1.0330   -3.0507 H   0  0  0  0  0  0  0  0  0  0  0  0
    4.9256   -5.3308   -0.2672 H   0  0  0  0  0  0  0  0  0  0  0  0
    6.2958   -4.2252   -0.2792 H   0  0  0  0  0  0  0  0  0  0  0  0
    5.5513   -3.2190    1.8531 H   0  0  0  0  0  0  0  0  0  0  0  0
    5.7354   -4.9275    2.0107 H   0  0  0  0  0  0  0  0  0  0  0  0
    4.7491   -2.4181   -0.4899 H   0  0  0  0  0  0  0  0  0  0  0  0
  1  2  1  0
  1 22  1  0
  1 23  1  0
  1 24  1  0
  2  6  2  0
  2  3  1  0
  3  4  1  0
  4  5  2  0
  5  6  1  0
  6  7  1  0
  7  8  1  0
  7 25  1  0
  7 26  1  0
  8  9  2  0
  8 10  1  0
 10 21  1  0
 10 11  1  0
 11 12  1  0
 11 27  1  0
 11 28  1  0
 12 13  1  0
 12 29  1  0
 12 30  1  0
 13 14  1  0
 13 20  1  0
 13 39  1  0
 14 15  1  0
 14 31  1  0
 14 32  1  0
 15 19  1  0
 15 16  2  0
 16 17  1  0
 16 33  1  0
 17 18  1  0
 18 19  2  0
 18 34  1  0
 20 21  1  0
 20 35  1  0
 20 36  1  0
 21 37  1  0
 21 38  1  0
M  CHG  1  13   1
M  END
>  <i_m_ct_stereo_status>  (82) 
1

>  <s_m_source_file>  (82) 
/var/tmp/pbs.5076255.sched01/tmp4ovtozgc/0905bh7x9.sdf

>  <i_m_source_file_index>  (82) 
33

>  <i_lp_mmshare_version>  (82) 
48012

>  <i_f3d_flags>  (82) 
0

>  <s_epik_input>  (82) 
W0NIM11jMXNubmMxW0NIMl1DKD1PKU4yW0NIMl1bQ0gyXU4oW0NIMl1bQ0gyXTIpW0NIMl1jM1tjSF1zW2NIXW4z

>  <s_epik_cmdline>  (82) 
J2VwaWtfcHl0aG9uJywgJy1waHQnLCAnMi4wJywgJy1waCcsICc3LjAnLCAnLXRuJywgJzgnLCAnLW1hJywgJzIwMCcsICctaW1hZScsICc8aW5maWxlLm1hZT4nLCAnLW9tYWUnLCAnPG91dGZpbGUubWFlPic=

>  <r_lp_tautomer_probability>  (82) 
1

>  <r_epik_Ionization_Penalty>  (82) 
0.298406

>  <r_epik_Ionization_Penalty_Charging>  (82) 
0.298406

>  <r_epik_Ionization_Penalty_Neutral>  (82) 
9.54924e-08

>  <r_epik_State_Penalty>  (82) 
0.291803

>  <r_epik_Charging_Adjusted_Penalty>  (82) 
0.590209

>  <i_epik_Tot_Q>  (82) 
1

>  <i_epik_Tot_abs_Q>  (82) 
1

>  <s_lp_Force_Field>  (82) 
OPLS3e

>  <r_lp_Energy>  (82) 
18.8066

>  <b_lp_Chiralities_Consistent>  (82) 
1

>  <s_lp_Variant>  (82) 
24:0-1

>  <s_i_glide_gridfile>  (82) 
pfpi4k_grid

>  <i_i_glide_lignum>  (82) 
33

>  <i_i_glide_rotatable_bonds>  (82) 
5

>  <r_i_docking_score>  (82) 
-3.61464

>  <r_i_glide_ligand_efficiency>  (82) 
-0.172126

>  <r_i_glide_ligand_efficiency_sa>  (82) 
-0.474882

>  <r_i_glide_ligand_efficiency_ln>  (82) 
-0.893713

>  <r_i_glide_gscore>  (82) 
-3.61464

>  <r_i_glide_lipo>  (82) 
-0.728653

>  <r_i_glide_hbond>  (82) 
0

>  <r_i_glide_metal>  (82) 
-0

>  <r_i_glide_rewards>  (82) 
-1.20253

>  <r_i_glide_evdw>  (82) 
-25.8127

>  <r_i_glide_ecoul>  (82) 
-7.29369

>  <r_i_glide_erotb>  (82) 
0.889547

>  <r_i_glide_esite>  (82) 
-0.18832

>  <r_i_glide_emodel>  (82) 
-40.7022

>  <r_i_glide_energy>  (82) 
-33.1064

>  <r_i_glide_einternal>  (82) 
3.36362

>  <r_i_glide_intrahb_reward>  (82) 
-0

>  <i_i_glide_confnum>  (82) 
4

>  <i_i_glide_posenum>  (82) 
4

>  <r_i_glide_eff_state_penalty>  (82) 
0

>  <ligand_id>  (82) 
24

>  <original_smiles>  (82) 
Cc1snnc1CC(=O)N1CCN(Cc2cscn2)CC1

>  <smiles>  (82) 
[H]c1nc(C([H])([H])[N+]2([H])C([H])([H])C([H])([H])N(C(=O)C([H])([H])c3nnsc3C([H])([H])[H])C([H])([H])C2([H])[H])c([H])s1

$$$$
24:0:1
     RDKit          3D

 39 41  0  0  1  0  0  0  0  0999 V2000
    3.4419   -3.5746   -0.0955 C   0  0  0  0  0  0  0  0  0  0  0  0
    4.7429   -2.8464    0.0005 C   0  0  0  0  0  0  0  0  0  0  0  0
    6.2361   -3.6465   -0.3122 S   0  0  0  0  0  0  0  0  0  0  0  0
    7.1505   -2.2627   -0.0949 N   0  0  0  0  0  0  0  0  0  0  0  0
    6.4006   -1.2475    0.2057 N   0  0  0  0  0  0  0  0  0  0  0  0
    5.0268   -1.5358    0.2785 C   0  0  0  0  0  0  0  0  0  0  0  0
    4.0414   -0.4367    0.5362 C   0  0  0  0  0  0  0  0  0  0  0  0
    3.8020   -0.1707    2.0394 C   0  0  0  0  0  0  0  0  0  0  0  0
    4.7445   -0.3187    2.8153 O   0  0  0  0  0  0  0  0  0  0  0  0
    2.5805    0.2409    2.4625 N   0  0  0  0  0  0  0  0  0  0  0  0
    1.4400    0.5271    1.5774 C   0  0  0  0  0  0  0  0  0  0  0  0
    0.8566    1.9108    1.8629 C   0  0  0  0  0  0  0  0  0  0  0  0
    0.4808    2.0597    3.2824 N   0  0  0  0  0  0  0  0  0  0  0  0
   -0.1817    3.3633    3.5286 C   0  0  0  0  0  0  0  0  0  0  0  0
   -0.9237    3.3616    4.8242 C   0  0  0  0  0  0  0  0  0  0  0  0
   -2.0407    2.6213    5.1384 C   0  0  0  0  0  0  0  0  0  0  0  0
   -2.5875    2.9327    6.7693 S   0  0  0  0  0  0  0  0  0  0  0  0
   -1.2520    4.0602    6.9507 C   0  0  0  0  0  0  0  0  0  0  0  0
   -0.4854    4.1831    5.8651 N   0  0  0  0  0  0  0  0  0  0  0  0
    1.6464    1.7993    4.1679 C   0  0  0  0  0  0  0  0  0  0  0  0
    2.2629    0.4132    3.8946 C   0  0  0  0  0  0  0  0  0  0  0  0
    2.5803   -2.9285    0.0829 H   0  0  0  0  0  0  0  0  0  0  0  0
    3.4129   -4.3854    0.6313 H   0  0  0  0  0  0  0  0  0  0  0  0
    3.3188   -4.0271   -1.0822 H   0  0  0  0  0  0  0  0  0  0  0  0
    4.3933    0.4980    0.1034 H   0  0  0  0  0  0  0  0  0  0  0  0
    3.1328   -0.7065    0.0043 H   0  0  0  0  0  0  0  0  0  0  0  0
    1.6769    0.5465    0.5161 H   0  0  0  0  0  0  0  0  0  0  0  0
    0.6829   -0.2484    1.7030 H   0  0  0  0  0  0  0  0  0  0  0  0
    1.5940    2.6775    1.6191 H   0  0  0  0  0  0  0  0  0  0  0  0
   -0.0105    2.0666    1.2211 H   0  0  0  0  0  0  0  0  0  0  0  0
    0.5753    4.1487    3.5102 H   0  0  0  0  0  0  0  0  0  0  0  0
   -0.8840    3.5935    2.7220 H   0  0  0  0  0  0  0  0  0  0  0  0
   -2.5686    1.9225    4.4942 H   0  0  0  0  0  0  0  0  0  0  0  0
   -1.0474    4.6501    7.8365 H   0  0  0  0  0  0  0  0  0  0  0  0
    2.4074    2.5644    3.9975 H   0  0  0  0  0  0  0  0  0  0  0  0
    1.3608    1.8695    5.2207 H   0  0  0  0  0  0  0  0  0  0  0  0
    1.5622   -0.3688    4.1858 H   0  0  0  0  0  0  0  0  0  0  0  0
    3.1293    0.2847    4.5499 H   0  0  0  0  0  0  0  0  0  0  0  0
   -0.2006    1.3380    3.4668 H   0  0  0  0  0  0  0  0  0  0  0  0
  1  2  1  0
  1 22  1  0
  1 23  1  0
  1 24  1  0
  2  6  2  0
  2  3  1  0
  3  4  1  0
  4  5  2  0
  5  6  1  0
  6  7  1  0
  7  8  1  0
  7 25  1  0
  7 26  1  0
  8  9  2  0
  8 10  1  0
 10 21  1  0
 10 11  1  0
 11 12  1  0
 11 27  1  0
 11 28  1  0
 12 13  1  0
 12 29  1  0
 12 30  1  0
 13 14  1  0
 13 20  1  0
 13 39  1  0
 14 15  1  0
 14 31  1  0
 14 32  1  0
 15 19  1  0
 15 16  2  0
 16 17  1  0
 16 33  1  0
 17 18  1  0
 18 19  2  0
 18 34  1  0
 20 21  1  0
 20 35  1  0
 20 36  1  0
 21 37  1  0
 21 38  1  0
M  CHG  1  13   1
M  END
>  <i_m_ct_stereo_status>  (83) 
1

>  <s_m_source_file>  (83) 
/var/tmp/pbs.5076255.sched01/tmp4ovtozgc/0905bh7x9.sdf

>  <i_m_source_file_index>  (83) 
33

>  <i_lp_mmshare_version>  (83) 
48012

>  <i_f3d_flags>  (83) 
0

>  <s_epik_input>  (83) 
W0NIM11jMXNubmMxW0NIMl1DKD1PKU4yW0NIMl1bQ0gyXU4oW0NIMl1bQ0gyXTIpW0NIMl1jM1tjSF1zW2NIXW4z

>  <s_epik_cmdline>  (83) 
J2VwaWtfcHl0aG9uJywgJy1waHQnLCAnMi4wJywgJy1waCcsICc3LjAnLCAnLXRuJywgJzgnLCAnLW1hJywgJzIwMCcsICctaW1hZScsICc8aW5maWxlLm1hZT4nLCAnLW9tYWUnLCAnPG91dGZpbGUubWFlPic=

>  <r_lp_tautomer_probability>  (83) 
1

>  <r_epik_Ionization_Penalty>  (83) 
0.298406

>  <r_epik_Ionization_Penalty_Charging>  (83) 
0.298406

>  <r_epik_Ionization_Penalty_Neutral>  (83) 
9.54924e-08

>  <r_epik_State_Penalty>  (83) 
0.291803

>  <r_epik_Charging_Adjusted_Penalty>  (83) 
0.590209

>  <i_epik_Tot_Q>  (83) 
1

>  <i_epik_Tot_abs_Q>  (83) 
1

>  <s_lp_Force_Field>  (83) 
OPLS3e

>  <r_lp_Energy>  (83) 
18.8066

>  <b_lp_Chiralities_Consistent>  (83) 
1

>  <s_lp_Variant>  (83) 
24:0-1

>  <s_i_glide_gridfile>  (83) 
pfpi4k_grid

>  <i_i_glide_lignum>  (83) 
33

>  <i_i_glide_rotatable_bonds>  (83) 
5

>  <r_i_docking_score>  (83) 
-3.14822

>  <r_i_glide_ligand_efficiency>  (83) 
-0.149915

>  <r_i_glide_ligand_efficiency_sa>  (83) 
-0.413604

>  <r_i_glide_ligand_efficiency_ln>  (83) 
-0.77839

>  <r_i_glide_gscore>  (83) 
-3.14822

>  <r_i_glide_lipo>  (83) 
-0.380757

>  <r_i_glide_hbond>  (83) 
0

>  <r_i_glide_metal>  (83) 
-0

>  <r_i_glide_rewards>  (83) 
-1.23778

>  <r_i_glide_evdw>  (83) 
-25.4092

>  <r_i_glide_ecoul>  (83) 
-7.17924

>  <r_i_glide_erotb>  (83) 
0.889547

>  <r_i_glide_esite>  (83) 
-0.0718812

>  <r_i_glide_emodel>  (83) 
-40.6104

>  <r_i_glide_energy>  (83) 
-32.5884

>  <r_i_glide_einternal>  (83) 
0.251901

>  <r_i_glide_intrahb_reward>  (83) 
-0

>  <i_i_glide_confnum>  (83) 
1

>  <i_i_glide_posenum>  (83) 
22

>  <r_i_glide_eff_state_penalty>  (83) 
0

>  <ligand_id>  (83) 
24

>  <original_smiles>  (83) 
Cc1snnc1CC(=O)N1CCN(Cc2cscn2)CC1

>  <smiles>  (83) 
[H]c1nc(C([H])([H])[N+]2([H])C([H])([H])C([H])([H])N(C(=O)C([H])([H])c3nnsc3C([H])([H])[H])C([H])([H])C2([H])[H])c([H])s1

$$$$
24:0:2
     RDKit          3D

 39 41  0  0  1  0  0  0  0  0999 V2000
    2.9575   -2.8039   -2.5437 C   0  0  0  0  0  0  0  0  0  0  0  0
    4.3488   -2.5901   -2.0083 C   0  0  0  0  0  0  0  0  0  0  0  0
    5.6678   -3.4280   -2.7106 S   0  0  0  0  0  0  0  0  0  0  0  0
    6.8031   -2.7104   -1.7158 N   0  0  0  0  0  0  0  0  0  0  0  0
    6.2499   -1.8705   -0.9067 N   0  0  0  0  0  0  0  0  0  0  0  0
    4.8323   -1.8102   -1.0196 C   0  0  0  0  0  0  0  0  0  0  0  0
    4.0591   -0.8636   -0.1634 C   0  0  0  0  0  0  0  0  0  0  0  0
    4.0944   -1.1649    1.3545 C   0  0  0  0  0  0  0  0  0  0  0  0
    5.0946   -1.7275    1.8215 O   0  0  0  0  0  0  0  0  0  0  0  0
    3.0860   -0.7651    2.1405 N   0  0  0  0  0  0  0  0  0  0  0  0
    1.8536   -0.1219    1.6692 C   0  0  0  0  0  0  0  0  0  0  0  0
    1.6126    1.1745    2.3926 C   0  0  0  0  0  0  0  0  0  0  0  0
    1.5387    0.9809    3.8572 N   0  0  0  0  0  0  0  0  0  0  0  0
    1.2067    2.2370    4.5787 C   0  0  0  0  0  0  0  0  0  0  0  0
   -0.2532    2.6122    4.4452 C   0  0  0  0  0  0  0  0  0  0  0  0
   -0.9585    2.9717    3.3403 C   0  0  0  0  0  0  0  0  0  0  0  0
   -2.6257    3.3467    3.6614 S   0  0  0  0  0  0  0  0  0  0  0  0
   -2.2891    3.0304    5.3603 C   0  0  0  0  0  0  0  0  0  0  0  0
   -1.0426    2.6393    5.6173 N   0  0  0  0  0  0  0  0  0  0  0  0
    2.7799    0.3354    4.3598 C   0  0  0  0  0  0  0  0  0  0  0  0
    3.0802   -0.9785    3.6071 C   0  0  0  0  0  0  0  0  0  0  0  0
    2.2160   -2.1881   -2.0481 H   0  0  0  0  0  0  0  0  0  0  0  0
    2.6608   -3.8410   -2.4176 H   0  0  0  0  0  0  0  0  0  0  0  0
    2.9160   -2.5781   -3.6071 H   0  0  0  0  0  0  0  0  0  0  0  0
    4.4467    0.1457   -0.2925 H   0  0  0  0  0  0  0  0  0  0  0  0
    3.0425   -0.8592   -0.5615 H   0  0  0  0  0  0  0  0  0  0  0  0
    1.8475    0.2233    0.6397 H   0  0  0  0  0  0  0  0  0  0  0  0
    1.0105   -0.8034    1.7806 H   0  0  0  0  0  0  0  0  0  0  0  0
    2.3968    1.8984    2.1654 H   0  0  0  0  0  0  0  0  0  0  0  0
    0.6908    1.5314    1.9531 H   0  0  0  0  0  0  0  0  0  0  0  0
    1.4303    2.1191    5.6367 H   0  0  0  0  0  0  0  0  0  0  0  0
    1.8566    3.0471    4.2344 H   0  0  0  0  0  0  0  0  0  0  0  0
   -0.6361    3.0610    2.3015 H   0  0  0  0  0  0  0  0  0  0  0  0
   -3.0200    3.1388    6.1629 H   0  0  0  0  0  0  0  0  0  0  0  0
    3.6079    1.0329    4.2117 H   0  0  0  0  0  0  0  0  0  0  0  0
    2.7191    0.1380    5.4368 H   0  0  0  0  0  0  0  0  0  0  0  0
    2.3213   -1.7238    3.8464 H   0  0  0  0  0  0  0  0  0  0  0  0
    4.0262   -1.3768    3.9871 H   0  0  0  0  0  0  0  0  0  0  0  0
    0.7895    0.3325    4.0444 H   0  0  0  0  0  0  0  0  0  0  0  0
  1  2  1  0
  1 22  1  0
  1 23  1  0
  1 24  1  0
  2  6  2  0
  2  3  1  0
  3  4  1  0
  4  5  2  0
  5  6  1  0
  6  7  1  0
  7  8  1  0
  7 25  1  0
  7 26  1  0
  8  9  2  0
  8 10  1  0
 10 21  1  0
 10 11  1  0
 11 12  1  0
 11 27  1  0
 11 28  1  0
 12 13  1  0
 12 29  1  0
 12 30  1  0
 13 14  1  0
 13 20  1  0
 13 39  1  0
 14 15  1  0
 14 31  1  0
 14 32  1  0
 15 19  1  0
 15 16  2  0
 16 17  1  0
 16 33  1  0
 17 18  1  0
 18 19  2  0
 18 34  1  0
 20 21  1  0
 20 35  1  0
 20 36  1  0
 21 37  1  0
 21 38  1  0
M  CHG  1  13   1
M  END
>  <i_m_ct_stereo_status>  (84) 
1

>  <s_m_source_file>  (84) 
/var/tmp/pbs.5076255.sched01/tmp4ovtozgc/0905bh7x9.sdf

>  <i_m_source_file_index>  (84) 
33

>  <i_lp_mmshare_version>  (84) 
48012

>  <i_f3d_flags>  (84) 
0

>  <s_epik_input>  (84) 
W0NIM11jMXNubmMxW0NIMl1DKD1PKU4yW0NIMl1bQ0gyXU4oW0NIMl1bQ0gyXTIpW0NIMl1jM1tjSF1zW2NIXW4z

>  <s_epik_cmdline>  (84) 
J2VwaWtfcHl0aG9uJywgJy1waHQnLCAnMi4wJywgJy1waCcsICc3LjAnLCAnLXRuJywgJzgnLCAnLW1hJywgJzIwMCcsICctaW1hZScsICc8aW5maWxlLm1hZT4nLCAnLW9tYWUnLCAnPG91dGZpbGUubWFlPic=

>  <r_lp_tautomer_probability>  (84) 
1

>  <r_epik_Ionization_Penalty>  (84) 
0.298406

>  <r_epik_Ionization_Penalty_Charging>  (84) 
0.298406

>  <r_epik_Ionization_Penalty_Neutral>  (84) 
9.54924e-08

>  <r_epik_State_Penalty>  (84) 
0.291803

>  <r_epik_Charging_Adjusted_Penalty>  (84) 
0.590209

>  <i_epik_Tot_Q>  (84) 
1

>  <i_epik_Tot_abs_Q>  (84) 
1

>  <s_lp_Force_Field>  (84) 
OPLS3e

>  <r_lp_Energy>  (84) 
18.8066

>  <b_lp_Chiralities_Consistent>  (84) 
1

>  <s_lp_Variant>  (84) 
24:0-1

>  <s_i_glide_gridfile>  (84) 
pfpi4k_grid

>  <i_i_glide_lignum>  (84) 
33

>  <i_i_glide_rotatable_bonds>  (84) 
5

>  <r_i_docking_score>  (84) 
-3.08606

>  <r_i_glide_ligand_efficiency>  (84) 
-0.146955

>  <r_i_glide_ligand_efficiency_sa>  (84) 
-0.405439

>  <r_i_glide_ligand_efficiency_ln>  (84) 
-0.763023

>  <r_i_glide_gscore>  (84) 
-3.08606

>  <r_i_glide_lipo>  (84) 
-0.247347

>  <r_i_glide_hbond>  (84) 
0

>  <r_i_glide_metal>  (84) 
-0

>  <r_i_glide_rewards>  (84) 
-1.19695

>  <r_i_glide_evdw>  (84) 
-27.1179

>  <r_i_glide_ecoul>  (84) 
-7.04915

>  <r_i_glide_erotb>  (84) 
0.889547

>  <r_i_glide_esite>  (84) 
-0.118046

>  <r_i_glide_emodel>  (84) 
-41.1143

>  <r_i_glide_energy>  (84) 
-34.167

>  <r_i_glide_einternal>  (84) 
0.923418

>  <r_i_glide_intrahb_reward>  (84) 
-0

>  <i_i_glide_confnum>  (84) 
1

>  <i_i_glide_posenum>  (84) 
38

>  <r_i_glide_eff_state_penalty>  (84) 
0

>  <ligand_id>  (84) 
24

>  <original_smiles>  (84) 
Cc1snnc1CC(=O)N1CCN(Cc2cscn2)CC1

>  <smiles>  (84) 
[H]c1nc(C([H])([H])[N+]2([H])C([H])([H])C([H])([H])N(C(=O)C([H])([H])c3nnsc3C([H])([H])[H])C([H])([H])C2([H])[H])c([H])s1

$$$$
24:1:0
     RDKit          3D

 38 40  0  0  1  0  0  0  0  0999 V2000
    1.7814   -9.3332    2.3755 C   0  0  0  0  0  0  0  0  0  0  0  0
    0.6679   -8.4400    2.8268 C   0  0  0  0  0  0  0  0  0  0  0  0
   -0.8837   -9.0753    3.2081 S   0  0  0  0  0  0  0  0  0  0  0  0
   -1.4983   -7.5795    3.6461 N   0  0  0  0  0  0  0  0  0  0  0  0
   -0.6213   -6.6448    3.5137 N   0  0  0  0  0  0  0  0  0  0  0  0
    0.6299   -7.0722    3.0367 C   0  0  0  0  0  0  0  0  0  0  0  0
    1.7060   -6.0424    2.8671 C   0  0  0  0  0  0  0  0  0  0  0  0
    2.2059   -5.9076    1.4248 C   0  0  0  0  0  0  0  0  0  0  0  0
    1.4664   -6.2629    0.4965 O   0  0  0  0  0  0  0  0  0  0  0  0
    3.4852   -5.4959    1.2517 N   0  0  0  0  0  0  0  0  0  0  0  0
    4.3723   -6.0124    0.2008 C   0  0  0  0  0  0  0  0  0  0  0  0
    4.8499   -4.8423   -0.6243 C   0  0  0  0  0  0  0  0  0  0  0  0
    5.5638   -3.8316    0.1341 N   0  0  0  0  0  0  0  0  0  0  0  0
    6.0453   -2.7979   -0.7818 C   0  0  0  0  0  0  0  0  0  0  0  0
    5.1292   -2.2297   -1.8516 C   0  0  0  0  0  0  0  0  0  0  0  0
    4.3639   -2.9119   -2.7780 C   0  0  0  0  0  0  0  0  0  0  0  0
    3.3342   -1.8507   -3.6830 S   0  0  0  0  0  0  0  0  0  0  0  0
    4.0746   -0.4926   -2.8844 C   0  0  0  0  0  0  0  0  0  0  0  0
    4.9686   -0.8500   -1.9495 N   0  0  0  0  0  0  0  0  0  0  0  0
    4.6507   -3.2855    1.1345 C   0  0  0  0  0  0  0  0  0  0  0  0
    4.1130   -4.4199    2.0468 C   0  0  0  0  0  0  0  0  0  0  0  0
    2.7038   -8.7788    2.2003 H   0  0  0  0  0  0  0  0  0  0  0  0
    1.5085   -9.8366    1.4479 H   0  0  0  0  0  0  0  0  0  0  0  0
    1.9863  -10.1145    3.1136 H   0  0  0  0  0  0  0  0  0  0  0  0
    1.3384   -5.0681    3.1840 H   0  0  0  0  0  0  0  0  0  0  0  0
    2.5455   -6.2926    3.5117 H   0  0  0  0  0  0  0  0  0  0  0  0
    5.1961   -6.6041    0.6314 H   0  0  0  0  0  0  0  0  0  0  0  0
    3.8346   -6.6708   -0.4881 H   0  0  0  0  0  0  0  0  0  0  0  0
    5.4293   -5.1728   -1.4590 H   0  0  0  0  0  0  0  0  0  0  0  0
    3.9557   -4.3941   -1.0250 H   0  0  0  0  0  0  0  0  0  0  0  0
    6.4068   -1.9724   -0.1525 H   0  0  0  0  0  0  0  0  0  0  0  0
    6.9574   -3.1650   -1.2565 H   0  0  0  0  0  0  0  0  0  0  0  0
    4.3034   -3.9819   -2.9283 H   0  0  0  0  0  0  0  0  0  0  0  0
    3.8348    0.5412   -3.1029 H   0  0  0  0  0  0  0  0  0  0  0  0
    5.1595   -2.5330    1.7411 H   0  0  0  0  0  0  0  0  0  0  0  0
    3.8348   -2.7752    0.6260 H   0  0  0  0  0  0  0  0  0  0  0  0
    3.4126   -3.9781    2.7590 H   0  0  0  0  0  0  0  0  0  0  0  0
    4.9356   -4.8605    2.6090 H   0  0  0  0  0  0  0  0  0  0  0  0
  1  2  1  0
  1 22  1  0
  1 23  1  0
  1 24  1  0
  2  6  2  0
  2  3  1  0
  3  4  1  0
  4  5  2  0
  5  6  1  0
  6  7  1  0
  7  8  1  0
  7 25  1  0
  7 26  1  0
  8  9  2  0
  8 10  1  0
 10 21  1  0
 10 11  1  0
 11 12  1  0
 11 27  1  0
 11 28  1  0
 12 13  1  0
 12 29  1  0
 12 30  1  0
 13 14  1  0
 13 20  1  0
 14 15  1  0
 14 31  1  0
 14 32  1  0
 15 19  1  0
 15 16  2  0
 16 17  1  0
 16 33  1  0
 17 18  1  0
 18 19  2  0
 18 34  1  0
 20 21  1  0
 20 35  1  0
 20 36  1  0
 21 37  1  0
 21 38  1  0
M  END
>  <i_m_ct_stereo_status>  (85) 
1

>  <s_m_source_file>  (85) 
/var/tmp/pbs.5076255.sched01/tmp4ovtozgc/0905bh7x9.sdf

>  <i_m_source_file_index>  (85) 
34

>  <i_lp_mmshare_version>  (85) 
48012

>  <i_f3d_flags>  (85) 
0

>  <s_epik_input>  (85) 
W0NIM11jMXNubmMxW0NIMl1DKD1PKU4yW0NIMl1bQ0gyXU4oW0NIMl1bQ0gyXTIpW0NIMl1jM1tjSF1zW2NIXW4z

>  <s_epik_cmdline>  (85) 
J2VwaWtfcHl0aG9uJywgJy1waHQnLCAnMi4wJywgJy1waCcsICc3LjAnLCAnLXRuJywgJzgnLCAnLW1hJywgJzIwMCcsICctaW1hZScsICc8aW5maWxlLm1hZT4nLCAnLW9tYWUnLCAnPG91dGZpbGUubWFlPic=

>  <r_lp_tautomer_probability>  (85) 
1

>  <r_epik_Ionization_Penalty>  (85) 
0.549359

>  <r_epik_Ionization_Penalty_Charging>  (85) 
0

>  <r_epik_Ionization_Penalty_Neutral>  (85) 
0.549359

>  <r_epik_State_Penalty>  (85) 
0.559552

>  <r_epik_Charging_Adjusted_Penalty>  (85) 
0.559552

>  <i_epik_Tot_Q>  (85) 
0

>  <i_epik_Tot_abs_Q>  (85) 
0

>  <s_lp_Force_Field>  (85) 
OPLS3e

>  <r_lp_Energy>  (85) 
29.6809

>  <b_lp_Chiralities_Consistent>  (85) 
1

>  <s_lp_Variant>  (85) 
24:0-2

>  <s_i_glide_gridfile>  (85) 
pfpi4k_grid

>  <i_i_glide_lignum>  (85) 
34

>  <i_i_glide_rotatable_bonds>  (85) 
5

>  <r_i_docking_score>  (85) 
-3.66418

>  <r_i_glide_ligand_efficiency>  (85) 
-0.174485

>  <r_i_glide_ligand_efficiency_sa>  (85) 
-0.481391

>  <r_i_glide_ligand_efficiency_ln>  (85) 
-0.905962

>  <r_i_glide_gscore>  (85) 
-3.66418

>  <r_i_glide_lipo>  (85) 
-0.632275

>  <r_i_glide_hbond>  (85) 
-0.0766469

>  <r_i_glide_metal>  (85) 
-0

>  <r_i_glide_rewards>  (85) 
-1.21921

>  <r_i_glide_evdw>  (85) 
-31.7601

>  <r_i_glide_ecoul>  (85) 
-5.65254

>  <r_i_glide_erotb>  (85) 
0.894443

>  <r_i_glide_esite>  (85) 
-0.194606

>  <r_i_glide_emodel>  (85) 
-39.5825

>  <r_i_glide_energy>  (85) 
-37.4127

>  <r_i_glide_einternal>  (85) 
9.42799

>  <r_i_glide_intrahb_reward>  (85) 
-0

>  <i_i_glide_confnum>  (85) 
3

>  <i_i_glide_posenum>  (85) 
2

>  <r_i_glide_eff_state_penalty>  (85) 
0

>  <ligand_id>  (85) 
24

>  <original_smiles>  (85) 
Cc1snnc1CC(=O)N1CCN(Cc2cscn2)CC1

>  <smiles>  (85) 
[H]c1nc(C([H])([H])N2C([H])([H])C([H])([H])N(C(=O)C([H])([H])c3nnsc3C([H])([H])[H])C([H])([H])C2([H])[H])c([H])s1

$$$$
24:1:1
     RDKit          3D

 38 40  0  0  1  0  0  0  0  0999 V2000
    1.7908   -9.8501    2.8319 C   0  0  0  0  0  0  0  0  0  0  0  0
    0.7848   -8.7557    2.6792 C   0  0  0  0  0  0  0  0  0  0  0  0
   -0.9035   -9.0668    2.8743 S   0  0  0  0  0  0  0  0  0  0  0  0
   -1.3308   -7.4687    2.6315 N   0  0  0  0  0  0  0  0  0  0  0  0
   -0.2832   -6.7328    2.4194 N   0  0  0  0  0  0  0  0  0  0  0  0
    0.9387   -7.4264    2.3982 C   0  0  0  0  0  0  0  0  0  0  0  0
    2.2180   -6.6594    2.1773 C   0  0  0  0  0  0  0  0  0  0  0  0
    2.2601   -5.8250    0.8711 C   0  0  0  0  0  0  0  0  0  0  0  0
    1.2901   -5.8599    0.1118 O   0  0  0  0  0  0  0  0  0  0  0  0
    3.3680   -5.0923    0.5976 N   0  0  0  0  0  0  0  0  0  0  0  0
    3.5056   -4.2920   -0.6350 C   0  0  0  0  0  0  0  0  0  0  0  0
    3.8649   -2.8546   -0.2734 C   0  0  0  0  0  0  0  0  0  0  0  0
    5.0975   -2.7853    0.5123 N   0  0  0  0  0  0  0  0  0  0  0  0
    5.4123   -1.3917    0.8248 C   0  0  0  0  0  0  0  0  0  0  0  0
    4.4335   -0.5900    1.6426 C   0  0  0  0  0  0  0  0  0  0  0  0
    3.1581   -0.2088    1.2920 C   0  0  0  0  0  0  0  0  0  0  0  0
    2.3174    0.5790    2.6041 S   0  0  0  0  0  0  0  0  0  0  0  0
    3.7780    0.4097    3.5668 C   0  0  0  0  0  0  0  0  0  0  0  0
    4.7743   -0.2290    2.9486 N   0  0  0  0  0  0  0  0  0  0  0  0
    4.9326   -3.5513    1.7508 C   0  0  0  0  0  0  0  0  0  0  0  0
    4.5730   -5.0162    1.4418 C   0  0  0  0  0  0  0  0  0  0  0  0
    2.8208   -9.5010    2.7299 H   0  0  0  0  0  0  0  0  0  0  0  0
    1.6227  -10.6245    2.0857 H   0  0  0  0  0  0  0  0  0  0  0  0
    1.6923  -10.3286    3.8085 H   0  0  0  0  0  0  0  0  0  0  0  0
    2.3588   -5.9859    3.0201 H   0  0  0  0  0  0  0  0  0  0  0  0
    3.0751   -7.3346    2.1759 H   0  0  0  0  0  0  0  0  0  0  0  0
    4.2537   -4.7343   -1.2950 H   0  0  0  0  0  0  0  0  0  0  0  0
    2.5695   -4.2339   -1.1907 H   0  0  0  0  0  0  0  0  0  0  0  0
    3.9746   -2.2528   -1.1770 H   0  0  0  0  0  0  0  0  0  0  0  0
    3.0251   -2.4740    0.3045 H   0  0  0  0  0  0  0  0  0  0  0  0
    6.3801   -1.3969    1.3307 H   0  0  0  0  0  0  0  0  0  0  0  0
    5.6024   -0.8869   -0.1275 H   0  0  0  0  0  0  0  0  0  0  0  0
    2.6534   -0.3979    0.3486 H   0  0  0  0  0  0  0  0  0  0  0  0
    3.8780    0.7783    4.5838 H   0  0  0  0  0  0  0  0  0  0  0  0
    5.8494   -3.5138    2.3432 H   0  0  0  0  0  0  0  0  0  0  0  0
    4.1431   -3.1087    2.3604 H   0  0  0  0  0  0  0  0  0  0  0  0
    4.4842   -5.5295    2.4026 H   0  0  0  0  0  0  0  0  0  0  0  0
    5.3895   -5.5022    0.9068 H   0  0  0  0  0  0  0  0  0  0  0  0
  1  2  1  0
  1 22  1  0
  1 23  1  0
  1 24  1  0
  2  6  2  0
  2  3  1  0
  3  4  1  0
  4  5  2  0
  5  6  1  0
  6  7  1  0
  7  8  1  0
  7 25  1  0
  7 26  1  0
  8  9  2  0
  8 10  1  0
 10 21  1  0
 10 11  1  0
 11 12  1  0
 11 27  1  0
 11 28  1  0
 12 13  1  0
 12 29  1  0
 12 30  1  0
 13 14  1  0
 13 20  1  0
 14 15  1  0
 14 31  1  0
 14 32  1  0
 15 19  1  0
 15 16  2  0
 16 17  1  0
 16 33  1  0
 17 18  1  0
 18 19  2  0
 18 34  1  0
 20 21  1  0
 20 35  1  0
 20 36  1  0
 21 37  1  0
 21 38  1  0
M  END
>  <i_m_ct_stereo_status>  (86) 
1

>  <s_m_source_file>  (86) 
/var/tmp/pbs.5076255.sched01/tmp4ovtozgc/0905bh7x9.sdf

>  <i_m_source_file_index>  (86) 
34

>  <i_lp_mmshare_version>  (86) 
48012

>  <i_f3d_flags>  (86) 
0

>  <s_epik_input>  (86) 
W0NIM11jMXNubmMxW0NIMl1DKD1PKU4yW0NIMl1bQ0gyXU4oW0NIMl1bQ0gyXTIpW0NIMl1jM1tjSF1zW2NIXW4z

>  <s_epik_cmdline>  (86) 
J2VwaWtfcHl0aG9uJywgJy1waHQnLCAnMi4wJywgJy1waCcsICc3LjAnLCAnLXRuJywgJzgnLCAnLW1hJywgJzIwMCcsICctaW1hZScsICc8aW5maWxlLm1hZT4nLCAnLW9tYWUnLCAnPG91dGZpbGUubWFlPic=

>  <r_lp_tautomer_probability>  (86) 
1

>  <r_epik_Ionization_Penalty>  (86) 
0.549359

>  <r_epik_Ionization_Penalty_Charging>  (86) 
0

>  <r_epik_Ionization_Penalty_Neutral>  (86) 
0.549359

>  <r_epik_State_Penalty>  (86) 
0.559552

>  <r_epik_Charging_Adjusted_Penalty>  (86) 
0.559552

>  <i_epik_Tot_Q>  (86) 
0

>  <i_epik_Tot_abs_Q>  (86) 
0

>  <s_lp_Force_Field>  (86) 
OPLS3e

>  <r_lp_Energy>  (86) 
29.6809

>  <b_lp_Chiralities_Consistent>  (86) 
1

>  <s_lp_Variant>  (86) 
24:0-2

>  <s_i_glide_gridfile>  (86) 
pfpi4k_grid

>  <i_i_glide_lignum>  (86) 
34

>  <i_i_glide_rotatable_bonds>  (86) 
5

>  <r_i_docking_score>  (86) 
-3.59124

>  <r_i_glide_ligand_efficiency>  (86) 
-0.171011

>  <r_i_glide_ligand_efficiency_sa>  (86) 
-0.471808

>  <r_i_glide_ligand_efficiency_ln>  (86) 
-0.887927

>  <r_i_glide_gscore>  (86) 
-3.59124

>  <r_i_glide_lipo>  (86) 
-0.321842

>  <r_i_glide_hbond>  (86) 
-0.275033

>  <r_i_glide_metal>  (86) 
-0

>  <r_i_glide_rewards>  (86) 
-1.20383

>  <r_i_glide_evdw>  (86) 
-27.0866

>  <r_i_glide_ecoul>  (86) 
-7.36007

>  <r_i_glide_erotb>  (86) 
0.894443

>  <r_i_glide_esite>  (86) 
-0.226647

>  <r_i_glide_emodel>  (86) 
-40.3965

>  <r_i_glide_energy>  (86) 
-34.4466

>  <r_i_glide_einternal>  (86) 
4.07505

>  <r_i_glide_intrahb_reward>  (86) 
-0

>  <i_i_glide_confnum>  (86) 
3

>  <i_i_glide_posenum>  (86) 
37

>  <r_i_glide_eff_state_penalty>  (86) 
0

>  <ligand_id>  (86) 
24

>  <original_smiles>  (86) 
Cc1snnc1CC(=O)N1CCN(Cc2cscn2)CC1

>  <smiles>  (86) 
[H]c1nc(C([H])([H])N2C([H])([H])C([H])([H])N(C(=O)C([H])([H])c3nnsc3C([H])([H])[H])C([H])([H])C2([H])[H])c([H])s1

$$$$
24:1:2
     RDKit          3D

 38 40  0  0  1  0  0  0  0  0999 V2000
    2.0400   -3.4081   -2.1903 C   0  0  0  0  0  0  0  0  0  0  0  0
    3.0329   -2.3269   -2.4133 C   0  0  0  0  0  0  0  0  0  0  0  0
    3.0225   -1.4555   -3.8930 S   0  0  0  0  0  0  0  0  0  0  0  0
    4.2164   -0.3941   -3.3952 N   0  0  0  0  0  0  0  0  0  0  0  0
    4.6452   -0.6849   -2.2174 N   0  0  0  0  0  0  0  0  0  0  0  0
    3.9652   -1.7451   -1.5952 C   0  0  0  0  0  0  0  0  0  0  0  0
    4.1897   -2.0005   -0.1465 C   0  0  0  0  0  0  0  0  0  0  0  0
    4.9222   -3.3434    0.0555 C   0  0  0  0  0  0  0  0  0  0  0  0
    5.9857   -3.5068   -0.5364 O   0  0  0  0  0  0  0  0  0  0  0  0
    4.4045   -4.3106    0.8643 N   0  0  0  0  0  0  0  0  0  0  0  0
    3.2608   -4.1742    1.7848 C   0  0  0  0  0  0  0  0  0  0  0  0
    2.2467   -5.2701    1.4703 C   0  0  0  0  0  0  0  0  0  0  0  0
    2.8598   -6.5783    1.6619 N   0  0  0  0  0  0  0  0  0  0  0  0
    1.8472   -7.6099    1.4866 C   0  0  0  0  0  0  0  0  0  0  0  0
    0.8144   -7.7597    2.5519 C   0  0  0  0  0  0  0  0  0  0  0  0
    1.0297   -8.3314    3.7797 C   0  0  0  0  0  0  0  0  0  0  0  0
   -0.3762   -8.2549    4.7971 S   0  0  0  0  0  0  0  0  0  0  0  0
   -1.2385   -7.4622    3.4870 C   0  0  0  0  0  0  0  0  0  0  0  0
   -0.4833   -7.2240    2.4033 N   0  0  0  0  0  0  0  0  0  0  0  0
    3.9766   -6.7229    0.7245 C   0  0  0  0  0  0  0  0  0  0  0  0
    5.0323   -5.6380    0.9973 C   0  0  0  0  0  0  0  0  0  0  0  0
    2.0951   -3.7985   -1.1765 H   0  0  0  0  0  0  0  0  0  0  0  0
    2.1975   -4.2102   -2.9117 H   0  0  0  0  0  0  0  0  0  0  0  0
    1.0186   -3.0565   -2.3528 H   0  0  0  0  0  0  0  0  0  0  0  0
    4.8324   -1.2289    0.2860 H   0  0  0  0  0  0  0  0  0  0  0  0
    3.2209   -1.8593    0.3428 H   0  0  0  0  0  0  0  0  0  0  0  0
    3.6250   -4.2570    2.8170 H   0  0  0  0  0  0  0  0  0  0  0  0
    2.6764   -3.2493    1.7563 H   0  0  0  0  0  0  0  0  0  0  0  0
    1.3937   -5.1332    2.1285 H   0  0  0  0  0  0  0  0  0  0  0  0
    1.8783   -5.1810    0.4490 H   0  0  0  0  0  0  0  0  0  0  0  0
    1.3312   -7.4222    0.5490 H   0  0  0  0  0  0  0  0  0  0  0  0
    2.3633   -8.5726    1.3445 H   0  0  0  0  0  0  0  0  0  0  0  0
    1.9535   -8.7710    4.1466 H   0  0  0  0  0  0  0  0  0  0  0  0
   -2.2656   -7.1270    3.5184 H   0  0  0  0  0  0  0  0  0  0  0  0
    4.4096   -7.7159    0.8747 H   0  0  0  0  0  0  0  0  0  0  0  0
    3.6423   -6.6385   -0.3120 H   0  0  0  0  0  0  0  0  0  0  0  0
    5.8662   -5.8054    0.3138 H   0  0  0  0  0  0  0  0  0  0  0  0
    5.4441   -5.7579    2.0001 H   0  0  0  0  0  0  0  0  0  0  0  0
  1  2  1  0
  1 22  1  0
  1 23  1  0
  1 24  1  0
  2  6  2  0
  2  3  1  0
  3  4  1  0
  4  5  2  0
  5  6  1  0
  6  7  1  0
  7  8  1  0
  7 25  1  0
  7 26  1  0
  8  9  2  0
  8 10  1  0
 10 21  1  0
 10 11  1  0
 11 12  1  0
 11 27  1  0
 11 28  1  0
 12 13  1  0
 12 29  1  0
 12 30  1  0
 13 14  1  0
 13 20  1  0
 14 15  1  0
 14 31  1  0
 14 32  1  0
 15 19  1  0
 15 16  2  0
 16 17  1  0
 16 33  1  0
 17 18  1  0
 18 19  2  0
 18 34  1  0
 20 21  1  0
 20 35  1  0
 20 36  1  0
 21 37  1  0
 21 38  1  0
M  END
>  <i_m_ct_stereo_status>  (87) 
1

>  <s_m_source_file>  (87) 
/var/tmp/pbs.5076255.sched01/tmp4ovtozgc/0905bh7x9.sdf

>  <i_m_source_file_index>  (87) 
34

>  <i_lp_mmshare_version>  (87) 
48012

>  <i_f3d_flags>  (87) 
0

>  <s_epik_input>  (87) 
W0NIM11jMXNubmMxW0NIMl1DKD1PKU4yW0NIMl1bQ0gyXU4oW0NIMl1bQ0gyXTIpW0NIMl1jM1tjSF1zW2NIXW4z

>  <s_epik_cmdline>  (87) 
J2VwaWtfcHl0aG9uJywgJy1waHQnLCAnMi4wJywgJy1waCcsICc3LjAnLCAnLXRuJywgJzgnLCAnLW1hJywgJzIwMCcsICctaW1hZScsICc8aW5maWxlLm1hZT4nLCAnLW9tYWUnLCAnPG91dGZpbGUubWFlPic=

>  <r_lp_tautomer_probability>  (87) 
1

>  <r_epik_Ionization_Penalty>  (87) 
0.549359

>  <r_epik_Ionization_Penalty_Charging>  (87) 
0

>  <r_epik_Ionization_Penalty_Neutral>  (87) 
0.549359

>  <r_epik_State_Penalty>  (87) 
0.559552

>  <r_epik_Charging_Adjusted_Penalty>  (87) 
0.559552

>  <i_epik_Tot_Q>  (87) 
0

>  <i_epik_Tot_abs_Q>  (87) 
0

>  <s_lp_Force_Field>  (87) 
OPLS3e

>  <r_lp_Energy>  (87) 
29.6809

>  <b_lp_Chiralities_Consistent>  (87) 
1

>  <s_lp_Variant>  (87) 
24:0-2

>  <s_i_glide_gridfile>  (87) 
pfpi4k_grid

>  <i_i_glide_lignum>  (87) 
34

>  <i_i_glide_rotatable_bonds>  (87) 
5

>  <r_i_docking_score>  (87) 
-2.99651

>  <r_i_glide_ligand_efficiency>  (87) 
-0.142691

>  <r_i_glide_ligand_efficiency_sa>  (87) 
-0.393674

>  <r_i_glide_ligand_efficiency_ln>  (87) 
-0.740881

>  <r_i_glide_gscore>  (87) 
-2.99651

>  <r_i_glide_lipo>  (87) 
-0.514503

>  <r_i_glide_hbond>  (87) 
-0.0681132

>  <r_i_glide_metal>  (87) 
-0

>  <r_i_glide_rewards>  (87) 
-1.29347

>  <r_i_glide_evdw>  (87) 
-31.1302

>  <r_i_glide_ecoul>  (87) 
-2.89022

>  <r_i_glide_erotb>  (87) 
0.894443

>  <r_i_glide_esite>  (87) 
-0.0248276

>  <r_i_glide_emodel>  (87) 
-40.1844

>  <r_i_glide_energy>  (87) 
-34.0204

>  <r_i_glide_einternal>  (87) 
1.14311

>  <r_i_glide_intrahb_reward>  (87) 
-0

>  <i_i_glide_confnum>  (87) 
6

>  <i_i_glide_posenum>  (87) 
30

>  <r_i_glide_eff_state_penalty>  (87) 
0

>  <ligand_id>  (87) 
24

>  <original_smiles>  (87) 
Cc1snnc1CC(=O)N1CCN(Cc2cscn2)CC1

>  <smiles>  (87) 
[H]c1nc(C([H])([H])N2C([H])([H])C([H])([H])N(C(=O)C([H])([H])c3nnsc3C([H])([H])[H])C([H])([H])C2([H])[H])c([H])s1

$$$$
25:0:0
     RDKit          3D

 52 57  0  0  1  0  0  0  0  0999 V2000
    0.7083   -8.7815    8.2689 C   0  0  0  0  0  0  0  0  0  0  0  0
    1.7407   -8.8946    7.1577 C   0  0  0  0  0  0  0  0  0  0  0  0
    1.4974   -9.8159    6.1354 C   0  0  0  0  0  0  0  0  0  0  0  0
    2.3130  -10.2848    4.8475 C   0  0  1  0  0  0  0  0  0  0  0  0
    1.7288   -9.8553    3.4331 C   0  0  1  0  0  0  0  0  0  0  0  0
    0.2550  -10.2917    3.3739 C   0  0  0  0  0  0  0  0  0  0  0  0
    1.8656   -8.3370    2.9841 C   0  0  2  0  0  0  0  0  0  0  0  0
    0.8556   -7.8770    2.0924 O   0  0  0  0  0  0  0  0  0  0  0  0
    1.2906   -6.9144    1.2830 C   0  0  0  0  0  0  0  0  0  0  0  0
    0.5953   -6.2623    0.4925 O   0  0  0  0  0  0  0  0  0  0  0  0
    2.7576   -6.7163    1.4921 C   0  0  1  0  0  0  0  0  0  0  0  0
    3.5846   -5.6922    0.7409 C   0  0  0  0  0  0  0  0  0  0  0  0
    3.0525   -5.4240    2.0498 O   0  0  0  0  0  0  0  0  0  0  0  0
    3.2265   -7.8974    2.2938 C   0  0  2  0  0  0  0  0  0  0  0  0
    3.6766   -8.8633    1.3609 O   0  0  0  0  0  0  0  0  0  0  0  0
    4.3103   -7.4896    3.1385 O   0  0  0  0  0  0  0  0  0  0  0  0
    4.1507   -7.2764    4.5523 C   0  0  2  0  0  0  0  0  0  0  0  0
    5.2600   -7.3823    5.5821 C   0  0  2  0  0  0  0  0  0  0  0  0
    6.4932   -8.2442    5.1485 C   0  0  0  0  0  0  0  0  0  0  0  0
    6.2896   -9.4554    4.1739 C   0  0  0  0  0  0  0  0  0  0  0  0
    7.2560   -9.8436    3.5224 O   0  0  0  0  0  0  0  0  0  0  0  0
    4.9166  -10.2185    4.0036 C   0  0  0  0  0  0  0  0  0  0  0  0
    4.7476  -10.9993    3.0766 O   0  0  0  0  0  0  0  0  0  0  0  0
    3.8188   -9.9915    5.0533 C   0  0  2  0  0  0  0  0  0  0  0  0
    4.2558  -10.9299    6.2313 C   0  0  0  0  0  0  0  0  0  0  0  0
    3.7239   -8.5117    5.3112 C   0  0  1  0  0  0  0  0  0  0  0  0
    4.2626   -8.0892    6.6005 C   0  0  2  0  0  0  0  0  0  0  0  0
    2.9258   -7.8338    7.3801 C   0  0  0  0  0  0  0  0  0  0  0  0
    1.1441   -9.0408    9.2349 H   0  0  0  0  0  0  0  0  0  0  0  0
   -0.1365   -9.4495    8.1007 H   0  0  0  0  0  0  0  0  0  0  0  0
    0.3267   -7.7655    8.3313 H   0  0  0  0  0  0  0  0  0  0  0  0
    0.5946  -10.3973    6.2295 H   0  0  0  0  0  0  0  0  0  0  0  0
    2.2090  -11.3718    4.8708 H   0  0  0  0  0  0  0  0  0  0  0  0
    2.2208  -10.4844    2.6874 H   0  0  0  0  0  0  0  0  0  0  0  0
   -0.3881   -9.6772    4.0049 H   0  0  0  0  0  0  0  0  0  0  0  0
    0.1465  -11.3213    3.7142 H   0  0  0  0  0  0  0  0  0  0  0  0
   -0.1412  -10.2561    2.3590 H   0  0  0  0  0  0  0  0  0  0  0  0
    1.6079   -7.6613    3.7999 H   0  0  0  0  0  0  0  0  0  0  0  0
    4.6660   -5.8043    0.6985 H   0  0  0  0  0  0  0  0  0  0  0  0
    3.0990   -5.1882   -0.0889 H   0  0  0  0  0  0  0  0  0  0  0  0
    3.8158   -9.6937    1.8002 H   0  0  0  0  0  0  0  0  0  0  0  0
    3.5567   -6.3826    4.7889 H   0  0  0  0  0  0  0  0  0  0  0  0
    5.5399   -6.4029    5.9603 H   0  0  0  0  0  0  0  0  0  0  0  0
    7.2022   -7.5859    4.6470 H   0  0  0  0  0  0  0  0  0  0  0  0
    7.0330   -8.6109    6.0234 H   0  0  0  0  0  0  0  0  0  0  0  0
    3.7083  -10.7738    7.1635 H   0  0  0  0  0  0  0  0  0  0  0  0
    5.3169  -10.8450    6.4760 H   0  0  0  0  0  0  0  0  0  0  0  0
    4.0929  -11.9775    5.9661 H   0  0  0  0  0  0  0  0  0  0  0  0
    2.7412   -8.1205    5.1866 H   0  0  0  0  0  0  0  0  0  0  0  0
    4.8894   -8.7785    7.1538 H   0  0  0  0  0  0  0  0  0  0  0  0
    2.5212   -6.8378    7.1854 H   0  0  0  0  0  0  0  0  0  0  0  0
    3.1588   -7.8442    8.4481 H   0  0  0  0  0  0  0  0  0  0  0  0
  1  2  1  0
  1 29  1  0
  1 30  1  0
  1 31  1  0
  2 28  1  0
  2  3  2  0
  3  4  1  0
  3 32  1  0
  4 24  1  0
  4  5  1  0
  4 33  1  6
  5  6  1  0
  5  7  1  0
  5 34  1  6
  6 35  1  0
  6 36  1  0
  6 37  1  0
  7 14  1  0
  7  8  1  0
  7 38  1  1
  8  9  1  0
  9 10  2  0
  9 11  1  0
 11 13  1  1
 11 12  1  0
 11 14  1  0
 12 13  1  0
 12 39  1  0
 12 40  1  0
 14 15  1  6
 14 16  1  0
 15 41  1  0
 16 17  1  0
 17 26  1  0
 17 18  1  0
 17 42  1  6
 18 27  1  0
 18 19  1  0
 18 43  1  1
 19 20  1  0
 19 44  1  0
 19 45  1  0
 20 21  2  0
 20 22  1  0
 22 23  2  0
 22 24  1  0
 24 25  1  1
 24 26  1  0
 25 46  1  0
 25 47  1  0
 25 48  1  0
 26 27  1  0
 26 49  1  1
 27 28  1  0
 27 50  1  1
 28 51  1  0
 28 52  1  0
M  END
>  <i_m_ct_stereo_status>  (88) 
1

>  <s_m_source_file>  (88) 
/var/tmp/pbs.5076255.sched01/tmp4ovtozgc/0905bh7x9.sdf

>  <i_m_source_file_index>  (88) 
35

>  <i_lp_mmshare_version>  (88) 
48012

>  <i_f3d_flags>  (88) 
0

>  <s_epik_input>  (88) 
W0NIM11DKD1bQ0hdMSlbQ0gyXVtDQEBIXTJbQ0BASF0oW0NIMl1DKD1PKUMzPU8pW0NAQEhdKE80KVtDQEBIXTJbQ0BAXTMoW0NIM10pW0NAQEhdMVtDQEBIXShbQ0gzXSlbQ0BIXShPQzU9TylbQ0BAXTQoW09IXSlbQ0BAXTU2W0NIMl1PNg==

>  <s_epik_cmdline>  (88) 
J2VwaWtfcHl0aG9uJywgJy1waHQnLCAnMi4wJywgJy1waCcsICc3LjAnLCAnLXRuJywgJzgnLCAnLW1hJywgJzIwMCcsICctaW1hZScsICc8aW5maWxlLm1hZT4nLCAnLW9tYWUnLCAnPG91dGZpbGUubWFlPic=

>  <r_epik_Ionization_Penalty>  (88) 
0.00170328

>  <r_epik_Ionization_Penalty_Charging>  (88) 
0

>  <r_epik_Ionization_Penalty_Neutral>  (88) 
0.00170328

>  <r_epik_State_Penalty>  (88) 
0.00115094

>  <r_epik_Charging_Adjusted_Penalty>  (88) 
0.00115094

>  <i_epik_Tot_Q>  (88) 
0

>  <i_epik_Tot_abs_Q>  (88) 
0

>  <s_epik_Chemistry_Notes>  (88) 
This compound has an ester and may undergo hydrolysis at high or low pH.

>  <s_lp_Force_Field>  (88) 
OPLS3e

>  <r_lp_Energy>  (88) 
152.516

>  <b_lp_Chiralities_Consistent>  (88) 
1

>  <s_lp_Variant>  (88) 
25:0-1

>  <s_i_glide_gridfile>  (88) 
pfpi4k_grid

>  <i_i_glide_lignum>  (88) 
35

>  <i_i_glide_rotatable_bonds>  (88) 
1

>  <r_i_docking_score>  (88) 
-3.50522

>  <r_i_glide_ligand_efficiency>  (88) 
-0.125186

>  <r_i_glide_ligand_efficiency_sa>  (88) 
-0.380139

>  <r_i_glide_ligand_efficiency_ln>  (88) 
-0.809107

>  <r_i_glide_gscore>  (88) 
-3.50522

>  <r_i_glide_lipo>  (88) 
-0.0342577

>  <r_i_glide_hbond>  (88) 
-0.230992

>  <r_i_glide_metal>  (88) 
-0

>  <r_i_glide_rewards>  (88) 
-1.26261

>  <r_i_glide_evdw>  (88) 
-24.4137

>  <r_i_glide_ecoul>  (88) 
-4.59124

>  <r_i_glide_erotb>  (88) 
0

>  <r_i_glide_esite>  (88) 
-0.0679788

>  <r_i_glide_emodel>  (88) 
-40.2678

>  <r_i_glide_energy>  (88) 
-29.005

>  <r_i_glide_einternal>  (88) 
0.0191978

>  <r_i_glide_intrahb_reward>  (88) 
-0.5

>  <i_i_glide_confnum>  (88) 
2

>  <i_i_glide_posenum>  (88) 
31

>  <r_i_glide_eff_state_penalty>  (88) 
0

>  <ligand_id>  (88) 
25

>  <original_smiles>  (88) 
CC1=CC2C(C)C3OC(=O)C4(CO4)C3(O)OC3C4CC(=O)C(=O)C2(C)C3C4C1

>  <smiles>  (88) 
[H]OC12OC3([H])C4([H])C([H])([H])C(=O)C(=O)C5(C([H])([H])[H])C([H])(C([H])=C(C([H])([H])[H])C([H])([H])C4([H])C35[H])C([H])(C([H])([H])[H])C1([H])OC(=O)C21OC1([H])[H]

$$$$
25:0:1
     RDKit          3D

 52 57  0  0  1  0  0  0  0  0999 V2000
    2.5556    4.5039    2.8868 C   0  0  0  0  0  0  0  0  0  0  0  0
    1.9656    3.4877    3.8505 C   0  0  0  0  0  0  0  0  0  0  0  0
    2.6614    3.2445    5.0405 C   0  0  0  0  0  0  0  0  0  0  0  0
    2.4271    2.2688    6.2764 C   0  0  1  0  0  0  0  0  0  0  0  0
    2.0049    2.9442    7.6576 C   0  0  1  0  0  0  0  0  0  0  0  0
    3.0357    4.0460    7.9755 C   0  0  0  0  0  0  0  0  0  0  0  0
    0.5256    3.5022    7.8274 C   0  0  2  0  0  0  0  0  0  0  0  0
    0.3863    4.5538    8.7742 O   0  0  0  0  0  0  0  0  0  0  0  0
   -0.8282    4.5993    9.3320 C   0  0  0  0  0  0  0  0  0  0  0  0
   -1.2467    5.4773   10.0816 O   0  0  0  0  0  0  0  0  0  0  0  0
   -1.6067    3.4118    8.8827 C   0  0  1  0  0  0  0  0  0  0  0  0
   -3.0235    3.1319    9.3352 C   0  0  0  0  0  0  0  0  0  0  0  0
   -2.7501    3.7645    8.0701 O   0  0  0  0  0  0  0  0  0  0  0  0
   -0.6212    2.4709    8.2351 C   0  0  2  0  0  0  0  0  0  0  0  0
   -0.1671    1.5903    9.2529 O   0  0  0  0  0  0  0  0  0  0  0  0
   -1.2631    1.7156    7.2091 O   0  0  0  0  0  0  0  0  0  0  0  0
   -1.0801    2.0065    5.8150 C   0  0  2  0  0  0  0  0  0  0  0  0
   -1.2554    1.0074    4.6808 C   0  0  2  0  0  0  0  0  0  0  0  0
   -1.1389   -0.4929    5.0880 C   0  0  0  0  0  0  0  0  0  0  0  0
   -0.1976   -0.9006    6.2801 C   0  0  0  0  0  0  0  0  0  0  0  0
   -0.4503   -1.9441    6.8783 O   0  0  0  0  0  0  0  0  0  0  0  0
    1.0367   -0.0386    6.7595 C   0  0  0  0  0  0  0  0  0  0  0  0
    1.5868   -0.2726    7.8343 O   0  0  0  0  0  0  0  0  0  0  0  0
    1.5443    1.0754    5.8368 C   0  0  2  0  0  0  0  0  0  0  0  0
    2.4169    0.2927    4.7947 C   0  0  0  0  0  0  0  0  0  0  0  0
    0.3549    1.8482    5.3473 C   0  0  1  0  0  0  0  0  0  0  0  0
    0.0215    1.6098    3.9420 C   0  0  2  0  0  0  0  0  0  0  0  0
    0.5623    2.9254    3.3042 C   0  0  0  0  0  0  0  0  0  0  0  0
    2.7844    4.0370    1.9282 H   0  0  0  0  0  0  0  0  0  0  0  0
    3.4795    4.9440    3.2629 H   0  0  0  0  0  0  0  0  0  0  0  0
    1.8493    5.3074    2.6968 H   0  0  0  0  0  0  0  0  0  0  0  0
    3.5797    3.7953    5.1613 H   0  0  0  0  0  0  0  0  0  0  0  0
    3.4213    1.8577    6.4668 H   0  0  0  0  0  0  0  0  0  0  0  0
    2.1752    2.1932    8.4311 H   0  0  0  0  0  0  0  0  0  0  0  0
    2.9140    4.9203    7.3385 H   0  0  0  0  0  0  0  0  0  0  0  0
    4.0601    3.6893    7.8484 H   0  0  0  0  0  0  0  0  0  0  0  0
    2.9566    4.3797    9.0110 H   0  0  0  0  0  0  0  0  0  0  0  0
    0.2194    4.0758    6.9502 H   0  0  0  0  0  0  0  0  0  0  0  0
   -3.3938    2.1234    9.2769 H   0  0  0  0  0  0  0  0  0  0  0  0
   -3.4190    3.7717   10.1192 H   0  0  0  0  0  0  0  0  0  0  0  0
    0.6361    1.1903    8.9708 H   0  0  0  0  0  0  0  0  0  0  0  0
   -1.5446    2.9528    5.5125 H   0  0  0  0  0  0  0  0  0  0  0  0
   -2.1558    1.2237    4.0975 H   0  0  0  0  0  0  0  0  0  0  0  0
   -2.1319   -0.8352    5.3774 H   0  0  0  0  0  0  0  0  0  0  0  0
   -0.8754   -1.1070    4.2302 H   0  0  0  0  0  0  0  0  0  0  0  0
    2.7185    0.8783    3.9233 H   0  0  0  0  0  0  0  0  0  0  0  0
    1.9252   -0.6021    4.4047 H   0  0  0  0  0  0  0  0  0  0  0  0
    3.3446   -0.0581    5.2575 H   0  0  0  0  0  0  0  0  0  0  0  0
    0.4246    2.9042    5.5221 H   0  0  0  0  0  0  0  0  0  0  0  0
    0.4637    0.7469    3.4380 H   0  0  0  0  0  0  0  0  0  0  0  0
   -0.1646    3.7363    3.3571 H   0  0  0  0  0  0  0  0  0  0  0  0
    0.7042    2.7317    2.2390 H   0  0  0  0  0  0  0  0  0  0  0  0
  1  2  1  0
  1 29  1  0
  1 30  1  0
  1 31  1  0
  2 28  1  0
  2  3  2  0
  3  4  1  0
  3 32  1  0
  4 24  1  0
  4  5  1  0
  4 33  1  1
  5  6  1  0
  5  7  1  0
  5 34  1  1
  6 35  1  0
  6 36  1  0
  6 37  1  0
  7 14  1  0
  7  8  1  0
  7 38  1  6
  8  9  1  0
  9 10  2  0
  9 11  1  0
 11 13  1  6
 11 12  1  0
 11 14  1  0
 12 13  1  0
 12 39  1  0
 12 40  1  0
 14 15  1  1
 14 16  1  0
 15 41  1  0
 16 17  1  0
 17 26  1  0
 17 18  1  0
 17 42  1  6
 18 27  1  0
 18 19  1  0
 18 43  1  6
 19 20  1  0
 19 44  1  0
 19 45  1  0
 20 21  2  0
 20 22  1  0
 22 23  2  0
 22 24  1  0
 24 25  1  6
 24 26  1  0
 25 46  1  0
 25 47  1  0
 25 48  1  0
 26 27  1  0
 26 49  1  6
 27 28  1  0
 27 50  1  6
 28 51  1  0
 28 52  1  0
M  END
>  <i_m_ct_stereo_status>  (89) 
1

>  <s_m_source_file>  (89) 
/var/tmp/pbs.5076255.sched01/tmp4ovtozgc/0905bh7x9.sdf

>  <i_m_source_file_index>  (89) 
35

>  <i_lp_mmshare_version>  (89) 
48012

>  <i_f3d_flags>  (89) 
0

>  <s_epik_input>  (89) 
W0NIM11DKD1bQ0hdMSlbQ0gyXVtDQEBIXTJbQ0BASF0oW0NIMl1DKD1PKUMzPU8pW0NAQEhdKE80KVtDQEBIXTJbQ0BAXTMoW0NIM10pW0NAQEhdMVtDQEBIXShbQ0gzXSlbQ0BIXShPQzU9TylbQ0BAXTQoW09IXSlbQ0BAXTU2W0NIMl1PNg==

>  <s_epik_cmdline>  (89) 
J2VwaWtfcHl0aG9uJywgJy1waHQnLCAnMi4wJywgJy1waCcsICc3LjAnLCAnLXRuJywgJzgnLCAnLW1hJywgJzIwMCcsICctaW1hZScsICc8aW5maWxlLm1hZT4nLCAnLW9tYWUnLCAnPG91dGZpbGUubWFlPic=

>  <r_epik_Ionization_Penalty>  (89) 
0.00170328

>  <r_epik_Ionization_Penalty_Charging>  (89) 
0

>  <r_epik_Ionization_Penalty_Neutral>  (89) 
0.00170328

>  <r_epik_State_Penalty>  (89) 
0.00115094

>  <r_epik_Charging_Adjusted_Penalty>  (89) 
0.00115094

>  <i_epik_Tot_Q>  (89) 
0

>  <i_epik_Tot_abs_Q>  (89) 
0

>  <s_epik_Chemistry_Notes>  (89) 
This compound has an ester and may undergo hydrolysis at high or low pH.

>  <s_lp_Force_Field>  (89) 
OPLS3e

>  <r_lp_Energy>  (89) 
152.516

>  <b_lp_Chiralities_Consistent>  (89) 
1

>  <s_lp_Variant>  (89) 
25:0-1

>  <s_i_glide_gridfile>  (89) 
pfpi4k_grid

>  <i_i_glide_lignum>  (89) 
35

>  <i_i_glide_rotatable_bonds>  (89) 
1

>  <r_i_docking_score>  (89) 
-2.86762

>  <r_i_glide_ligand_efficiency>  (89) 
-0.102415

>  <r_i_glide_ligand_efficiency_sa>  (89) 
-0.310992

>  <r_i_glide_ligand_efficiency_ln>  (89) 
-0.661931

>  <r_i_glide_gscore>  (89) 
-2.86762

>  <r_i_glide_lipo>  (89) 
0

>  <r_i_glide_hbond>  (89) 
-0.000743585

>  <r_i_glide_metal>  (89) 
-0

>  <r_i_glide_rewards>  (89) 
-1.26083

>  <r_i_glide_evdw>  (89) 
-21.6764

>  <r_i_glide_ecoul>  (89) 
-3.17586

>  <r_i_glide_erotb>  (89) 
0

>  <r_i_glide_esite>  (89) 
-0.0458466

>  <r_i_glide_emodel>  (89) 
-34.8336

>  <r_i_glide_energy>  (89) 
-24.8522

>  <r_i_glide_einternal>  (89) 
0.123583

>  <r_i_glide_intrahb_reward>  (89) 
-0.5

>  <i_i_glide_confnum>  (89) 
2

>  <i_i_glide_posenum>  (89) 
14

>  <r_i_glide_eff_state_penalty>  (89) 
0

>  <ligand_id>  (89) 
25

>  <original_smiles>  (89) 
CC1=CC2C(C)C3OC(=O)C4(CO4)C3(O)OC3C4CC(=O)C(=O)C2(C)C3C4C1

>  <smiles>  (89) 
[H]OC12OC3([H])C4([H])C([H])([H])C(=O)C(=O)C5(C([H])([H])[H])C([H])(C([H])=C(C([H])([H])[H])C([H])([H])C4([H])C35[H])C([H])(C([H])([H])[H])C1([H])OC(=O)C21OC1([H])[H]

$$$$
25:0:2
     RDKit          3D

 52 57  0  0  1  0  0  0  0  0999 V2000
   -0.1345   -5.4214    6.3928 C   0  0  0  0  0  0  0  0  0  0  0  0
    0.7090   -6.5412    5.8051 C   0  0  0  0  0  0  0  0  0  0  0  0
    0.3133   -7.0695    4.5679 C   0  0  0  0  0  0  0  0  0  0  0  0
    0.8692   -8.2389    3.6408 C   0  0  1  0  0  0  0  0  0  0  0  0
    1.5638   -7.8106    2.2706 C   0  0  1  0  0  0  0  0  0  0  0  0
    0.5884   -6.8887    1.5166 C   0  0  0  0  0  0  0  0  0  0  0  0
    3.0136   -7.1605    2.3105 C   0  0  2  0  0  0  0  0  0  0  0  0
    3.3214   -6.3057    1.2160 O   0  0  0  0  0  0  0  0  0  0  0  0
    4.6293   -6.2670    0.9395 C   0  0  0  0  0  0  0  0  0  0  0  0
    5.1733   -5.5242    0.1244 O   0  0  0  0  0  0  0  0  0  0  0  0
    5.3351   -7.2699    1.7863 C   0  0  1  0  0  0  0  0  0  0  0  0
    6.8326   -7.5159    1.7280 C   0  0  0  0  0  0  0  0  0  0  0  0
    6.2455   -6.6667    2.7316 O   0  0  0  0  0  0  0  0  0  0  0  0
    4.2644   -8.1471    2.3823 C   0  0  2  0  0  0  0  0  0  0  0  0
    4.1016   -9.2375    1.4889 O   0  0  0  0  0  0  0  0  0  0  0  0
    4.6869   -8.6234    3.6582 O   0  0  0  0  0  0  0  0  0  0  0  0
    4.1834   -8.0921    4.8906 C   0  0  2  0  0  0  0  0  0  0  0  0
    4.1371   -8.8382    6.2171 C   0  0  2  0  0  0  0  0  0  0  0  0
    4.1828  -10.3960    6.1122 C   0  0  0  0  0  0  0  0  0  0  0  0
    3.5670  -11.1092    4.8564 C   0  0  0  0  0  0  0  0  0  0  0  0
    3.9900  -12.2212    4.5529 O   0  0  0  0  0  0  0  0  0  0  0  0
    2.4369  -10.4626    3.9611 C   0  0  0  0  0  0  0  0  0  0  0  0
    2.1607  -10.9333    2.8661 O   0  0  0  0  0  0  0  0  0  0  0  0
    1.6821   -9.2391    4.5000 C   0  0  2  0  0  0  0  0  0  0  0  0
    0.6281   -9.8767    5.4639 C   0  0  0  0  0  0  0  0  0  0  0  0
    2.6888   -8.2820    5.0625 C   0  0  1  0  0  0  0  0  0  0  0  0
    2.7000   -8.2182    6.5286 C   0  0  2  0  0  0  0  0  0  0  0  0
    1.9760   -6.8516    6.7437 C   0  0  0  0  0  0  0  0  0  0  0  0
   -0.5614   -5.7184    7.3516 H   0  0  0  0  0  0  0  0  0  0  0  0
   -0.9621   -5.1494    5.7372 H   0  0  0  0  0  0  0  0  0  0  0  0
    0.4725   -4.5358    6.5505 H   0  0  0  0  0  0  0  0  0  0  0  0
   -0.5773   -6.6414    4.1396 H   0  0  0  0  0  0  0  0  0  0  0  0
   -0.0345   -8.7710    3.3295 H   0  0  0  0  0  0  0  0  0  0  0  0
    1.6104   -8.7097    1.6514 H   0  0  0  0  0  0  0  0  0  0  0  0
    0.5317   -5.9046    1.9758 H   0  0  0  0  0  0  0  0  0  0  0  0
   -0.4210   -7.3069    1.4877 H   0  0  0  0  0  0  0  0  0  0  0  0
    0.8912   -6.7571    0.4771 H   0  0  0  0  0  0  0  0  0  0  0  0
    3.0860   -6.4061    3.0978 H   0  0  0  0  0  0  0  0  0  0  0  0
    7.2388   -8.4572    2.0987 H   0  0  0  0  0  0  0  0  0  0  0  0
    7.3793   -7.0096    0.9399 H   0  0  0  0  0  0  0  0  0  0  0  0
    3.4338   -9.8198    1.8199 H   0  0  0  0  0  0  0  0  0  0  0  0
    4.5223   -7.0655    5.0875 H   0  0  0  0  0  0  0  0  0  0  0  0
    4.8728   -8.4359    6.9197 H   0  0  0  0  0  0  0  0  0  0  0  0
    5.2301  -10.6976    6.1221 H   0  0  0  0  0  0  0  0  0  0  0  0
    3.7549  -10.8574    6.9983 H   0  0  0  0  0  0  0  0  0  0  0  0
    0.1066   -9.1701    6.1143 H   0  0  0  0  0  0  0  0  0  0  0  0
    1.0527  -10.6454    6.1134 H   0  0  0  0  0  0  0  0  0  0  0  0
   -0.1520  -10.3844    4.8883 H   0  0  0  0  0  0  0  0  0  0  0  0
    2.6119   -7.2914    4.6580 H   0  0  0  0  0  0  0  0  0  0  0  0
    2.1898   -9.0063    7.0910 H   0  0  0  0  0  0  0  0  0  0  0  0
    2.6621   -6.0100    6.6635 H   0  0  0  0  0  0  0  0  0  0  0  0
    1.6119   -6.8268    7.7736 H   0  0  0  0  0  0  0  0  0  0  0  0
  1  2  1  0
  1 29  1  0
  1 30  1  0
  1 31  1  0
  2 28  1  0
  2  3  2  0
  3  4  1  0
  3 32  1  0
  4 24  1  0
  4  5  1  0
  4 33  1  6
  5  6  1  0
  5  7  1  0
  5 34  1  6
  6 35  1  0
  6 36  1  0
  6 37  1  0
  7 14  1  0
  7  8  1  0
  7 38  1  1
  8  9  1  0
  9 10  2  0
  9 11  1  0
 11 13  1  1
 11 12  1  0
 11 14  1  0
 12 13  1  0
 12 39  1  0
 12 40  1  0
 14 15  1  6
 14 16  1  0
 15 41  1  0
 16 17  1  0
 17 26  1  0
 17 18  1  0
 17 42  1  1
 18 27  1  0
 18 19  1  0
 18 43  1  1
 19 20  1  0
 19 44  1  0
 19 45  1  0
 20 21  2  0
 20 22  1  0
 22 23  2  0
 22 24  1  0
 24 25  1  1
 24 26  1  0
 25 46  1  0
 25 47  1  0
 25 48  1  0
 26 27  1  0
 26 49  1  6
 27 28  1  0
 27 50  1  1
 28 51  1  0
 28 52  1  0
M  END
>  <i_m_ct_stereo_status>  (90) 
1

>  <s_m_source_file>  (90) 
/var/tmp/pbs.5076255.sched01/tmp4ovtozgc/0905bh7x9.sdf

>  <i_m_source_file_index>  (90) 
35

>  <i_lp_mmshare_version>  (90) 
48012

>  <i_f3d_flags>  (90) 
0

>  <s_epik_input>  (90) 
W0NIM11DKD1bQ0hdMSlbQ0gyXVtDQEBIXTJbQ0BASF0oW0NIMl1DKD1PKUMzPU8pW0NAQEhdKE80KVtDQEBIXTJbQ0BAXTMoW0NIM10pW0NAQEhdMVtDQEBIXShbQ0gzXSlbQ0BIXShPQzU9TylbQ0BAXTQoW09IXSlbQ0BAXTU2W0NIMl1PNg==

>  <s_epik_cmdline>  (90) 
J2VwaWtfcHl0aG9uJywgJy1waHQnLCAnMi4wJywgJy1waCcsICc3LjAnLCAnLXRuJywgJzgnLCAnLW1hJywgJzIwMCcsICctaW1hZScsICc8aW5maWxlLm1hZT4nLCAnLW9tYWUnLCAnPG91dGZpbGUubWFlPic=

>  <r_epik_Ionization_Penalty>  (90) 
0.00170328

>  <r_epik_Ionization_Penalty_Charging>  (90) 
0

>  <r_epik_Ionization_Penalty_Neutral>  (90) 
0.00170328

>  <r_epik_State_Penalty>  (90) 
0.00115094

>  <r_epik_Charging_Adjusted_Penalty>  (90) 
0.00115094

>  <i_epik_Tot_Q>  (90) 
0

>  <i_epik_Tot_abs_Q>  (90) 
0

>  <s_epik_Chemistry_Notes>  (90) 
This compound has an ester and may undergo hydrolysis at high or low pH.

>  <s_lp_Force_Field>  (90) 
OPLS3e

>  <r_lp_Energy>  (90) 
152.516

>  <b_lp_Chiralities_Consistent>  (90) 
1

>  <s_lp_Variant>  (90) 
25:0-1

>  <s_i_glide_gridfile>  (90) 
pfpi4k_grid

>  <i_i_glide_lignum>  (90) 
35

>  <i_i_glide_rotatable_bonds>  (90) 
1

>  <r_i_docking_score>  (90) 
-2.85139

>  <r_i_glide_ligand_efficiency>  (90) 
-0.101836

>  <r_i_glide_ligand_efficiency_sa>  (90) 
-0.309233

>  <r_i_glide_ligand_efficiency_ln>  (90) 
-0.658186

>  <r_i_glide_gscore>  (90) 
-2.85139

>  <r_i_glide_lipo>  (90) 
-0.163035

>  <r_i_glide_hbond>  (90) 
0

>  <r_i_glide_metal>  (90) 
-0

>  <r_i_glide_rewards>  (90) 
-1.40493

>  <r_i_glide_evdw>  (90) 
-26.7772

>  <r_i_glide_ecoul>  (90) 
0.648426

>  <r_i_glide_erotb>  (90) 
0

>  <r_i_glide_esite>  (90) 
-0.0418363

>  <r_i_glide_emodel>  (90) 
-36.1904

>  <r_i_glide_energy>  (90) 
-26.1288

>  <r_i_glide_einternal>  (90) 
0.0753348

>  <r_i_glide_intrahb_reward>  (90) 
-0.5

>  <i_i_glide_confnum>  (90) 
2

>  <i_i_glide_posenum>  (90) 
35

>  <r_i_glide_eff_state_penalty>  (90) 
0

>  <ligand_id>  (90) 
25

>  <original_smiles>  (90) 
CC1=CC2C(C)C3OC(=O)C4(CO4)C3(O)OC3C4CC(=O)C(=O)C2(C)C3C4C1

>  <smiles>  (90) 
[H]OC12OC3([H])C4([H])C([H])([H])C(=O)C(=O)C5(C([H])([H])[H])C([H])(C([H])=C(C([H])([H])[H])C([H])([H])C4([H])C35[H])C([H])(C([H])([H])[H])C1([H])OC(=O)C21OC1([H])[H]

$$$$
25:1:0
     RDKit          3D

 52 57  0  0  1  0  0  0  0  0999 V2000
    2.6077    5.0286    3.1579 C   0  0  0  0  0  0  0  0  0  0  0  0
    1.9676    4.1134    4.1969 C   0  0  0  0  0  0  0  0  0  0  0  0
    0.7641    3.5357    3.8770 C   0  0  0  0  0  0  0  0  0  0  0  0
   -0.2481    2.5552    4.5465 C   0  0  1  0  0  0  0  0  0  0  0  0
   -0.3822    1.2025    3.7748 C   0  0  1  0  0  0  0  0  0  0  0  0
   -1.0522    1.4664    2.4083 C   0  0  0  0  0  0  0  0  0  0  0  0
    0.9855    0.4776    3.5896 C   0  0  2  0  0  0  0  0  0  0  0  0
    1.1973   -0.2270    2.3717 O   0  0  0  0  0  0  0  0  0  0  0  0
    2.0332   -1.2607    2.5092 C   0  0  0  0  0  0  0  0  0  0  0  0
    2.4862   -1.9733    1.6154 O   0  0  0  0  0  0  0  0  0  0  0  0
    2.3486   -1.4140    3.9601 C   0  0  1  0  0  0  0  0  0  0  0  0
    3.2414   -2.5038    4.5107 C   0  0  0  0  0  0  0  0  0  0  0  0
    3.7313   -1.1788    4.2801 O   0  0  0  0  0  0  0  0  0  0  0  0
    1.3531   -0.5560    4.6944 C   0  0  2  0  0  0  0  0  0  0  0  0
    0.2511   -1.3779    5.0200 O   0  0  0  0  0  0  0  0  0  0  0  0
    1.9325   -0.0150    5.8550 O   0  0  0  0  0  0  0  0  0  0  0  0
    2.2130    1.3839    5.9404 C   0  0  2  0  0  0  0  0  0  0  0  0
    2.7520    1.7744    7.2676 C   0  0  2  0  0  0  0  0  0  0  0  0
    1.8822    1.0003    8.4115 C   0  0  0  0  0  0  0  0  0  0  0  0
    0.3337    0.6008    8.1374 C   0  0  0  0  0  0  0  0  0  0  0  0
   -0.1828   -0.2290    8.8833 O   0  0  0  0  0  0  0  0  0  0  0  0
   -0.6185    1.2396    6.9501 C   0  0  0  0  0  0  0  0  0  0  0  0
   -1.7282    0.7258    6.7631 O   0  0  0  0  0  0  0  0  0  0  0  0
   -0.2079    2.5261    6.1027 C   0  0  2  0  0  0  0  0  0  0  0  0
   -0.9756    3.7673    6.6538 C   0  0  0  0  0  0  0  0  0  0  0  0
    1.1874    2.4907    6.4582 C   0  0  2  0  0  0  0  0  0  0  0  0
    2.3941    3.2850    6.7143 C   0  0  2  0  0  0  0  0  0  0  0  0
    2.9068    4.0056    5.4415 C   0  0  0  0  0  0  0  0  0  0  0  0
    3.5905    4.6561    2.8656 H   0  0  0  0  0  0  0  0  0  0  0  0
    2.7270    6.0390    3.5516 H   0  0  0  0  0  0  0  0  0  0  0  0
    2.0069    5.0997    2.2508 H   0  0  0  0  0  0  0  0  0  0  0  0
    0.3895    3.8183    2.9046 H   0  0  0  0  0  0  0  0  0  0  0  0
   -1.1923    3.0517    4.3356 H   0  0  0  0  0  0  0  0  0  0  0  0
   -1.0913    0.5596    4.2907 H   0  0  0  0  0  0  0  0  0  0  0  0
   -0.4170    2.0396    1.7335 H   0  0  0  0  0  0  0  0  0  0  0  0
   -1.9902    2.0100    2.5190 H   0  0  0  0  0  0  0  0  0  0  0  0
   -1.3011    0.5422    1.8979 H   0  0  0  0  0  0  0  0  0  0  0  0
    1.7754    1.2217    3.4989 H   0  0  0  0  0  0  0  0  0  0  0  0
    3.1487   -2.7888    5.5559 H   0  0  0  0  0  0  0  0  0  0  0  0
    3.5684   -3.2635    3.8061 H   0  0  0  0  0  0  0  0  0  0  0  0
    0.0808   -1.9218    4.2683 H   0  0  0  0  0  0  0  0  0  0  0  0
    2.9061    1.6238    5.1338 H   0  0  0  0  0  0  0  0  0  0  0  0
    3.8234    1.6128    7.3386 H   0  0  0  0  0  0  0  0  0  0  0  0
    2.3797    0.0602    8.6319 H   0  0  0  0  0  0  0  0  0  0  0  0
    1.9205    1.5560    9.3512 H   0  0  0  0  0  0  0  0  0  0  0  0
   -0.4544    4.6999    6.4189 H   0  0  0  0  0  0  0  0  0  0  0  0
   -1.1100    3.7325    7.7399 H   0  0  0  0  0  0  0  0  0  0  0  0
   -1.9765    3.8295    6.2255 H   0  0  0  0  0  0  0  0  0  0  0  0
    0.9514    2.8600    7.4745 H   0  0  0  0  0  0  0  0  0  0  0  0
    2.4095    3.9898    7.5565 H   0  0  0  0  0  0  0  0  0  0  0  0
    3.8607    3.5771    5.1121 H   0  0  0  0  0  0  0  0  0  0  0  0
    3.1710    5.0273    5.7187 H   0  0  0  0  0  0  0  0  0  0  0  0
  1  2  1  0
  1 29  1  0
  1 30  1  0
  1 31  1  0
  2 28  1  0
  2  3  2  0
  3  4  1  0
  3 32  1  0
  4 24  1  0
  4  5  1  0
  4 33  1  1
  5  6  1  0
  5  7  1  0
  5 34  1  1
  6 35  1  0
  6 36  1  0
  6 37  1  0
  7 14  1  0
  7  8  1  0
  7 38  1  6
  8  9  1  0
  9 10  2  0
  9 11  1  0
 11 13  1  6
 11 12  1  0
 11 14  1  0
 12 13  1  0
 12 39  1  0
 12 40  1  0
 14 15  1  1
 14 16  1  0
 15 41  1  0
 16 17  1  0
 17 26  1  0
 17 18  1  0
 17 42  1  6
 18 27  1  0
 18 19  1  0
 18 43  1  6
 19 20  1  0
 19 44  1  0
 19 45  1  0
 20 21  2  0
 20 22  1  0
 22 23  2  0
 22 24  1  0
 24 25  1  1
 24 26  1  0
 25 46  1  0
 25 47  1  0
 25 48  1  0
 26 27  1  0
 26 49  1  1
 27 28  1  0
 27 50  1  1
 28 51  1  0
 28 52  1  0
M  END
>  <i_m_ct_stereo_status>  (91) 
1

>  <s_m_source_file>  (91) 
/var/tmp/pbs.5076255.sched01/tmp4ovtozgc/0905bh7x9.sdf

>  <i_m_source_file_index>  (91) 
36

>  <i_lp_mmshare_version>  (91) 
48012

>  <i_f3d_flags>  (91) 
0

>  <s_epik_input>  (91) 
W0NIM11DKD1bQ0hdMSlbQ0gyXVtDQEBIXTJbQ0BASF0oW0NIMl1DKD1PKUMzPU8pW0NAQEhdKE80KVtDQEBIXTJbQ0BAXTMoW0NIM10pW0NAQEhdMVtDQEBIXShbQ0gzXSlbQ0BIXShPQzU9TylbQ0BAXTQoW09IXSlbQ0BAXTU2W0NIMl1PNg==

>  <s_epik_cmdline>  (91) 
J2VwaWtfcHl0aG9uJywgJy1waHQnLCAnMi4wJywgJy1waCcsICc3LjAnLCAnLXRuJywgJzgnLCAnLW1hJywgJzIwMCcsICctaW1hZScsICc8aW5maWxlLm1hZT4nLCAnLW9tYWUnLCAnPG91dGZpbGUubWFlPic=

>  <r_epik_Ionization_Penalty>  (91) 
0.00170328

>  <r_epik_Ionization_Penalty_Charging>  (91) 
0

>  <r_epik_Ionization_Penalty_Neutral>  (91) 
0.00170328

>  <r_epik_State_Penalty>  (91) 
0.00115094

>  <r_epik_Charging_Adjusted_Penalty>  (91) 
0.00115094

>  <i_epik_Tot_Q>  (91) 
0

>  <i_epik_Tot_abs_Q>  (91) 
0

>  <s_epik_Chemistry_Notes>  (91) 
This compound has an ester and may undergo hydrolysis at high or low pH.

>  <s_lp_Force_Field>  (91) 
OPLS3e

>  <r_lp_Energy>  (91) 
193.981

>  <b_lp_Chiralities_Consistent>  (91) 
1

>  <s_lp_Variant>  (91) 
25:0-2

>  <s_i_glide_gridfile>  (91) 
pfpi4k_grid

>  <i_i_glide_lignum>  (91) 
36

>  <i_i_glide_rotatable_bonds>  (91) 
1

>  <r_i_docking_score>  (91) 
-2.99235

>  <r_i_glide_ligand_efficiency>  (91) 
-0.10687

>  <r_i_glide_ligand_efficiency_sa>  (91) 
-0.32452

>  <r_i_glide_ligand_efficiency_ln>  (91) 
-0.690723

>  <r_i_glide_gscore>  (91) 
-2.99235

>  <r_i_glide_lipo>  (91) 
-0.000733258

>  <r_i_glide_hbond>  (91) 
-0.17224

>  <r_i_glide_metal>  (91) 
-0

>  <r_i_glide_rewards>  (91) 
-0.760834

>  <r_i_glide_evdw>  (91) 
-21.8969

>  <r_i_glide_ecoul>  (91) 
-5.96385

>  <r_i_glide_erotb>  (91) 
0

>  <r_i_glide_esite>  (91) 
-0.0691265

>  <r_i_glide_emodel>  (91) 
-32.4414

>  <r_i_glide_energy>  (91) 
-27.8607

>  <r_i_glide_einternal>  (91) 
1.65078

>  <r_i_glide_intrahb_reward>  (91) 
-0

>  <i_i_glide_confnum>  (91) 
1

>  <i_i_glide_posenum>  (91) 
6

>  <r_i_glide_eff_state_penalty>  (91) 
0

>  <ligand_id>  (91) 
25

>  <original_smiles>  (91) 
CC1=CC2C(C)C3OC(=O)C4(CO4)C3(O)OC3C4CC(=O)C(=O)C2(C)C3C4C1

>  <smiles>  (91) 
[H]OC12OC3([H])C4([H])C([H])([H])C(=O)C(=O)C5(C([H])([H])[H])C([H])(C([H])=C(C([H])([H])[H])C([H])([H])C4([H])C35[H])C([H])(C([H])([H])[H])C1([H])OC(=O)C21OC1([H])[H]

$$$$
25:1:1
     RDKit          3D

 52 57  0  0  1  0  0  0  0  0999 V2000
    0.2880   -8.6233    7.7281 C   0  0  0  0  0  0  0  0  0  0  0  0
    1.5447   -8.8895    6.9057 C   0  0  0  0  0  0  0  0  0  0  0  0
    1.4708   -9.8396    5.9223 C   0  0  0  0  0  0  0  0  0  0  0  0
    2.4192  -10.4508    4.8448 C   0  0  1  0  0  0  0  0  0  0  0  0
    1.9485  -10.1537    3.3825 C   0  0  1  0  0  0  0  0  0  0  0  0
    0.6349  -10.9137    3.1154 C   0  0  0  0  0  0  0  0  0  0  0  0
    1.7748   -8.6293    3.1085 C   0  0  2  0  0  0  0  0  0  0  0  0
    0.6935   -8.2138    2.2765 O   0  0  0  0  0  0  0  0  0  0  0  0
    0.9609   -7.0985    1.5919 C   0  0  0  0  0  0  0  0  0  0  0  0
    0.1787   -6.4531    0.8869 O   0  0  0  0  0  0  0  0  0  0  0  0
    2.3756   -6.7119    1.8662 C   0  0  1  0  0  0  0  0  0  0  0  0
    3.0414   -5.4889    1.2659 C   0  0  0  0  0  0  0  0  0  0  0  0
    2.4934   -5.4702    2.5907 O   0  0  0  0  0  0  0  0  0  0  0  0
    3.0251   -7.9098    2.5116 C   0  0  2  0  0  0  0  0  0  0  0  0
    3.6416   -8.6670    1.4894 O   0  0  0  0  0  0  0  0  0  0  0  0
    3.9832   -7.4973    3.4586 O   0  0  0  0  0  0  0  0  0  0  0  0
    3.7652   -7.7031    4.8541 C   0  0  2  0  0  0  0  0  0  0  0  0
    4.9290   -7.2838    5.6759 C   0  0  2  0  0  0  0  0  0  0  0  0
    6.2858   -7.8164    4.9415 C   0  0  0  0  0  0  0  0  0  0  0  0
    6.2508   -9.1539    4.0301 C   0  0  0  0  0  0  0  0  0  0  0  0
    7.2109   -9.3436    3.2833 O   0  0  0  0  0  0  0  0  0  0  0  0
    5.0589  -10.2998    4.0541 C   0  0  0  0  0  0  0  0  0  0  0  0
    5.0937  -11.1851    3.2112 O   0  0  0  0  0  0  0  0  0  0  0  0
    3.9362  -10.3574    5.1858 C   0  0  2  0  0  0  0  0  0  0  0  0
    4.3013  -11.4742    6.2075 C   0  0  0  0  0  0  0  0  0  0  0  0
    4.1520   -9.0195    5.6673 C   0  0  2  0  0  0  0  0  0  0  0  0
    4.1217   -8.1343    6.8361 C   0  0  2  0  0  0  0  0  0  0  0  0
    2.6850   -7.9271    7.3808 C   0  0  0  0  0  0  0  0  0  0  0  0
   -0.0164   -7.5801    7.6368 H   0  0  0  0  0  0  0  0  0  0  0  0
    0.4632   -8.8362    8.7823 H   0  0  0  0  0  0  0  0  0  0  0  0
   -0.5484   -9.2429    7.4031 H   0  0  0  0  0  0  0  0  0  0  0  0
    0.5119  -10.3335    5.8580 H   0  0  0  0  0  0  0  0  0  0  0  0
    2.2098  -11.5123    4.9666 H   0  0  0  0  0  0  0  0  0  0  0  0
    2.6536  -10.5948    2.6796 H   0  0  0  0  0  0  0  0  0  0  0  0
   -0.1984  -10.5291    3.7030 H   0  0  0  0  0  0  0  0  0  0  0  0
    0.7287  -11.9773    3.3353 H   0  0  0  0  0  0  0  0  0  0  0  0
    0.3415  -10.8426    2.0703 H   0  0  0  0  0  0  0  0  0  0  0  0
    1.4655   -8.1390    4.0285 H   0  0  0  0  0  0  0  0  0  0  0  0
    4.1278   -5.4483    1.2171 H   0  0  0  0  0  0  0  0  0  0  0  0
    2.4810   -4.9545    0.5084 H   0  0  0  0  0  0  0  0  0  0  0  0
    4.3110   -8.1255    1.0999 H   0  0  0  0  0  0  0  0  0  0  0  0
    2.8607   -7.1525    5.1198 H   0  0  0  0  0  0  0  0  0  0  0  0
    4.9218   -6.2172    5.8843 H   0  0  0  0  0  0  0  0  0  0  0  0
    6.6395   -7.0279    4.2795 H   0  0  0  0  0  0  0  0  0  0  0  0
    7.0858   -7.9357    5.6746 H   0  0  0  0  0  0  0  0  0  0  0  0
    3.8308  -11.3036    7.1797 H   0  0  0  0  0  0  0  0  0  0  0  0
    5.3779  -11.5634    6.3727 H   0  0  0  0  0  0  0  0  0  0  0  0
    3.9647  -12.4526    5.8609 H   0  0  0  0  0  0  0  0  0  0  0  0
    5.0967   -9.3334    6.1598 H   0  0  0  0  0  0  0  0  0  0  0  0
    4.8018   -8.3311    7.6770 H   0  0  0  0  0  0  0  0  0  0  0  0
    2.3568   -6.8975    7.2163 H   0  0  0  0  0  0  0  0  0  0  0  0
    2.7275   -8.0117    8.4673 H   0  0  0  0  0  0  0  0  0  0  0  0
  1  2  1  0
  1 29  1  0
  1 30  1  0
  1 31  1  0
  2 28  1  0
  2  3  2  0
  3  4  1  0
  3 32  1  0
  4 24  1  0
  4  5  1  0
  4 33  1  1
  5  6  1  0
  5  7  1  0
  5 34  1  6
  6 35  1  0
  6 36  1  0
  6 37  1  0
  7 14  1  0
  7  8  1  0
  7 38  1  1
  8  9  1  0
  9 10  2  0
  9 11  1  0
 11 13  1  1
 11 12  1  0
 11 14  1  0
 12 13  1  0
 12 39  1  0
 12 40  1  0
 14 15  1  6
 14 16  1  0
 15 41  1  0
 16 17  1  0
 17 26  1  0
 17 18  1  0
 17 42  1  1
 18 27  1  0
 18 19  1  0
 18 43  1  1
 19 20  1  0
 19 44  1  0
 19 45  1  0
 20 21  2  0
 20 22  1  0
 22 23  2  0
 22 24  1  0
 24 25  1  1
 24 26  1  0
 25 46  1  0
 25 47  1  0
 25 48  1  0
 26 27  1  0
 26 49  1  6
 27 28  1  0
 27 50  1  1
 28 51  1  0
 28 52  1  0
M  END
>  <i_m_ct_stereo_status>  (92) 
1

>  <s_m_source_file>  (92) 
/var/tmp/pbs.5076255.sched01/tmp4ovtozgc/0905bh7x9.sdf

>  <i_m_source_file_index>  (92) 
36

>  <i_lp_mmshare_version>  (92) 
48012

>  <i_f3d_flags>  (92) 
0

>  <s_epik_input>  (92) 
W0NIM11DKD1bQ0hdMSlbQ0gyXVtDQEBIXTJbQ0BASF0oW0NIMl1DKD1PKUMzPU8pW0NAQEhdKE80KVtDQEBIXTJbQ0BAXTMoW0NIM10pW0NAQEhdMVtDQEBIXShbQ0gzXSlbQ0BIXShPQzU9TylbQ0BAXTQoW09IXSlbQ0BAXTU2W0NIMl1PNg==

>  <s_epik_cmdline>  (92) 
J2VwaWtfcHl0aG9uJywgJy1waHQnLCAnMi4wJywgJy1waCcsICc3LjAnLCAnLXRuJywgJzgnLCAnLW1hJywgJzIwMCcsICctaW1hZScsICc8aW5maWxlLm1hZT4nLCAnLW9tYWUnLCAnPG91dGZpbGUubWFlPic=

>  <r_epik_Ionization_Penalty>  (92) 
0.00170328

>  <r_epik_Ionization_Penalty_Charging>  (92) 
0

>  <r_epik_Ionization_Penalty_Neutral>  (92) 
0.00170328

>  <r_epik_State_Penalty>  (92) 
0.00115094

>  <r_epik_Charging_Adjusted_Penalty>  (92) 
0.00115094

>  <i_epik_Tot_Q>  (92) 
0

>  <i_epik_Tot_abs_Q>  (92) 
0

>  <s_epik_Chemistry_Notes>  (92) 
This compound has an ester and may undergo hydrolysis at high or low pH.

>  <s_lp_Force_Field>  (92) 
OPLS3e

>  <r_lp_Energy>  (92) 
193.981

>  <b_lp_Chiralities_Consistent>  (92) 
1

>  <s_lp_Variant>  (92) 
25:0-2

>  <s_i_glide_gridfile>  (92) 
pfpi4k_grid

>  <i_i_glide_lignum>  (92) 
36

>  <i_i_glide_rotatable_bonds>  (92) 
1

>  <r_i_docking_score>  (92) 
-2.84822

>  <r_i_glide_ligand_efficiency>  (92) 
-0.101722

>  <r_i_glide_ligand_efficiency_sa>  (92) 
-0.308888

>  <r_i_glide_ligand_efficiency_ln>  (92) 
-0.657452

>  <r_i_glide_gscore>  (92) 
-2.84822

>  <r_i_glide_lipo>  (92) 
-0.123545

>  <r_i_glide_hbond>  (92) 
-0.16

>  <r_i_glide_metal>  (92) 
-0

>  <r_i_glide_rewards>  (92) 
-0.763738

>  <r_i_glide_evdw>  (92) 
-25.2019

>  <r_i_glide_ecoul>  (92) 
-3.12375

>  <r_i_glide_erotb>  (92) 
0

>  <r_i_glide_esite>  (92) 
-0.0722753

>  <r_i_glide_emodel>  (92) 
-33.402

>  <r_i_glide_energy>  (92) 
-28.3256

>  <r_i_glide_einternal>  (92) 
0.0632887

>  <r_i_glide_intrahb_reward>  (92) 
-0

>  <i_i_glide_confnum>  (92) 
2

>  <i_i_glide_posenum>  (92) 
2

>  <r_i_glide_eff_state_penalty>  (92) 
0

>  <ligand_id>  (92) 
25

>  <original_smiles>  (92) 
CC1=CC2C(C)C3OC(=O)C4(CO4)C3(O)OC3C4CC(=O)C(=O)C2(C)C3C4C1

>  <smiles>  (92) 
[H]OC12OC3([H])C4([H])C([H])([H])C(=O)C(=O)C5(C([H])([H])[H])C([H])(C([H])=C(C([H])([H])[H])C([H])([H])C4([H])C35[H])C([H])(C([H])([H])[H])C1([H])OC(=O)C21OC1([H])[H]

$$$$
25:1:2
     RDKit          3D

 52 57  0  0  1  0  0  0  0  0999 V2000
   -0.1007   -4.3491    6.6881 C   0  0  0  0  0  0  0  0  0  0  0  0
    0.5022   -5.7148    6.3722 C   0  0  0  0  0  0  0  0  0  0  0  0
   -0.2541   -6.5912    5.6472 C   0  0  0  0  0  0  0  0  0  0  0  0
   -0.1195   -8.0421    5.0820 C   0  0  1  0  0  0  0  0  0  0  0  0
   -0.1660   -8.0878    3.5244 C   0  0  1  0  0  0  0  0  0  0  0  0
   -1.5818   -7.7045    3.0375 C   0  0  0  0  0  0  0  0  0  0  0  0
    0.9148   -7.1734    2.8814 C   0  0  2  0  0  0  0  0  0  0  0  0
    0.5605   -6.4792    1.6947 O   0  0  0  0  0  0  0  0  0  0  0  0
    1.6072   -6.2564    0.9019 C   0  0  0  0  0  0  0  0  0  0  0  0
    1.5874   -5.5538   -0.1075 O   0  0  0  0  0  0  0  0  0  0  0  0
    2.8063   -6.9371    1.4844 C   0  0  1  0  0  0  0  0  0  0  0  0
    4.1854   -6.9202    0.8593 C   0  0  0  0  0  0  0  0  0  0  0  0
    3.8311   -6.0209    1.9196 O   0  0  0  0  0  0  0  0  0  0  0  0
    2.2742   -7.8683    2.5447 C   0  0  2  0  0  0  0  0  0  0  0  0
    2.0893   -9.1363    1.9413 O   0  0  0  0  0  0  0  0  0  0  0  0
    3.1765   -7.9523    3.6249 O   0  0  0  0  0  0  0  0  0  0  0  0
    2.8535   -7.3850    4.8918 C   0  0  2  0  0  0  0  0  0  0  0  0
    3.8932   -7.6610    5.9145 C   0  0  2  0  0  0  0  0  0  0  0  0
    4.3473   -9.2212    5.7715 C   0  0  0  0  0  0  0  0  0  0  0  0
    3.3048  -10.3312    5.2222 C   0  0  0  0  0  0  0  0  0  0  0  0
    3.7817  -11.4045    4.8537 O   0  0  0  0  0  0  0  0  0  0  0  0
    1.6698  -10.1377    5.1234 C   0  0  0  0  0  0  0  0  0  0  0  0
    1.0274  -10.9433    4.4507 O   0  0  0  0  0  0  0  0  0  0  0  0
    0.8954   -8.9424    5.8409 C   0  0  2  0  0  0  0  0  0  0  0  0
    0.2273   -9.4549    7.1516 C   0  0  0  0  0  0  0  0  0  0  0  0
    2.0588   -8.1292    6.0558 C   0  0  2  0  0  0  0  0  0  0  0  0
    2.7015   -7.1411    6.9284 C   0  0  2  0  0  0  0  0  0  0  0  0
    1.9547   -5.7842    6.9483 C   0  0  0  0  0  0  0  0  0  0  0  0
    0.5163   -3.5515    6.2737 H   0  0  0  0  0  0  0  0  0  0  0  0
   -0.1752   -4.1985    7.7647 H   0  0  0  0  0  0  0  0  0  0  0  0
   -1.1013   -4.2366    6.2729 H   0  0  0  0  0  0  0  0  0  0  0  0
   -1.2367   -6.2213    5.3971 H   0  0  0  0  0  0  0  0  0  0  0  0
   -1.0759   -8.4854    5.3475 H   0  0  0  0  0  0  0  0  0  0  0  0
   -0.0615   -9.1159    3.1854 H   0  0  0  0  0  0  0  0  0  0  0  0
   -1.8207   -6.6609    3.2322 H   0  0  0  0  0  0  0  0  0  0  0  0
   -2.3480   -8.3163    3.5139 H   0  0  0  0  0  0  0  0  0  0  0  0
   -1.6822   -7.8779    1.9658 H   0  0  0  0  0  0  0  0  0  0  0  0
    1.0839   -6.3052    3.5196 H   0  0  0  0  0  0  0  0  0  0  0  0
    4.9005   -7.6945    1.1284 H   0  0  0  0  0  0  0  0  0  0  0  0
    4.2608   -6.4907   -0.1349 H   0  0  0  0  0  0  0  0  0  0  0  0
    1.6146   -9.6896    2.5406 H   0  0  0  0  0  0  0  0  0  0  0  0
    2.7097   -6.3147    4.7367 H   0  0  0  0  0  0  0  0  0  0  0  0
    4.7130   -6.9492    5.8611 H   0  0  0  0  0  0  0  0  0  0  0  0
    5.1905   -9.2594    5.0850 H   0  0  0  0  0  0  0  0  0  0  0  0
    4.7514   -9.5809    6.7201 H   0  0  0  0  0  0  0  0  0  0  0  0
    0.0492   -8.6496    7.8748 H   0  0  0  0  0  0  0  0  0  0  0  0
    0.8292  -10.2140    7.6509 H   0  0  0  0  0  0  0  0  0  0  0  0
   -0.7289   -9.9331    6.9385 H   0  0  0  0  0  0  0  0  0  0  0  0
    2.3972   -8.7994    6.8721 H   0  0  0  0  0  0  0  0  0  0  0  0
    2.9638   -7.4235    7.9566 H   0  0  0  0  0  0  0  0  0  0  0  0
    2.5530   -5.0072    6.4625 H   0  0  0  0  0  0  0  0  0  0  0  0
    1.8927   -5.4505    7.9843 H   0  0  0  0  0  0  0  0  0  0  0  0
  1  2  1  0
  1 29  1  0
  1 30  1  0
  1 31  1  0
  2 28  1  0
  2  3  2  0
  3  4  1  0
  3 32  1  0
  4 24  1  0
  4  5  1  0
  4 33  1  1
  5  6  1  0
  5  7  1  0
  5 34  1  1
  6 35  1  0
  6 36  1  0
  6 37  1  0
  7 14  1  0
  7  8  1  0
  7 38  1  1
  8  9  1  0
  9 10  2  0
  9 11  1  0
 11 13  1  1
 11 12  1  0
 11 14  1  0
 12 13  1  0
 12 39  1  0
 12 40  1  0
 14 15  1  6
 14 16  1  0
 15 41  1  0
 16 17  1  0
 17 26  1  0
 17 18  1  0
 17 42  1  6
 18 27  1  0
 18 19  1  0
 18 43  1  6
 19 20  1  0
 19 44  1  0
 19 45  1  0
 20 21  2  0
 20 22  1  0
 22 23  2  0
 22 24  1  0
 24 25  1  1
 24 26  1  0
 25 46  1  0
 25 47  1  0
 25 48  1  0
 26 27  1  0
 26 49  1  1
 27 28  1  0
 27 50  1  1
 28 51  1  0
 28 52  1  0
M  END
>  <i_m_ct_stereo_status>  (93) 
1

>  <s_m_source_file>  (93) 
/var/tmp/pbs.5076255.sched01/tmp4ovtozgc/0905bh7x9.sdf

>  <i_m_source_file_index>  (93) 
36

>  <i_lp_mmshare_version>  (93) 
48012

>  <i_f3d_flags>  (93) 
0

>  <s_epik_input>  (93) 
W0NIM11DKD1bQ0hdMSlbQ0gyXVtDQEBIXTJbQ0BASF0oW0NIMl1DKD1PKUMzPU8pW0NAQEhdKE80KVtDQEBIXTJbQ0BAXTMoW0NIM10pW0NAQEhdMVtDQEBIXShbQ0gzXSlbQ0BIXShPQzU9TylbQ0BAXTQoW09IXSlbQ0BAXTU2W0NIMl1PNg==

>  <s_epik_cmdline>  (93) 
J2VwaWtfcHl0aG9uJywgJy1waHQnLCAnMi4wJywgJy1waCcsICc3LjAnLCAnLXRuJywgJzgnLCAnLW1hJywgJzIwMCcsICctaW1hZScsICc8aW5maWxlLm1hZT4nLCAnLW9tYWUnLCAnPG91dGZpbGUubWFlPic=

>  <r_epik_Ionization_Penalty>  (93) 
0.00170328

>  <r_epik_Ionization_Penalty_Charging>  (93) 
0

>  <r_epik_Ionization_Penalty_Neutral>  (93) 
0.00170328

>  <r_epik_State_Penalty>  (93) 
0.00115094

>  <r_epik_Charging_Adjusted_Penalty>  (93) 
0.00115094

>  <i_epik_Tot_Q>  (93) 
0

>  <i_epik_Tot_abs_Q>  (93) 
0

>  <s_epik_Chemistry_Notes>  (93) 
This compound has an ester and may undergo hydrolysis at high or low pH.

>  <s_lp_Force_Field>  (93) 
OPLS3e

>  <r_lp_Energy>  (93) 
193.981

>  <b_lp_Chiralities_Consistent>  (93) 
1

>  <s_lp_Variant>  (93) 
25:0-2

>  <s_i_glide_gridfile>  (93) 
pfpi4k_grid

>  <i_i_glide_lignum>  (93) 
36

>  <i_i_glide_rotatable_bonds>  (93) 
1

>  <r_i_docking_score>  (93) 
-2.76288

>  <r_i_glide_ligand_efficiency>  (93) 
-0.0986743

>  <r_i_glide_ligand_efficiency_sa>  (93) 
-0.299633

>  <r_i_glide_ligand_efficiency_ln>  (93) 
-0.637754

>  <r_i_glide_gscore>  (93) 
-2.76288

>  <r_i_glide_lipo>  (93) 
-0.146775

>  <r_i_glide_hbond>  (93) 
-0.239144

>  <r_i_glide_metal>  (93) 
-0

>  <r_i_glide_rewards>  (93) 
-0.760834

>  <r_i_glide_evdw>  (93) 
-27.3088

>  <r_i_glide_ecoul>  (93) 
-0.67694

>  <r_i_glide_erotb>  (93) 
0

>  <r_i_glide_esite>  (93) 
-0.149147

>  <r_i_glide_emodel>  (93) 
-32.8921

>  <r_i_glide_energy>  (93) 
-27.9857

>  <r_i_glide_einternal>  (93) 
0.00203267

>  <r_i_glide_intrahb_reward>  (93) 
-0

>  <i_i_glide_confnum>  (93) 
1

>  <i_i_glide_posenum>  (93) 
31

>  <r_i_glide_eff_state_penalty>  (93) 
0

>  <ligand_id>  (93) 
25

>  <original_smiles>  (93) 
CC1=CC2C(C)C3OC(=O)C4(CO4)C3(O)OC3C4CC(=O)C(=O)C2(C)C3C4C1

>  <smiles>  (93) 
[H]OC12OC3([H])C4([H])C([H])([H])C(=O)C(=O)C5(C([H])([H])[H])C([H])(C([H])=C(C([H])([H])[H])C([H])([H])C4([H])C35[H])C([H])(C([H])([H])[H])C1([H])OC(=O)C21OC1([H])[H]

$$$$
26:0:0
     RDKit          3D

 39 42  0  0  1  0  0  0  0  0999 V2000
   -9.3860  -12.6653  -10.3205 C   0  0  0  0  0  0  0  0  0  0  0  0
   -9.5141  -13.5155   -9.1779 O   0  0  0  0  0  0  0  0  0  0  0  0
   -8.9025  -13.0795   -7.9521 C   0  0  2  0  0  0  0  0  0  0  0  0
   -9.7899  -11.9788   -7.3393 C   0  0  0  0  0  0  0  0  0  0  0  0
   -8.9638  -10.9536   -6.5788 C   0  0  0  0  0  0  0  0  0  0  0  0
   -7.5277  -10.8400   -7.1114 C   0  0  2  0  0  0  0  0  0  0  0  0
   -6.9836   -9.6263   -6.6131 O   0  0  0  0  0  0  0  0  0  0  0  0
   -7.3301   -8.4465   -7.3411 C   0  0  0  0  0  0  0  0  0  0  0  0
   -7.0643   -7.2047   -6.5095 C   0  0  0  0  0  0  0  0  0  0  0  0
   -6.0633   -7.2232   -5.5193 C   0  0  0  0  0  0  0  0  0  0  0  0
   -5.8380   -6.0871   -4.7203 C   0  0  0  0  0  0  0  0  0  0  0  0
   -6.6046   -4.9218   -4.9239 C   0  0  0  0  0  0  0  0  0  0  0  0
   -7.5968   -4.8968   -5.9149 C   0  0  0  0  0  0  0  0  0  0  0  0
   -7.8244   -6.0370   -6.7169 C   0  0  0  0  0  0  0  0  0  0  0  0
   -7.1422  -11.1879   -8.5757 C   0  0  1  0  0  0  0  0  0  0  0  0
   -5.7199  -11.0842   -8.6034 O   0  0  0  0  0  0  0  0  0  0  0  0
   -5.2901  -11.6699   -7.5187 C   0  0  0  0  0  0  0  0  0  0  0  0
   -4.1185  -11.8489   -7.1720 O   0  0  0  0  0  0  0  0  0  0  0  0
   -6.6001  -12.0618   -6.9477 C   0  0  2  0  0  0  0  0  0  0  0  0
   -7.4236  -12.6431   -8.1269 C   0  0  1  0  0  0  0  0  0  0  0  0
   -6.8194  -13.7184   -8.8175 O   0  0  0  0  0  0  0  0  0  0  0  0
   -9.8447  -13.1351  -11.1872 H   0  0  0  0  0  0  0  0  0  0  0  0
   -8.3475  -12.4902  -10.5967 H   0  0  0  0  0  0  0  0  0  0  0  0
   -9.8623  -11.6970  -10.1749 H   0  0  0  0  0  0  0  0  0  0  0  0
   -8.9203  -13.9215   -7.2569 H   0  0  0  0  0  0  0  0  0  0  0  0
  -10.3145  -11.4138   -8.1126 H   0  0  0  0  0  0  0  0  0  0  0  0
  -10.5790  -12.4144   -6.7224 H   0  0  0  0  0  0  0  0  0  0  0  0
   -9.4879  -10.0073   -6.6586 H   0  0  0  0  0  0  0  0  0  0  0  0
   -8.9481  -11.2050   -5.5234 H   0  0  0  0  0  0  0  0  0  0  0  0
   -6.7588   -8.3895   -8.2680 H   0  0  0  0  0  0  0  0  0  0  0  0
   -8.3804   -8.4451   -7.6296 H   0  0  0  0  0  0  0  0  0  0  0  0
   -5.4748   -8.1146   -5.3544 H   0  0  0  0  0  0  0  0  0  0  0  0
   -5.0860   -6.1199   -3.9516 H   0  0  0  0  0  0  0  0  0  0  0  0
   -6.4345   -4.0494   -4.3067 H   0  0  0  0  0  0  0  0  0  0  0  0
   -8.1916   -4.0075   -6.0687 H   0  0  0  0  0  0  0  0  0  0  0  0
   -8.5938   -6.0179   -7.4734 H   0  0  0  0  0  0  0  0  0  0  0  0
   -7.7434  -10.7252   -9.3600 H   0  0  0  0  0  0  0  0  0  0  0  0
   -6.6488  -12.6079   -6.0147 H   0  0  0  0  0  0  0  0  0  0  0  0
   -5.9543  -13.4275   -9.0589 H   0  0  0  0  0  0  0  0  0  0  0  0
  1  2  1  0
  1 22  1  0
  1 23  1  0
  1 24  1  0
  2  3  1  0
  3 20  1  0
  3  4  1  0
  3 25  1  1
  4  5  1  0
  4 26  1  0
  4 27  1  0
  5  6  1  0
  5 28  1  0
  5 29  1  0
  6 19  1  0
  6  7  1  1
  6 15  1  0
  7  8  1  0
  8  9  1  0
  8 30  1  0
  8 31  1  0
  9 14  1  0
  9 10  2  0
 10 11  1  0
 10 32  1  0
 11 12  2  0
 11 33  1  0
 12 13  1  0
 12 34  1  0
 13 14  2  0
 13 35  1  0
 14 36  1  0
 15 20  1  0
 15 16  1  0
 15 37  1  6
 16 17  1  0
 17 18  2  0
 17 19  1  0
 19 20  1  0
 19 38  1  1
 20 21  1  6
 21 39  1  0
M  END
>  <i_m_ct_stereo_status>  (94) 
1

>  <s_m_source_file>  (94) 
/var/tmp/pbs.5076255.sched01/tmp4ovtozgc/0905bh7x9.sdf

>  <i_m_source_file_index>  (94) 
37

>  <i_lp_mmshare_version>  (94) 
48012

>  <i_f3d_flags>  (94) 
0

>  <s_epik_input>  (94) 
W0NIM11PW0NASF0oW0NIMl1bQ0gyXTEpW0NAXShbT0hdKShbQ0BIXTJDKE8zKT1PKVtDQEhdM1tDQEBdMTJPW0NIMl1jNFtjSF1bY0hdW2NIXVtjSF1bY0hdNA==

>  <s_epik_cmdline>  (94) 
J2VwaWtfcHl0aG9uJywgJy1waHQnLCAnMi4wJywgJy1waCcsICc3LjAnLCAnLXRuJywgJzgnLCAnLW1hJywgJzIwMCcsICctaW1hZScsICc8aW5maWxlLm1hZT4nLCAnLW9tYWUnLCAnPG91dGZpbGUubWFlPic=

>  <r_lp_tautomer_probability>  (94) 
1

>  <r_epik_Ionization_Penalty>  (94) 
6.79815e-06

>  <r_epik_Ionization_Penalty_Charging>  (94) 
0

>  <r_epik_Ionization_Penalty_Neutral>  (94) 
6.79815e-06

>  <r_epik_State_Penalty>  (94) 
-0

>  <r_epik_Charging_Adjusted_Penalty>  (94) 
0

>  <i_epik_Tot_Q>  (94) 
0

>  <i_epik_Tot_abs_Q>  (94) 
0

>  <s_epik_Chemistry_Notes>  (94) 
This compound has an ester and may undergo hydrolysis at high or low pH.

>  <s_lp_Force_Field>  (94) 
OPLS3e

>  <r_lp_Energy>  (94) 
46.9747

>  <b_lp_Chiralities_Consistent>  (94) 
1

>  <s_lp_Variant>  (94) 
26:0-1

>  <s_i_glide_gridfile>  (94) 
pfpi4k_grid

>  <i_i_glide_lignum>  (94) 
37

>  <i_i_glide_rotatable_bonds>  (94) 
5

>  <r_i_docking_score>  (94) 
-4.84573

>  <r_i_glide_ligand_efficiency>  (94) 
-0.230749

>  <r_i_glide_ligand_efficiency_sa>  (94) 
-0.63662

>  <r_i_glide_ligand_efficiency_ln>  (94) 
-1.1981

>  <r_i_glide_gscore>  (94) 
-4.84573

>  <r_i_glide_lipo>  (94) 
-2.43657

>  <r_i_glide_hbond>  (94) 
0

>  <r_i_glide_metal>  (94) 
-0

>  <r_i_glide_rewards>  (94) 
-1.89222

>  <r_i_glide_evdw>  (94) 
-24.3898

>  <r_i_glide_ecoul>  (94) 
0.359312

>  <r_i_glide_erotb>  (94) 
0.648653

>  <r_i_glide_esite>  (94) 
0

>  <r_i_glide_emodel>  (94) 
-30.5503

>  <r_i_glide_energy>  (94) 
-24.0305

>  <r_i_glide_einternal>  (94) 
5.8066

>  <r_i_glide_intrahb_reward>  (94) 
-0

>  <i_i_glide_confnum>  (94) 
3

>  <i_i_glide_posenum>  (94) 
13

>  <r_i_glide_eff_state_penalty>  (94) 
0

>  <ligand_id>  (94) 
26

>  <original_smiles>  (94) 
COC1CCC2(OCc3ccccc3)C3OC(=O)C2C13O

>  <smiles>  (94) 
[H]OC12C([H])(OC([H])([H])[H])C([H])([H])C([H])([H])C3(OC([H])([H])c4c([H])c([H])c([H])c([H])c4[H])C1([H])OC(=O)C32[H]

$$$$
26:0:1
     RDKit          3D

 39 42  0  0  1  0  0  0  0  0999 V2000
    4.1385   -0.7905   -3.5641 C   0  0  0  0  0  0  0  0  0  0  0  0
    4.1876   -2.1677   -3.9547 O   0  0  0  0  0  0  0  0  0  0  0  0
    4.0167   -3.1538   -2.9276 C   0  0  2  0  0  0  0  0  0  0  0  0
    2.5201   -3.2052   -2.5427 C   0  0  0  0  0  0  0  0  0  0  0  0
    2.3301   -3.5540   -1.0702 C   0  0  0  0  0  0  0  0  0  0  0  0
    3.5298   -3.1221   -0.2011 C   0  0  2  0  0  0  0  0  0  0  0  0
    3.1170   -3.1225    1.1678 O   0  0  0  0  0  0  0  0  0  0  0  0
    2.4279   -1.9427    1.5932 C   0  0  0  0  0  0  0  0  0  0  0  0
    2.2155   -1.9439    3.0894 C   0  0  0  0  0  0  0  0  0  0  0  0
    2.6410   -0.8525    3.8756 C   0  0  0  0  0  0  0  0  0  0  0  0
    2.4417   -0.8683    5.2667 C   0  0  0  0  0  0  0  0  0  0  0  0
    1.8097   -1.9674    5.8772 C   0  0  0  0  0  0  0  0  0  0  0  0
    1.3707   -3.0542    5.0919 C   0  0  0  0  0  0  0  0  0  0  0  0
    1.5730   -3.0381    3.6991 C   0  0  0  0  0  0  0  0  0  0  0  0
    4.4841   -1.9492   -0.5809 C   0  0  1  0  0  0  0  0  0  0  0  0
    5.5192   -1.9763    0.4065 O   0  0  0  0  0  0  0  0  0  0  0  0
    5.8437   -3.2457    0.5350 C   0  0  0  0  0  0  0  0  0  0  0  0
    6.7031   -3.7351    1.2599 O   0  0  0  0  0  0  0  0  0  0  0  0
    4.8907   -3.8142   -0.4440 C   0  0  2  0  0  0  0  0  0  0  0  0
    4.9513   -2.9106   -1.7019 C   0  0  1  0  0  0  0  0  0  0  0  0
    6.2441   -2.6992   -2.2581 O   0  0  0  0  0  0  0  0  0  0  0  0
    4.3237   -0.1572   -4.4267 H   0  0  0  0  0  0  0  0  0  0  0  0
    4.9126   -0.5376   -2.8391 H   0  0  0  0  0  0  0  0  0  0  0  0
    3.1814   -0.5015   -3.1394 H   0  0  0  0  0  0  0  0  0  0  0  0
    4.2580   -4.1254   -3.3632 H   0  0  0  0  0  0  0  0  0  0  0  0
    2.0425   -2.2389   -2.6753 H   0  0  0  0  0  0  0  0  0  0  0  0
    1.9489   -3.8782   -3.1922 H   0  0  0  0  0  0  0  0  0  0  0  0
    1.4110   -3.0764   -0.7480 H   0  0  0  0  0  0  0  0  0  0  0  0
    2.1654   -4.6268   -0.9543 H   0  0  0  0  0  0  0  0  0  0  0  0
    2.9670   -1.0383    1.3122 H   0  0  0  0  0  0  0  0  0  0  0  0
    1.4457   -1.8809    1.1376 H   0  0  0  0  0  0  0  0  0  0  0  0
    3.1226   -0.0063    3.4102 H   0  0  0  0  0  0  0  0  0  0  0  0
    2.7828   -0.0376    5.8661 H   0  0  0  0  0  0  0  0  0  0  0  0
    1.6732   -1.9868    6.9471 H   0  0  0  0  0  0  0  0  0  0  0  0
    0.8917   -3.9016    5.5586 H   0  0  0  0  0  0  0  0  0  0  0  0
    1.2385   -3.8687    3.0933 H   0  0  0  0  0  0  0  0  0  0  0  0
    4.0019   -1.0107   -0.8571 H   0  0  0  0  0  0  0  0  0  0  0  0
    4.8647   -4.8901   -0.6162 H   0  0  0  0  0  0  0  0  0  0  0  0
    6.4764   -3.4651   -2.7503 H   0  0  0  0  0  0  0  0  0  0  0  0
  1  2  1  0
  1 22  1  0
  1 23  1  0
  1 24  1  0
  2  3  1  0
  3 20  1  0
  3  4  1  0
  3 25  1  6
  4  5  1  0
  4 26  1  0
  4 27  1  0
  5  6  1  0
  5 28  1  0
  5 29  1  0
  6 19  1  0
  6  7  1  1
  6 15  1  0
  7  8  1  0
  8  9  1  0
  8 30  1  0
  8 31  1  0
  9 14  1  0
  9 10  2  0
 10 11  1  0
 10 32  1  0
 11 12  2  0
 11 33  1  0
 12 13  1  0
 12 34  1  0
 13 14  2  0
 13 35  1  0
 14 36  1  0
 15 20  1  0
 15 16  1  0
 15 37  1  6
 16 17  1  0
 17 18  2  0
 17 19  1  0
 19 20  1  0
 19 38  1  6
 20 21  1  6
 21 39  1  0
M  END
>  <i_m_ct_stereo_status>  (95) 
1

>  <s_m_source_file>  (95) 
/var/tmp/pbs.5076255.sched01/tmp4ovtozgc/0905bh7x9.sdf

>  <i_m_source_file_index>  (95) 
37

>  <i_lp_mmshare_version>  (95) 
48012

>  <i_f3d_flags>  (95) 
0

>  <s_epik_input>  (95) 
W0NIM11PW0NASF0oW0NIMl1bQ0gyXTEpW0NAXShbT0hdKShbQ0BIXTJDKE8zKT1PKVtDQEhdM1tDQEBdMTJPW0NIMl1jNFtjSF1bY0hdW2NIXVtjSF1bY0hdNA==

>  <s_epik_cmdline>  (95) 
J2VwaWtfcHl0aG9uJywgJy1waHQnLCAnMi4wJywgJy1waCcsICc3LjAnLCAnLXRuJywgJzgnLCAnLW1hJywgJzIwMCcsICctaW1hZScsICc8aW5maWxlLm1hZT4nLCAnLW9tYWUnLCAnPG91dGZpbGUubWFlPic=

>  <r_lp_tautomer_probability>  (95) 
1

>  <r_epik_Ionization_Penalty>  (95) 
6.79815e-06

>  <r_epik_Ionization_Penalty_Charging>  (95) 
0

>  <r_epik_Ionization_Penalty_Neutral>  (95) 
6.79815e-06

>  <r_epik_State_Penalty>  (95) 
-0

>  <r_epik_Charging_Adjusted_Penalty>  (95) 
0

>  <i_epik_Tot_Q>  (95) 
0

>  <i_epik_Tot_abs_Q>  (95) 
0

>  <s_epik_Chemistry_Notes>  (95) 
This compound has an ester and may undergo hydrolysis at high or low pH.

>  <s_lp_Force_Field>  (95) 
OPLS3e

>  <r_lp_Energy>  (95) 
46.9747

>  <b_lp_Chiralities_Consistent>  (95) 
1

>  <s_lp_Variant>  (95) 
26:0-1

>  <s_i_glide_gridfile>  (95) 
pfpi4k_grid

>  <i_i_glide_lignum>  (95) 
37

>  <i_i_glide_rotatable_bonds>  (95) 
5

>  <r_i_docking_score>  (95) 
-3.37496

>  <r_i_glide_ligand_efficiency>  (95) 
-0.160712

>  <r_i_glide_ligand_efficiency_sa>  (95) 
-0.443393

>  <r_i_glide_ligand_efficiency_ln>  (95) 
-0.834452

>  <r_i_glide_gscore>  (95) 
-3.37496

>  <r_i_glide_lipo>  (95) 
-0.410805

>  <r_i_glide_hbond>  (95) 
-0.187837

>  <r_i_glide_metal>  (95) 
-0

>  <r_i_glide_rewards>  (95) 
-1.51557

>  <r_i_glide_evdw>  (95) 
-21.679

>  <r_i_glide_ecoul>  (95) 
-5.503

>  <r_i_glide_erotb>  (95) 
0.648653

>  <r_i_glide_esite>  (95) 
0

>  <r_i_glide_emodel>  (95) 
-31.1025

>  <r_i_glide_energy>  (95) 
-27.182

>  <r_i_glide_einternal>  (95) 
5.28302

>  <r_i_glide_intrahb_reward>  (95) 
-0

>  <i_i_glide_confnum>  (95) 
3

>  <i_i_glide_posenum>  (95) 
3

>  <r_i_glide_eff_state_penalty>  (95) 
0

>  <ligand_id>  (95) 
26

>  <original_smiles>  (95) 
COC1CCC2(OCc3ccccc3)C3OC(=O)C2C13O

>  <smiles>  (95) 
[H]OC12C([H])(OC([H])([H])[H])C([H])([H])C([H])([H])C3(OC([H])([H])c4c([H])c([H])c([H])c([H])c4[H])C1([H])OC(=O)C32[H]

$$$$
26:0:2
     RDKit          3D

 39 42  0  0  1  0  0  0  0  0999 V2000
    4.1825   -0.8571   -3.4993 C   0  0  0  0  0  0  0  0  0  0  0  0
    4.1894   -2.2609   -3.7765 O   0  0  0  0  0  0  0  0  0  0  0  0
    4.1334   -3.1592   -2.6582 C   0  0  2  0  0  0  0  0  0  0  0  0
    2.6920   -3.1586   -2.0930 C   0  0  0  0  0  0  0  0  0  0  0  0
    2.6818   -3.3838   -0.5830 C   0  0  0  0  0  0  0  0  0  0  0  0
    3.9788   -2.9032    0.0939 C   0  0  2  0  0  0  0  0  0  0  0  0
    3.7495   -2.7629    1.4972 O   0  0  0  0  0  0  0  0  0  0  0  0
    3.1325   -1.5356    1.8947 C   0  0  0  0  0  0  0  0  0  0  0  0
    3.6123   -1.1203    3.2700 C   0  0  0  0  0  0  0  0  0  0  0  0
    4.8689   -0.4971    3.4253 C   0  0  0  0  0  0  0  0  0  0  0  0
    5.3225   -0.1177    4.7011 C   0  0  0  0  0  0  0  0  0  0  0  0
    4.5229   -0.3721    5.8344 C   0  0  0  0  0  0  0  0  0  0  0  0
    3.2704   -0.9982    5.6834 C   0  0  0  0  0  0  0  0  0  0  0  0
    2.8176   -1.3747    4.4068 C   0  0  0  0  0  0  0  0  0  0  0  0
    4.8957   -1.7874   -0.4928 C   0  0  1  0  0  0  0  0  0  0  0  0
    6.0416   -1.7616    0.3624 O   0  0  0  0  0  0  0  0  0  0  0  0
    6.3582   -3.0253    0.5493 C   0  0  0  0  0  0  0  0  0  0  0  0
    7.2919   -3.4820    1.1988 O   0  0  0  0  0  0  0  0  0  0  0  0
    5.2883   -3.6429   -0.2520 C   0  0  2  0  0  0  0  0  0  0  0  0
    5.2115   -2.8437   -1.5772 C   0  0  1  0  0  0  0  0  0  0  0  0
    6.4341   -2.6918   -2.2909 O   0  0  0  0  0  0  0  0  0  0  0  0
    4.2756   -0.2955   -4.4237 H   0  0  0  0  0  0  0  0  0  0  0  0
    5.0234   -0.5568   -2.8815 H   0  0  0  0  0  0  0  0  0  0  0  0
    3.2799   -0.5262   -2.9944 H   0  0  0  0  0  0  0  0  0  0  0  0
    4.3215   -4.1654   -3.0425 H   0  0  0  0  0  0  0  0  0  0  0  0
    2.2092   -2.2034   -2.2595 H   0  0  0  0  0  0  0  0  0  0  0  0
    2.0468   -3.8737   -2.6197 H   0  0  0  0  0  0  0  0  0  0  0  0
    1.8201   -2.8731   -0.1633 H   0  0  0  0  0  0  0  0  0  0  0  0
    2.5244   -4.4424   -0.3687 H   0  0  0  0  0  0  0  0  0  0  0  0
    3.3609   -0.7047    1.2281 H   0  0  0  0  0  0  0  0  0  0  0  0
    2.0478   -1.6469    1.8724 H   0  0  0  0  0  0  0  0  0  0  0  0
    5.4858   -0.2976    2.5610 H   0  0  0  0  0  0  0  0  0  0  0  0
    6.2842    0.3596    4.8153 H   0  0  0  0  0  0  0  0  0  0  0  0
    4.8735   -0.0966    6.8164 H   0  0  0  0  0  0  0  0  0  0  0  0
    2.6579   -1.1967    6.5505 H   0  0  0  0  0  0  0  0  0  0  0  0
    1.8571   -1.8512    4.2910 H   0  0  0  0  0  0  0  0  0  0  0  0
    4.3988   -0.8613   -0.7921 H   0  0  0  0  0  0  0  0  0  0  0  0
    5.2321   -4.7303   -0.3269 H   0  0  0  0  0  0  0  0  0  0  0  0
    6.6287   -3.5041   -2.7200 H   0  0  0  0  0  0  0  0  0  0  0  0
  1  2  1  0
  1 22  1  0
  1 23  1  0
  1 24  1  0
  2  3  1  0
  3 20  1  0
  3  4  1  0
  3 25  1  6
  4  5  1  0
  4 26  1  0
  4 27  1  0
  5  6  1  0
  5 28  1  0
  5 29  1  0
  6 19  1  0
  6  7  1  1
  6 15  1  0
  7  8  1  0
  8  9  1  0
  8 30  1  0
  8 31  1  0
  9 14  1  0
  9 10  2  0
 10 11  1  0
 10 32  1  0
 11 12  2  0
 11 33  1  0
 12 13  1  0
 12 34  1  0
 13 14  2  0
 13 35  1  0
 14 36  1  0
 15 20  1  0
 15 16  1  0
 15 37  1  6
 16 17  1  0
 17 18  2  0
 17 19  1  0
 19 20  1  0
 19 38  1  6
 20 21  1  6
 21 39  1  0
M  END
>  <i_m_ct_stereo_status>  (96) 
1

>  <s_m_source_file>  (96) 
/var/tmp/pbs.5076255.sched01/tmp4ovtozgc/0905bh7x9.sdf

>  <i_m_source_file_index>  (96) 
37

>  <i_lp_mmshare_version>  (96) 
48012

>  <i_f3d_flags>  (96) 
0

>  <s_epik_input>  (96) 
W0NIM11PW0NASF0oW0NIMl1bQ0gyXTEpW0NAXShbT0hdKShbQ0BIXTJDKE8zKT1PKVtDQEhdM1tDQEBdMTJPW0NIMl1jNFtjSF1bY0hdW2NIXVtjSF1bY0hdNA==

>  <s_epik_cmdline>  (96) 
J2VwaWtfcHl0aG9uJywgJy1waHQnLCAnMi4wJywgJy1waCcsICc3LjAnLCAnLXRuJywgJzgnLCAnLW1hJywgJzIwMCcsICctaW1hZScsICc8aW5maWxlLm1hZT4nLCAnLW9tYWUnLCAnPG91dGZpbGUubWFlPic=

>  <r_lp_tautomer_probability>  (96) 
1

>  <r_epik_Ionization_Penalty>  (96) 
6.79815e-06

>  <r_epik_Ionization_Penalty_Charging>  (96) 
0

>  <r_epik_Ionization_Penalty_Neutral>  (96) 
6.79815e-06

>  <r_epik_State_Penalty>  (96) 
-0

>  <r_epik_Charging_Adjusted_Penalty>  (96) 
0

>  <i_epik_Tot_Q>  (96) 
0

>  <i_epik_Tot_abs_Q>  (96) 
0

>  <s_epik_Chemistry_Notes>  (96) 
This compound has an ester and may undergo hydrolysis at high or low pH.

>  <s_lp_Force_Field>  (96) 
OPLS3e

>  <r_lp_Energy>  (96) 
46.9747

>  <b_lp_Chiralities_Consistent>  (96) 
1

>  <s_lp_Variant>  (96) 
26:0-1

>  <s_i_glide_gridfile>  (96) 
pfpi4k_grid

>  <i_i_glide_lignum>  (96) 
37

>  <i_i_glide_rotatable_bonds>  (96) 
5

>  <r_i_docking_score>  (96) 
-3.24684

>  <r_i_glide_ligand_efficiency>  (96) 
-0.154611

>  <r_i_glide_ligand_efficiency_sa>  (96) 
-0.426561

>  <r_i_glide_ligand_efficiency_ln>  (96) 
-0.802774

>  <r_i_glide_gscore>  (96) 
-3.24684

>  <r_i_glide_lipo>  (96) 
-0.50007

>  <r_i_glide_hbond>  (96) 
-0.053126

>  <r_i_glide_metal>  (96) 
-0

>  <r_i_glide_rewards>  (96) 
-1.54363

>  <r_i_glide_evdw>  (96) 
-21.3631

>  <r_i_glide_ecoul>  (96) 
-4.87004

>  <r_i_glide_erotb>  (96) 
0.648653

>  <r_i_glide_esite>  (96) 
0

>  <r_i_glide_emodel>  (96) 
-29.0961

>  <r_i_glide_energy>  (96) 
-26.2331

>  <r_i_glide_einternal>  (96) 
6.70711

>  <r_i_glide_intrahb_reward>  (96) 
-0

>  <i_i_glide_confnum>  (96) 
2

>  <i_i_glide_posenum>  (96) 
16

>  <r_i_glide_eff_state_penalty>  (96) 
0

>  <ligand_id>  (96) 
26

>  <original_smiles>  (96) 
COC1CCC2(OCc3ccccc3)C3OC(=O)C2C13O

>  <smiles>  (96) 
[H]OC12C([H])(OC([H])([H])[H])C([H])([H])C([H])([H])C3(OC([H])([H])c4c([H])c([H])c([H])c([H])c4[H])C1([H])OC(=O)C32[H]

$$$$
27:0:0
     RDKit          3D

 61 66  0  0  1  0  0  0  0  0999 V2000
    8.7014   -6.0621    2.6754 C   0  0  0  0  0  0  0  0  0  0  0  0
    7.2986   -5.7871    2.2873 N   0  0  1  0  0  0  0  0  0  0  0  0
    6.9530   -6.4922    0.9527 C   0  0  0  0  0  0  0  0  0  0  0  0
    5.3770   -6.4912    0.5887 C   0  0  0  0  0  0  0  0  0  0  0  0
    4.7413   -5.5166    1.6071 C   0  0  2  0  0  0  0  0  0  0  0  0
    5.1954   -6.4996    2.7202 C   0  0  0  0  0  0  0  0  0  0  0  0
    4.3356   -7.3843    3.2166 C   0  0  0  0  0  0  0  0  0  0  0  0
    3.0143   -6.8485    2.8337 C   0  0  1  0  0  0  0  0  0  0  0  0
    1.9624   -6.9562    3.9615 C   0  0  0  0  0  0  0  0  0  0  0  0
    0.7079   -7.6920    3.5221 C   0  0  0  0  0  0  0  0  0  0  0  0
   -0.5614   -7.1148    3.7275 C   0  0  0  0  0  0  0  0  0  0  0  0
   -1.7223   -7.7995    3.3191 C   0  0  0  0  0  0  0  0  0  0  0  0
   -1.6170   -9.0562    2.6932 C   0  0  0  0  0  0  0  0  0  0  0  0
   -0.3548   -9.6390    2.4989 C   0  0  0  0  0  0  0  0  0  0  0  0
    0.8053   -8.9627    2.9143 C   0  0  0  0  0  0  0  0  0  0  0  0
    3.4466   -5.3937    2.4319 C   0  0  2  0  0  0  0  0  0  0  0  0
    2.2728   -4.7070    1.6706 C   0  0  0  0  0  0  0  0  0  0  0  0
    1.8341   -5.4602    0.5534 O   0  0  0  0  0  0  0  0  0  0  0  0
    4.0887   -4.5384    3.7043 C   0  0  2  0  0  0  0  0  0  0  0  0
    4.1492   -3.0663    3.3391 C   0  0  0  0  0  0  0  0  0  0  0  0
    4.9727   -2.9073    2.0844 C   0  0  0  0  0  0  0  0  0  0  0  0
    5.4133   -1.6093    1.7625 C   0  0  0  0  0  0  0  0  0  0  0  0
    6.1483   -1.3860    0.5910 C   0  0  0  0  0  0  0  0  0  0  0  0
    6.4129   -2.4585   -0.2738 C   0  0  0  0  0  0  0  0  0  0  0  0
    7.0977   -2.2600   -1.4393 O   0  0  0  0  0  0  0  0  0  0  0  0
    5.9603   -3.7487    0.0475 C   0  0  0  0  0  0  0  0  0  0  0  0
    5.2648   -4.0386    1.2589 C   0  0  0  0  0  0  0  0  0  0  0  0
    5.5757   -4.8397    4.0665 N   0  0  0  0  0  0  0  0  0  0  0  0
    5.7109   -4.8918    5.5234 C   0  0  0  0  0  0  0  0  0  0  0  0
    6.3126   -6.0019    3.4327 C   0  0  2  0  0  0  0  0  0  0  0  0
    8.8279   -7.1174    2.9325 H   0  0  0  0  0  0  0  0  0  0  0  0
    9.0041   -5.4528    3.5305 H   0  0  0  0  0  0  0  0  0  0  0  0
    9.3818   -5.8459    1.8469 H   0  0  0  0  0  0  0  0  0  0  0  0
    7.5386   -6.0559    0.1393 H   0  0  0  0  0  0  0  0  0  0  0  0
    7.2703   -7.5343    1.0197 H   0  0  0  0  0  0  0  0  0  0  0  0
    5.1557   -6.2383   -0.4476 H   0  0  0  0  0  0  0  0  0  0  0  0
    4.9860   -7.5121    0.6609 H   0  0  0  0  0  0  0  0  0  0  0  0
    4.4925   -7.9763    4.1071 H   0  0  0  0  0  0  0  0  0  0  0  0
    2.7106   -7.4054    1.9473 H   0  0  0  0  0  0  0  0  0  0  0  0
    2.3676   -7.4832    4.8279 H   0  0  0  0  0  0  0  0  0  0  0  0
    1.6891   -5.9639    4.3181 H   0  0  0  0  0  0  0  0  0  0  0  0
   -0.6453   -6.1541    4.2152 H   0  0  0  0  0  0  0  0  0  0  0  0
   -2.6959   -7.3821    3.5046 H   0  0  0  0  0  0  0  0  0  0  0  0
   -2.5075   -9.5831    2.3874 H   0  0  0  0  0  0  0  0  0  0  0  0
   -0.2696  -10.6113    2.0342 H   0  0  0  0  0  0  0  0  0  0  0  0
    1.7678   -9.4262    2.7547 H   0  0  0  0  0  0  0  0  0  0  0  0
    1.4302   -4.5647    2.3475 H   0  0  0  0  0  0  0  0  0  0  0  0
    2.5407   -3.7219    1.2942 H   0  0  0  0  0  0  0  0  0  0  0  0
    2.5391   -5.5022   -0.0808 H   0  0  0  0  0  0  0  0  0  0  0  0
    3.4596   -4.6616    4.5823 H   0  0  0  0  0  0  0  0  0  0  0  0
    3.1467   -2.6719    3.1756 H   0  0  0  0  0  0  0  0  0  0  0  0
    4.5607   -2.4736    4.1556 H   0  0  0  0  0  0  0  0  0  0  0  0
    5.1696   -0.7787    2.4152 H   0  0  0  0  0  0  0  0  0  0  0  0
    6.4884   -0.3866    0.3593 H   0  0  0  0  0  0  0  0  0  0  0  0
    7.2193   -3.0407   -1.9509 H   0  0  0  0  0  0  0  0  0  0  0  0
    6.1737   -4.5023   -0.6883 H   0  0  0  0  0  0  0  0  0  0  0  0
    6.7581   -4.9544    5.8298 H   0  0  0  0  0  0  0  0  0  0  0  0
    5.1856   -5.7657    5.9150 H   0  0  0  0  0  0  0  0  0  0  0  0
    5.2752   -4.0083    5.9936 H   0  0  0  0  0  0  0  0  0  0  0  0
    6.6700   -6.7293    4.1620 H   0  0  0  0  0  0  0  0  0  0  0  0
    7.2348   -4.8000    2.0768 H   0  0  0  0  0  0  0  0  0  0  0  0
  1  2  1  0
  1 31  1  0
  1 32  1  0
  1 33  1  0
  2 30  1  0
  2  3  1  0
  2 61  1  6
  3  4  1  0
  3 34  1  0
  3 35  1  0
  5  4  1  6
  4 36  1  0
  4 37  1  0
  5 16  1  0
  5 27  1  0
  5  6  1  0
  6 30  1  0
  6  7  2  0
  7  8  1  0
  7 38  1  0
  8  9  1  0
  8 16  1  0
  8 39  1  6
  9 10  1  0
  9 40  1  0
  9 41  1  0
 10 15  1  0
 10 11  2  0
 11 12  1  0
 11 42  1  0
 12 13  2  0
 12 43  1  0
 13 14  1  0
 13 44  1  0
 14 15  2  0
 14 45  1  0
 15 46  1  0
 16 17  1  6
 16 19  1  0
 17 18  1  0
 17 47  1  0
 17 48  1  0
 18 49  1  0
 19 20  1  0
 19 28  1  0
 19 50  1  1
 20 21  1  0
 20 51  1  0
 20 52  1  0
 21 27  2  0
 21 22  1  0
 22 23  2  0
 22 53  1  0
 23 24  1  0
 23 54  1  0
 24 25  1  0
 24 26  2  0
 25 55  1  0
 26 27  1  0
 26 56  1  0
 28 29  1  0
 28 30  1  0
 29 57  1  0
 29 58  1  0
 29 59  1  0
 30 60  1  1
M  CHG  1   2   1
M  END
>  <i_m_ct_stereo_status>  (97) 
1

>  <s_m_source_file>  (97) 
/var/tmp/pbs.5076255.sched01/tmp4ovtozgc/0905bh7x9.sdf

>  <i_m_source_file_index>  (97) 
38

>  <i_lp_mmshare_version>  (97) 
48012

>  <i_f3d_flags>  (97) 
0

>  <s_epik_input>  (97) 
W2NIXTFbY0hdYyhbT0hdKVtjSF1jMmMxW0NIMl1bQ0BIXShOKFtDSDNdKVtDQEBIXShDPTNbQ0BAXTI0NSlOKFtDSDNdKVtDSDJdW0NIMl00KVtDQF01KFtDSDJdW09IXSlbQ0BASF0oW0NIXTMpW0NIMl1jNltjSF1bY0hdW2NIXVtjSF1bY0hdNg==

>  <s_epik_cmdline>  (97) 
J2VwaWtfcHl0aG9uJywgJy1waHQnLCAnMi4wJywgJy1waCcsICc3LjAnLCAnLXRuJywgJzgnLCAnLW1hJywgJzIwMCcsICctaW1hZScsICc8aW5maWxlLm1hZT4nLCAnLW9tYWUnLCAnPG91dGZpbGUubWFlPic=

>  <r_lp_tautomer_probability>  (97) 
1

>  <r_epik_Ionization_Penalty>  (97) 
0.00684902

>  <r_epik_Ionization_Penalty_Charging>  (97) 
0.00626299

>  <r_epik_Ionization_Penalty_Neutral>  (97) 
0.000586028

>  <r_epik_State_Penalty>  (97) 
0.116884

>  <r_epik_Charging_Adjusted_Penalty>  (97) 
0.123147

>  <i_epik_Tot_Q>  (97) 
1

>  <i_epik_Tot_abs_Q>  (97) 
1

>  <s_epik_Chemistry_Notes>  (97) 
This compound contains an acetal/aminal-like group ( X-CH(R)-Y where X, Y are N, S, or O) that may be acid/base labile, releasing an aldehyde.

>  <s_lp_Force_Field>  (97) 
OPLS3e

>  <r_lp_Energy>  (97) 
196.679

>  <b_lp_Chiralities_Consistent>  (97) 
1

>  <s_lp_Variant>  (97) 
27:0-1

>  <s_i_glide_gridfile>  (97) 
pfpi4k_grid

>  <i_i_glide_lignum>  (97) 
38

>  <i_i_glide_rotatable_bonds>  (97) 
5

>  <r_i_docking_score>  (97) 
-3.80196

>  <r_i_glide_ligand_efficiency>  (97) 
-0.126732

>  <r_i_glide_ligand_efficiency_sa>  (97) 
-0.393786

>  <r_i_glide_ligand_efficiency_ln>  (97) 
-0.863847

>  <r_i_glide_gscore>  (97) 
-3.80196

>  <r_i_glide_lipo>  (97) 
-0.701754

>  <r_i_glide_hbond>  (97) 
-0.256869

>  <r_i_glide_metal>  (97) 
-0

>  <r_i_glide_rewards>  (97) 
-0.661186

>  <r_i_glide_evdw>  (97) 
-26.8977

>  <r_i_glide_ecoul>  (97) 
-7.99326

>  <r_i_glide_erotb>  (97) 
0.361721

>  <r_i_glide_esite>  (97) 
0

>  <r_i_glide_emodel>  (97) 
-43.0885

>  <r_i_glide_energy>  (97) 
-34.891

>  <r_i_glide_einternal>  (97) 
1.02718

>  <r_i_glide_intrahb_reward>  (97) 
-0

>  <i_i_glide_confnum>  (97) 
2

>  <i_i_glide_posenum>  (97) 
21

>  <r_i_glide_eff_state_penalty>  (97) 
0

>  <ligand_id>  (97) 
27

>  <original_smiles>  (97) 
CN1CCC23C4=CC(Cc5ccccc5)C2(CO)C(Cc2ccc(O)cc23)N(C)C41

>  <smiles>  (97) 
[H]Oc1c([H])c([H])c2c(c1[H])C13C4=C([H])C([H])(C([H])([H])c5c([H])c([H])c([H])c([H])c5[H])C1(C([H])([H])O[H])C([H])(N(C([H])([H])[H])C4([H])[N+]([H])(C([H])([H])[H])C([H])([H])C3([H])[H])C2([H])[H]

$$$$
27:0:1
     RDKit          3D

 61 66  0  0  1  0  0  0  0  0999 V2000
    8.6705   -5.5900    2.2300 C   0  0  0  0  0  0  0  0  0  0  0  0
    7.1990   -5.5220    2.1106 N   0  0  1  0  0  0  0  0  0  0  0  0
    6.7467   -5.7379    0.6453 C   0  0  0  0  0  0  0  0  0  0  0  0
    5.1709   -5.9704    0.4428 C   0  0  0  0  0  0  0  0  0  0  0  0
    4.5701   -5.6124    1.8110 C   0  0  2  0  0  0  0  0  0  0  0  0
    5.3536   -6.8192    2.4066 C   0  0  0  0  0  0  0  0  0  0  0  0
    4.7400   -7.9829    2.6041 C   0  0  0  0  0  0  0  0  0  0  0  0
    3.2907   -7.6566    2.5867 C   0  0  1  0  0  0  0  0  0  0  0  0
    2.5159   -8.4322    3.6948 C   0  0  0  0  0  0  0  0  0  0  0  0
    0.9931   -8.3139    3.5952 C   0  0  0  0  0  0  0  0  0  0  0  0
    0.2797   -9.1099    2.6809 C   0  0  0  0  0  0  0  0  0  0  0  0
   -1.1247   -8.9235    2.5262 C   0  0  0  0  0  0  0  0  0  0  0  0
   -1.7883   -7.9322    3.2759 C   0  0  0  0  0  0  0  0  0  0  0  0
   -1.0699   -7.1475    4.1913 C   0  0  0  0  0  0  0  0  0  0  0  0
    0.3077   -7.3598    4.3735 C   0  0  0  0  0  0  0  0  0  0  0  0
    3.4113   -6.0724    2.7203 C   0  0  2  0  0  0  0  0  0  0  0  0
    2.0699   -5.3431    2.3430 C   0  0  0  0  0  0  0  0  0  0  0  0
    1.5703   -5.8283    1.0881 O   0  0  0  0  0  0  0  0  0  0  0  0
    4.1207   -5.6264    4.1610 C   0  0  2  0  0  0  0  0  0  0  0  0
    3.8609   -4.1573    4.4079 C   0  0  0  0  0  0  0  0  0  0  0  0
    4.4222   -3.3698    3.2507 C   0  0  0  0  0  0  0  0  0  0  0  0
    4.5398   -1.9773    3.4300 C   0  0  0  0  0  0  0  0  0  0  0  0
    5.0104   -1.1769    2.3773 C   0  0  0  0  0  0  0  0  0  0  0  0
    5.3212   -1.7774    1.1412 C   0  0  0  0  0  0  0  0  0  0  0  0
    5.7447   -1.0195    0.0943 O   0  0  0  0  0  0  0  0  0  0  0  0
    5.1766   -3.1607    0.9676 C   0  0  0  0  0  0  0  0  0  0  0  0
    4.7634   -4.0235    2.0223 C   0  0  0  0  0  0  0  0  0  0  0  0
    5.6673   -5.6980    4.2535 N   0  0  0  0  0  0  0  0  0  0  0  0
    6.0607   -6.2366    5.5452 C   0  0  0  0  0  0  0  0  0  0  0  0
    6.4752   -6.3644    3.1601 C   0  0  2  0  0  0  0  0  0  0  0  0
    9.0144   -6.6082    2.0380 H   0  0  0  0  0  0  0  0  0  0  0  0
    9.0099   -5.2919    3.2238 H   0  0  0  0  0  0  0  0  0  0  0  0
    9.1380   -4.9367    1.4954 H   0  0  0  0  0  0  0  0  0  0  0  0
    7.1036   -4.9032    0.0428 H   0  0  0  0  0  0  0  0  0  0  0  0
    7.2751   -6.6224    0.2973 H   0  0  0  0  0  0  0  0  0  0  0  0
    4.7514   -5.4171   -0.3884 H   0  0  0  0  0  0  0  0  0  0  0  0
    4.9916   -7.0051    0.1606 H   0  0  0  0  0  0  0  0  0  0  0  0
    5.1608   -8.7795    3.2009 H   0  0  0  0  0  0  0  0  0  0  0  0
    2.9393   -7.9793    1.5983 H   0  0  0  0  0  0  0  0  0  0  0  0
    2.7752   -9.4945    3.5991 H   0  0  0  0  0  0  0  0  0  0  0  0
    2.8477   -8.1276    4.6902 H   0  0  0  0  0  0  0  0  0  0  0  0
    0.7913   -9.8274    2.0663 H   0  0  0  0  0  0  0  0  0  0  0  0
   -1.6616   -9.5444    1.8299 H   0  0  0  0  0  0  0  0  0  0  0  0
   -2.8514   -7.7682    3.1319 H   0  0  0  0  0  0  0  0  0  0  0  0
   -1.5574   -6.3430    4.7166 H   0  0  0  0  0  0  0  0  0  0  0  0
    0.8477   -6.7651    5.1048 H   0  0  0  0  0  0  0  0  0  0  0  0
    1.3242   -5.4538    3.0971 H   0  0  0  0  0  0  0  0  0  0  0  0
    2.2063   -4.2514    2.2499 H   0  0  0  0  0  0  0  0  0  0  0  0
    2.2369   -5.7674    0.4114 H   0  0  0  0  0  0  0  0  0  0  0  0
    3.6890   -6.1949    4.9740 H   0  0  0  0  0  0  0  0  0  0  0  0
    2.7939   -3.9835    4.5104 H   0  0  0  0  0  0  0  0  0  0  0  0
    4.2834   -3.8428    5.3555 H   0  0  0  0  0  0  0  0  0  0  0  0
    4.2672   -1.5340    4.3747 H   0  0  0  0  0  0  0  0  0  0  0  0
    5.1197   -0.1164    2.5227 H   0  0  0  0  0  0  0  0  0  0  0  0
    5.6220   -0.0969    0.2457 H   0  0  0  0  0  0  0  0  0  0  0  0
    5.3812   -3.5141   -0.0325 H   0  0  0  0  0  0  0  0  0  0  0  0
    7.1308   -6.1711    5.7136 H   0  0  0  0  0  0  0  0  0  0  0  0
    5.7649   -7.2771    5.6007 H   0  0  0  0  0  0  0  0  0  0  0  0
    5.5618   -5.7147    6.3503 H   0  0  0  0  0  0  0  0  0  0  0  0
    7.0673   -7.2141    3.5102 H   0  0  0  0  0  0  0  0  0  0  0  0
    6.9132   -4.5639    2.3182 H   0  0  0  0  0  0  0  0  0  0  0  0
  1  2  1  0
  1 31  1  0
  1 32  1  0
  1 33  1  0
  2 30  1  0
  2  3  1  0
  2 61  1  1
  3  4  1  0
  3 34  1  0
  3 35  1  0
  5  4  1  6
  4 36  1  0
  4 37  1  0
  5 16  1  0
  5 27  1  0
  5  6  1  0
  6 30  1  0
  6  7  2  0
  7  8  1  0
  7 38  1  0
  8  9  1  0
  8 16  1  0
  8 39  1  6
  9 10  1  0
  9 40  1  0
  9 41  1  0
 10 15  1  0
 10 11  2  0
 11 12  1  0
 11 42  1  0
 12 13  2  0
 12 43  1  0
 13 14  1  0
 13 44  1  0
 14 15  2  0
 14 45  1  0
 15 46  1  0
 16 17  1  6
 16 19  1  0
 17 18  1  0
 17 47  1  0
 17 48  1  0
 18 49  1  0
 19 20  1  0
 19 28  1  0
 19 50  1  1
 20 21  1  0
 20 51  1  0
 20 52  1  0
 21 27  2  0
 21 22  1  0
 22 23  2  0
 22 53  1  0
 23 24  1  0
 23 54  1  0
 24 25  1  0
 24 26  2  0
 25 55  1  0
 26 27  1  0
 26 56  1  0
 28 29  1  0
 28 30  1  0
 29 57  1  0
 29 58  1  0
 29 59  1  0
 30 60  1  1
M  CHG  1   2   1
M  END
>  <i_m_ct_stereo_status>  (98) 
1

>  <s_m_source_file>  (98) 
/var/tmp/pbs.5076255.sched01/tmp4ovtozgc/0905bh7x9.sdf

>  <i_m_source_file_index>  (98) 
38

>  <i_lp_mmshare_version>  (98) 
48012

>  <i_f3d_flags>  (98) 
0

>  <s_epik_input>  (98) 
W2NIXTFbY0hdYyhbT0hdKVtjSF1jMmMxW0NIMl1bQ0BIXShOKFtDSDNdKVtDQEBIXShDPTNbQ0BAXTI0NSlOKFtDSDNdKVtDSDJdW0NIMl00KVtDQF01KFtDSDJdW09IXSlbQ0BASF0oW0NIXTMpW0NIMl1jNltjSF1bY0hdW2NIXVtjSF1bY0hdNg==

>  <s_epik_cmdline>  (98) 
J2VwaWtfcHl0aG9uJywgJy1waHQnLCAnMi4wJywgJy1waCcsICc3LjAnLCAnLXRuJywgJzgnLCAnLW1hJywgJzIwMCcsICctaW1hZScsICc8aW5maWxlLm1hZT4nLCAnLW9tYWUnLCAnPG91dGZpbGUubWFlPic=

>  <r_lp_tautomer_probability>  (98) 
1

>  <r_epik_Ionization_Penalty>  (98) 
0.00684902

>  <r_epik_Ionization_Penalty_Charging>  (98) 
0.00626299

>  <r_epik_Ionization_Penalty_Neutral>  (98) 
0.000586028

>  <r_epik_State_Penalty>  (98) 
0.116884

>  <r_epik_Charging_Adjusted_Penalty>  (98) 
0.123147

>  <i_epik_Tot_Q>  (98) 
1

>  <i_epik_Tot_abs_Q>  (98) 
1

>  <s_epik_Chemistry_Notes>  (98) 
This compound contains an acetal/aminal-like group ( X-CH(R)-Y where X, Y are N, S, or O) that may be acid/base labile, releasing an aldehyde.

>  <s_lp_Force_Field>  (98) 
OPLS3e

>  <r_lp_Energy>  (98) 
196.679

>  <b_lp_Chiralities_Consistent>  (98) 
1

>  <s_lp_Variant>  (98) 
27:0-1

>  <s_i_glide_gridfile>  (98) 
pfpi4k_grid

>  <i_i_glide_lignum>  (98) 
38

>  <i_i_glide_rotatable_bonds>  (98) 
5

>  <r_i_docking_score>  (98) 
-3.12198

>  <r_i_glide_ligand_efficiency>  (98) 
-0.104066

>  <r_i_glide_ligand_efficiency_sa>  (98) 
-0.323358

>  <r_i_glide_ligand_efficiency_ln>  (98) 
-0.709349

>  <r_i_glide_gscore>  (98) 
-3.12198

>  <r_i_glide_lipo>  (98) 
-0.604481

>  <r_i_glide_hbond>  (98) 
-0.132686

>  <r_i_glide_metal>  (98) 
-0

>  <r_i_glide_rewards>  (98) 
-0.664592

>  <r_i_glide_evdw>  (98) 
-25.5056

>  <r_i_glide_ecoul>  (98) 
-5.37778

>  <r_i_glide_erotb>  (98) 
0.361721

>  <r_i_glide_esite>  (98) 
0

>  <r_i_glide_emodel>  (98) 
-36.9165

>  <r_i_glide_energy>  (98) 
-30.8833

>  <r_i_glide_einternal>  (98) 
1.37743

>  <r_i_glide_intrahb_reward>  (98) 
-0

>  <i_i_glide_confnum>  (98) 
5

>  <i_i_glide_posenum>  (98) 
18

>  <r_i_glide_eff_state_penalty>  (98) 
0

>  <ligand_id>  (98) 
27

>  <original_smiles>  (98) 
CN1CCC23C4=CC(Cc5ccccc5)C2(CO)C(Cc2ccc(O)cc23)N(C)C41

>  <smiles>  (98) 
[H]Oc1c([H])c([H])c2c(c1[H])C13C4=C([H])C([H])(C([H])([H])c5c([H])c([H])c([H])c([H])c5[H])C1(C([H])([H])O[H])C([H])(N(C([H])([H])[H])C4([H])[N+]([H])(C([H])([H])[H])C([H])([H])C3([H])[H])C2([H])[H]

$$$$
27:0:2
     RDKit          3D

 61 66  0  0  1  0  0  0  0  0999 V2000
    2.3717    3.6827    3.0416 C   0  0  0  0  0  0  0  0  0  0  0  0
    1.6853    2.4102    3.3725 N   0  0  1  0  0  0  0  0  0  0  0  0
    0.5555    2.1197    2.3548 C   0  0  0  0  0  0  0  0  0  0  0  0
   -0.0590    0.6298    2.4429 C   0  0  0  0  0  0  0  0  0  0  0  0
    0.5240    0.0423    3.7552 C   0  0  2  0  0  0  0  0  0  0  0  0
    1.9250    0.1722    3.1012 C   0  0  0  0  0  0  0  0  0  0  0  0
    2.4853   -0.8866    2.5212 C   0  0  0  0  0  0  0  0  0  0  0  0
    1.7511   -2.0389    3.0912 C   0  0  1  0  0  0  0  0  0  0  0  0
    2.6746   -3.2304    3.4500 C   0  0  0  0  0  0  0  0  0  0  0  0
    2.2250   -4.5304    2.7960 C   0  0  0  0  0  0  0  0  0  0  0  0
    1.4190   -5.4635    3.4865 C   0  0  0  0  0  0  0  0  0  0  0  0
    0.9934   -6.6474    2.8576 C   0  0  0  0  0  0  0  0  0  0  0  0
    1.3979   -6.9249    1.5414 C   0  0  0  0  0  0  0  0  0  0  0  0
    2.2161   -6.0076    0.8548 C   0  0  0  0  0  0  0  0  0  0  0  0
    2.6197   -4.8078    1.4729 C   0  0  0  0  0  0  0  0  0  0  0  0
    1.0556   -1.3018    4.2983 C   0  0  2  0  0  0  0  0  0  0  0  0
   -0.0870   -2.1885    4.8683 C   0  0  0  0  0  0  0  0  0  0  0  0
    0.4161   -3.2518    5.6336 O   0  0  0  0  0  0  0  0  0  0  0  0
    2.1305   -0.6811    5.3998 C   0  0  2  0  0  0  0  0  0  0  0  0
    1.3830   -0.3245    6.6729 C   0  0  0  0  0  0  0  0  0  0  0  0
    0.2899    0.6608    6.3376 C   0  0  0  0  0  0  0  0  0  0  0  0
   -0.2932    1.3572    7.4117 C   0  0  0  0  0  0  0  0  0  0  0  0
   -1.3306    2.2704    7.1782 C   0  0  0  0  0  0  0  0  0  0  0  0
   -1.7971    2.4571    5.8712 C   0  0  0  0  0  0  0  0  0  0  0  0
   -2.8154    3.3298    5.6313 O   0  0  0  0  0  0  0  0  0  0  0  0
   -1.2278    1.7411    4.8058 C   0  0  0  0  0  0  0  0  0  0  0  0
   -0.1234    0.8554    4.9819 C   0  0  0  0  0  0  0  0  0  0  0  0
    2.8100    0.6696    5.0282 N   0  0  0  0  0  0  0  0  0  0  0  0
    4.2276    0.5985    5.3898 C   0  0  0  0  0  0  0  0  0  0  0  0
    2.6552    1.2618    3.6415 C   0  0  2  0  0  0  0  0  0  0  0  0
    2.9297    3.5874    2.1074 H   0  0  0  0  0  0  0  0  0  0  0  0
    3.0634    3.9702    3.8388 H   0  0  0  0  0  0  0  0  0  0  0  0
    1.6435    4.4897    2.9084 H   0  0  0  0  0  0  0  0  0  0  0  0
   -0.2339    2.8677    2.4817 H   0  0  0  0  0  0  0  0  0  0  0  0
    0.9645    2.2246    1.3477 H   0  0  0  0  0  0  0  0  0  0  0  0
   -1.1473    0.6026    2.3951 H   0  0  0  0  0  0  0  0  0  0  0  0
    0.2233    0.0694    1.5439 H   0  0  0  0  0  0  0  0  0  0  0  0
    3.5136   -0.9477    2.1980 H   0  0  0  0  0  0  0  0  0  0  0  0
    1.0162   -2.3355    2.3418 H   0  0  0  0  0  0  0  0  0  0  0  0
    3.7030   -3.0227    3.1438 H   0  0  0  0  0  0  0  0  0  0  0  0
    2.7397   -3.3732    4.5261 H   0  0  0  0  0  0  0  0  0  0  0  0
    1.1218   -5.3246    4.5108 H   0  0  0  0  0  0  0  0  0  0  0  0
    0.3828   -7.3481    3.4073 H   0  0  0  0  0  0  0  0  0  0  0  0
    1.0983   -7.8552    1.0758 H   0  0  0  0  0  0  0  0  0  0  0  0
    2.5518   -6.2247   -0.1484 H   0  0  0  0  0  0  0  0  0  0  0  0
    3.2473   -4.1123    0.9339 H   0  0  0  0  0  0  0  0  0  0  0  0
   -0.7788   -1.6559    5.5171 H   0  0  0  0  0  0  0  0  0  0  0  0
   -0.6819   -2.5858    4.0493 H   0  0  0  0  0  0  0  0  0  0  0  0
    0.9652   -3.7777    5.0723 H   0  0  0  0  0  0  0  0  0  0  0  0
    2.8851   -1.4313    5.6306 H   0  0  0  0  0  0  0  0  0  0  0  0
    0.9402   -1.2123    7.1229 H   0  0  0  0  0  0  0  0  0  0  0  0
    2.0617    0.0780    7.4247 H   0  0  0  0  0  0  0  0  0  0  0  0
    0.0581    1.1888    8.4200 H   0  0  0  0  0  0  0  0  0  0  0  0
   -1.7694    2.8164    8.0000 H   0  0  0  0  0  0  0  0  0  0  0  0
   -3.1209    3.2846    4.7378 H   0  0  0  0  0  0  0  0  0  0  0  0
   -1.6760    1.9251    3.8456 H   0  0  0  0  0  0  0  0  0  0  0  0
    4.7179    1.5722    5.2868 H   0  0  0  0  0  0  0  0  0  0  0  0
    4.7414   -0.1214    4.7449 H   0  0  0  0  0  0  0  0  0  0  0  0
    4.3489    0.2639    6.4249 H   0  0  0  0  0  0  0  0  0  0  0  0
    3.6026    1.3922    3.1248 H   0  0  0  0  0  0  0  0  0  0  0  0
    1.1995    2.5524    4.2485 H   0  0  0  0  0  0  0  0  0  0  0  0
  1  2  1  0
  1 31  1  0
  1 32  1  0
  1 33  1  0
  2 30  1  0
  2  3  1  0
  2 61  1  1
  3  4  1  0
  3 34  1  0
  3 35  1  0
  5  4  1  6
  4 36  1  0
  4 37  1  0
  5 16  1  0
  5 27  1  0
  5  6  1  0
  6 30  1  0
  6  7  2  0
  7  8  1  0
  7 38  1  0
  8  9  1  0
  8 16  1  0
  8 39  1  6
  9 10  1  0
  9 40  1  0
  9 41  1  0
 10 15  1  0
 10 11  2  0
 11 12  1  0
 11 42  1  0
 12 13  2  0
 12 43  1  0
 13 14  1  0
 13 44  1  0
 14 15  2  0
 14 45  1  0
 15 46  1  0
 16 17  1  1
 16 19  1  0
 17 18  1  0
 17 47  1  0
 17 48  1  0
 18 49  1  0
 19 20  1  0
 19 28  1  0
 19 50  1  1
 20 21  1  0
 20 51  1  0
 20 52  1  0
 21 27  2  0
 21 22  1  0
 22 23  2  0
 22 53  1  0
 23 24  1  0
 23 54  1  0
 24 25  1  0
 24 26  2  0
 25 55  1  0
 26 27  1  0
 26 56  1  0
 28 29  1  0
 28 30  1  0
 29 57  1  0
 29 58  1  0
 29 59  1  0
 30 60  1  6
M  CHG  1   2   1
M  END
>  <i_m_ct_stereo_status>  (99) 
1

>  <s_m_source_file>  (99) 
/var/tmp/pbs.5076255.sched01/tmp4ovtozgc/0905bh7x9.sdf

>  <i_m_source_file_index>  (99) 
38

>  <i_lp_mmshare_version>  (99) 
48012

>  <i_f3d_flags>  (99) 
0

>  <s_epik_input>  (99) 
W2NIXTFbY0hdYyhbT0hdKVtjSF1jMmMxW0NIMl1bQ0BIXShOKFtDSDNdKVtDQEBIXShDPTNbQ0BAXTI0NSlOKFtDSDNdKVtDSDJdW0NIMl00KVtDQF01KFtDSDJdW09IXSlbQ0BASF0oW0NIXTMpW0NIMl1jNltjSF1bY0hdW2NIXVtjSF1bY0hdNg==

>  <s_epik_cmdline>  (99) 
J2VwaWtfcHl0aG9uJywgJy1waHQnLCAnMi4wJywgJy1waCcsICc3LjAnLCAnLXRuJywgJzgnLCAnLW1hJywgJzIwMCcsICctaW1hZScsICc8aW5maWxlLm1hZT4nLCAnLW9tYWUnLCAnPG91dGZpbGUubWFlPic=

>  <r_lp_tautomer_probability>  (99) 
1

>  <r_epik_Ionization_Penalty>  (99) 
0.00684902

>  <r_epik_Ionization_Penalty_Charging>  (99) 
0.00626299

>  <r_epik_Ionization_Penalty_Neutral>  (99) 
0.000586028

>  <r_epik_State_Penalty>  (99) 
0.116884

>  <r_epik_Charging_Adjusted_Penalty>  (99) 
0.123147

>  <i_epik_Tot_Q>  (99) 
1

>  <i_epik_Tot_abs_Q>  (99) 
1

>  <s_epik_Chemistry_Notes>  (99) 
This compound contains an acetal/aminal-like group ( X-CH(R)-Y where X, Y are N, S, or O) that may be acid/base labile, releasing an aldehyde.

>  <s_lp_Force_Field>  (99) 
OPLS3e

>  <r_lp_Energy>  (99) 
196.679

>  <b_lp_Chiralities_Consistent>  (99) 
1

>  <s_lp_Variant>  (99) 
27:0-1

>  <s_i_glide_gridfile>  (99) 
pfpi4k_grid

>  <i_i_glide_lignum>  (99) 
38

>  <i_i_glide_rotatable_bonds>  (99) 
5

>  <r_i_docking_score>  (99) 
-2.63952

>  <r_i_glide_ligand_efficiency>  (99) 
-0.087984

>  <r_i_glide_ligand_efficiency_sa>  (99) 
-0.273387

>  <r_i_glide_ligand_efficiency_ln>  (99) 
-0.599728

>  <r_i_glide_gscore>  (99) 
-2.63952

>  <r_i_glide_lipo>  (99) 
-0.0400811

>  <r_i_glide_hbond>  (99) 
0

>  <r_i_glide_metal>  (99) 
-0

>  <r_i_glide_rewards>  (99) 
-0.657705

>  <r_i_glide_evdw>  (99) 
-24.4346

>  <r_i_glide_ecoul>  (99) 
-6.95535

>  <r_i_glide_erotb>  (99) 
0.361721

>  <r_i_glide_esite>  (99) 
-0.0384241

>  <r_i_glide_emodel>  (99) 
-37.1452

>  <r_i_glide_energy>  (99) 
-31.3899

>  <r_i_glide_einternal>  (99) 
0.216064

>  <r_i_glide_intrahb_reward>  (99) 
-0

>  <i_i_glide_confnum>  (99) 
1

>  <i_i_glide_posenum>  (99) 
34

>  <r_i_glide_eff_state_penalty>  (99) 
0

>  <ligand_id>  (99) 
27

>  <original_smiles>  (99) 
CN1CCC23C4=CC(Cc5ccccc5)C2(CO)C(Cc2ccc(O)cc23)N(C)C41

>  <smiles>  (99) 
[H]Oc1c([H])c([H])c2c(c1[H])C13C4=C([H])C([H])(C([H])([H])c5c([H])c([H])c([H])c([H])c5[H])C1(C([H])([H])O[H])C([H])(N(C([H])([H])[H])C4([H])[N+]([H])(C([H])([H])[H])C([H])([H])C3([H])[H])C2([H])[H]

$$$$
27:1:0
     RDKit          3D

 61 66  0  0  1  0  0  0  0  0999 V2000
    8.5678   -6.3881    2.7640 C   0  0  0  0  0  0  0  0  0  0  0  0
    7.2434   -5.9770    2.3014 N   0  0  0  0  0  0  0  0  0  0  0  0
    6.9826   -6.6136    0.9425 C   0  0  0  0  0  0  0  0  0  0  0  0
    5.4394   -6.5255    0.4619 C   0  0  0  0  0  0  0  0  0  0  0  0
    4.7494   -5.5753    1.4585 C   0  0  2  0  0  0  0  0  0  0  0  0
    5.0858   -6.6210    2.5561 C   0  0  0  0  0  0  0  0  0  0  0  0
    4.1572   -7.4783    2.9672 C   0  0  0  0  0  0  0  0  0  0  0  0
    2.8848   -6.9066    2.4852 C   0  0  1  0  0  0  0  0  0  0  0  0
    1.7251   -7.0065    3.4976 C   0  0  0  0  0  0  0  0  0  0  0  0
    1.3598   -8.4415    3.8248 C   0  0  0  0  0  0  0  0  0  0  0  0
    0.9392   -9.3198    2.8053 C   0  0  0  0  0  0  0  0  0  0  0  0
    0.6147  -10.6574    3.1080 C   0  0  0  0  0  0  0  0  0  0  0  0
    0.7093  -11.1147    4.4332 C   0  0  0  0  0  0  0  0  0  0  0  0
    1.1180  -10.2384    5.4529 C   0  0  0  0  0  0  0  0  0  0  0  0
    1.4455   -8.9031    5.1532 C   0  0  0  0  0  0  0  0  0  0  0  0
    3.3971   -5.4558    2.1680 C   0  0  2  0  0  0  0  0  0  0  0  0
    2.3136   -4.7154    1.3254 C   0  0  0  0  0  0  0  0  0  0  0  0
    1.8775   -5.4614    0.1973 O   0  0  0  0  0  0  0  0  0  0  0  0
    3.9702   -4.6567    3.5171 C   0  0  2  0  0  0  0  0  0  0  0  0
    4.0227   -3.1770    3.2104 C   0  0  0  0  0  0  0  0  0  0  0  0
    4.9773   -2.9850    2.0625 C   0  0  0  0  0  0  0  0  0  0  0  0
    5.4725   -1.6857    1.8478 C   0  0  0  0  0  0  0  0  0  0  0  0
    6.3313   -1.4408    0.7694 C   0  0  0  0  0  0  0  0  0  0  0  0
    6.6581   -2.4874   -0.1006 C   0  0  0  0  0  0  0  0  0  0  0  0
    7.4632   -2.2612   -1.1781 O   0  0  0  0  0  0  0  0  0  0  0  0
    6.1509   -3.7786    0.1142 C   0  0  0  0  0  0  0  0  0  0  0  0
    5.3313   -4.0955    1.2283 C   0  0  0  0  0  0  0  0  0  0  0  0
    5.4358   -5.0322    3.9944 N   0  0  1  0  0  0  0  0  0  0  0  0
    5.4987   -5.1499    5.4729 C   0  0  0  0  0  0  0  0  0  0  0  0
    6.1892   -6.2078    3.3420 C   0  0  2  0  0  0  0  0  0  0  0  0
    9.3250   -6.1715    2.0065 H   0  0  0  0  0  0  0  0  0  0  0  0
    8.5874   -7.4683    2.9286 H   0  0  0  0  0  0  0  0  0  0  0  0
    8.8573   -5.8842    3.6909 H   0  0  0  0  0  0  0  0  0  0  0  0
    7.6341   -6.1408    0.2106 H   0  0  0  0  0  0  0  0  0  0  0  0
    7.2763   -7.6654    0.9833 H   0  0  0  0  0  0  0  0  0  0  0  0
    5.3074   -6.2097   -0.5705 H   0  0  0  0  0  0  0  0  0  0  0  0
    5.0087   -7.5309    0.4436 H   0  0  0  0  0  0  0  0  0  0  0  0
    4.2287   -8.1276    3.8302 H   0  0  0  0  0  0  0  0  0  0  0  0
    2.6278   -7.4441    1.5690 H   0  0  0  0  0  0  0  0  0  0  0  0
    1.9581   -6.4875    4.4267 H   0  0  0  0  0  0  0  0  0  0  0  0
    0.8397   -6.5243    3.0874 H   0  0  0  0  0  0  0  0  0  0  0  0
    0.8624   -8.9830    1.7843 H   0  0  0  0  0  0  0  0  0  0  0  0
    0.2802  -11.3228    2.3274 H   0  0  0  0  0  0  0  0  0  0  0  0
    0.4424  -12.1325    4.6840 H   0  0  0  0  0  0  0  0  0  0  0  0
    1.1695  -10.5909    6.4719 H   0  0  0  0  0  0  0  0  0  0  0  0
    1.7621   -8.2445    5.9483 H   0  0  0  0  0  0  0  0  0  0  0  0
    1.4525   -4.5159    1.9632 H   0  0  0  0  0  0  0  0  0  0  0  0
    2.6585   -3.7485    0.9522 H   0  0  0  0  0  0  0  0  0  0  0  0
    2.5803   -5.4870   -0.4433 H   0  0  0  0  0  0  0  0  0  0  0  0
    3.2710   -4.7886    4.3386 H   0  0  0  0  0  0  0  0  0  0  0  0
    3.0351   -2.8067    2.9440 H   0  0  0  0  0  0  0  0  0  0  0  0
    4.3340   -2.6011    4.0837 H   0  0  0  0  0  0  0  0  0  0  0  0
    5.1844   -0.8740    2.5061 H   0  0  0  0  0  0  0  0  0  0  0  0
    6.7267   -0.4488    0.6133 H   0  0  0  0  0  0  0  0  0  0  0  0
    7.6817   -3.0424   -1.6696 H   0  0  0  0  0  0  0  0  0  0  0  0
    6.4254   -4.5096   -0.6161 H   0  0  0  0  0  0  0  0  0  0  0  0
    4.9431   -6.0353    5.7964 H   0  0  0  0  0  0  0  0  0  0  0  0
    5.0670   -4.2742    5.9669 H   0  0  0  0  0  0  0  0  0  0  0  0
    6.5343   -5.2554    5.8079 H   0  0  0  0  0  0  0  0  0  0  0  0
    6.4677   -6.9903    4.0453 H   0  0  0  0  0  0  0  0  0  0  0  0
    5.9849   -4.2199    3.7481 H   0  0  0  0  0  0  0  0  0  0  0  0
  1  2  1  0
  1 31  1  0
  1 32  1  0
  1 33  1  0
  2 30  1  0
  2  3  1  0
  3  4  1  0
  3 34  1  0
  3 35  1  0
  5  4  1  6
  4 36  1  0
  4 37  1  0
  5 16  1  0
  5 27  1  0
  5  6  1  0
  6 30  1  0
  6  7  2  0
  7  8  1  0
  7 38  1  0
  8  9  1  0
  8 16  1  0
  8 39  1  6
  9 10  1  0
  9 40  1  0
  9 41  1  0
 10 15  1  0
 10 11  2  0
 11 12  1  0
 11 42  1  0
 12 13  2  0
 12 43  1  0
 13 14  1  0
 13 44  1  0
 14 15  2  0
 14 45  1  0
 15 46  1  0
 16 17  1  6
 16 19  1  0
 17 18  1  0
 17 47  1  0
 17 48  1  0
 18 49  1  0
 19 20  1  0
 19 28  1  0
 19 50  1  1
 20 21  1  0
 20 51  1  0
 20 52  1  0
 21 27  2  0
 21 22  1  0
 22 23  2  0
 22 53  1  0
 23 24  1  0
 23 54  1  0
 24 25  1  0
 24 26  2  0
 25 55  1  0
 26 27  1  0
 26 56  1  0
 28 29  1  0
 28 30  1  0
 28 61  1  1
 29 57  1  0
 29 58  1  0
 29 59  1  0
 30 60  1  1
M  CHG  1  28   1
M  END
>  <i_m_ct_stereo_status>  (100) 
1

>  <s_m_source_file>  (100) 
/var/tmp/pbs.5076255.sched01/tmp4ovtozgc/0905bh7x9.sdf

>  <i_m_source_file_index>  (100) 
39

>  <i_lp_mmshare_version>  (100) 
48012

>  <i_f3d_flags>  (100) 
0

>  <s_epik_input>  (100) 
W2NIXTFbY0hdYyhbT0hdKVtjSF1jMmMxW0NIMl1bQ0BIXShOKFtDSDNdKVtDQEBIXShDPTNbQ0BAXTI0NSlOKFtDSDNdKVtDSDJdW0NIMl00KVtDQF01KFtDSDJdW09IXSlbQ0BASF0oW0NIXTMpW0NIMl1jNltjSF1bY0hdW2NIXVtjSF1bY0hdNg==

>  <s_epik_cmdline>  (100) 
J2VwaWtfcHl0aG9uJywgJy1waHQnLCAnMi4wJywgJy1waCcsICc3LjAnLCAnLXRuJywgJzgnLCAnLW1hJywgJzIwMCcsICctaW1hZScsICc8aW5maWxlLm1hZT4nLCAnLW9tYWUnLCAnPG91dGZpbGUubWFlPic=

>  <r_epik_Ionization_Penalty>  (100) 
0.0278634

>  <r_epik_Ionization_Penalty_Charging>  (100) 
0.0256709

>  <r_epik_Ionization_Penalty_Neutral>  (100) 
0.00219256

>  <r_epik_State_Penalty>  (100) 
1.01917

>  <r_epik_Charging_Adjusted_Penalty>  (100) 
1.04484

>  <i_epik_Tot_Q>  (100) 
1

>  <i_epik_Tot_abs_Q>  (100) 
1

>  <s_epik_Chemistry_Notes>  (100) 
This compound contains an acetal/aminal-like group ( X-CH(R)-Y where X, Y are N, S, or O) that may be acid/base labile, releasing an aldehyde.

>  <s_lp_Force_Field>  (100) 
OPLS3e

>  <r_lp_Energy>  (100) 
180.131

>  <b_lp_Chiralities_Consistent>  (100) 
1

>  <s_lp_Variant>  (100) 
27:0-2

>  <s_i_glide_gridfile>  (100) 
pfpi4k_grid

>  <i_i_glide_lignum>  (100) 
39

>  <i_i_glide_rotatable_bonds>  (100) 
5

>  <r_i_docking_score>  (100) 
-3.84605

>  <r_i_glide_ligand_efficiency>  (100) 
-0.128202

>  <r_i_glide_ligand_efficiency_sa>  (100) 
-0.398352

>  <r_i_glide_ligand_efficiency_ln>  (100) 
-0.873864

>  <r_i_glide_gscore>  (100) 
-3.84605

>  <r_i_glide_lipo>  (100) 
-0.64089

>  <r_i_glide_hbond>  (100) 
-0.33487

>  <r_i_glide_metal>  (100) 
-0

>  <r_i_glide_rewards>  (100) 
-0.660395

>  <r_i_glide_evdw>  (100) 
-23.8233

>  <r_i_glide_ecoul>  (100) 
-9.20296

>  <r_i_glide_erotb>  (100) 
0.361721

>  <r_i_glide_esite>  (100) 
0

>  <r_i_glide_emodel>  (100) 
-42.5743

>  <r_i_glide_energy>  (100) 
-33.0263

>  <r_i_glide_einternal>  (100) 
1.4294

>  <r_i_glide_intrahb_reward>  (100) 
-0

>  <i_i_glide_confnum>  (100) 
3

>  <i_i_glide_posenum>  (100) 
2

>  <r_i_glide_eff_state_penalty>  (100) 
0

>  <ligand_id>  (100) 
27

>  <original_smiles>  (100) 
CN1CCC23C4=CC(Cc5ccccc5)C2(CO)C(Cc2ccc(O)cc23)N(C)C41

>  <smiles>  (100) 
[H]Oc1c([H])c([H])c2c(c1[H])C13C4=C([H])C([H])(C([H])([H])c5c([H])c([H])c([H])c([H])c5[H])C1(C([H])([H])O[H])C([H])(C2([H])[H])[N+]([H])(C([H])([H])[H])C4([H])N(C([H])([H])[H])C([H])([H])C3([H])[H]

$$$$
27:1:1
     RDKit          3D

 61 66  0  0  1  0  0  0  0  0999 V2000
    6.4897   -8.9381    5.3869 C   0  0  0  0  0  0  0  0  0  0  0  0
    5.2695   -8.3716    4.8220 N   0  0  0  0  0  0  0  0  0  0  0  0
    4.8244   -7.1991    5.6840 C   0  0  0  0  0  0  0  0  0  0  0  0
    3.6870   -6.2728    5.0063 C   0  0  0  0  0  0  0  0  0  0  0  0
    3.2188   -7.0350    3.7387 C   0  0  2  0  0  0  0  0  0  0  0  0
    4.6723   -6.8829    3.2158 C   0  0  0  0  0  0  0  0  0  0  0  0
    4.9568   -5.9209    2.3463 C   0  0  0  0  0  0  0  0  0  0  0  0
    3.6473   -5.5033    1.8034 C   0  0  1  0  0  0  0  0  0  0  0  0
    3.6927   -5.2525    0.2766 C   0  0  0  0  0  0  0  0  0  0  0  0
    4.1380   -3.8470   -0.0670 C   0  0  0  0  0  0  0  0  0  0  0  0
    3.3900   -2.7274    0.3596 C   0  0  0  0  0  0  0  0  0  0  0  0
    3.8179   -1.4268    0.0176 C   0  0  0  0  0  0  0  0  0  0  0  0
    4.9810   -1.2530   -0.7543 C   0  0  0  0  0  0  0  0  0  0  0  0
    5.7192   -2.3710   -1.1943 C   0  0  0  0  0  0  0  0  0  0  0  0
    5.2897   -3.6669   -0.8484 C   0  0  0  0  0  0  0  0  0  0  0  0
    2.7964   -6.7373    2.2806 C   0  0  2  0  0  0  0  0  0  0  0  0
    1.2712   -6.3779    2.1803 C   0  0  0  0  0  0  0  0  0  0  0  0
    0.7251   -6.3058    0.8703 O   0  0  0  0  0  0  0  0  0  0  0  0
    3.3044   -8.1879    1.6421 C   0  0  2  0  0  0  0  0  0  0  0  0
    2.1965   -9.1970    1.8300 C   0  0  0  0  0  0  0  0  0  0  0  0
    1.9661   -9.3476    3.3050 C   0  0  0  0  0  0  0  0  0  0  0  0
    1.2625  -10.4911    3.7357 C   0  0  0  0  0  0  0  0  0  0  0  0
    0.9893  -10.6681    5.0942 C   0  0  0  0  0  0  0  0  0  0  0  0
    1.3807   -9.6911    6.0143 C   0  0  0  0  0  0  0  0  0  0  0  0
    1.1055   -9.8470    7.3409 O   0  0  0  0  0  0  0  0  0  0  0  0
    2.0647   -8.5490    5.5859 C   0  0  0  0  0  0  0  0  0  0  0  0
    2.4291   -8.3507    4.2313 C   0  0  0  0  0  0  0  0  0  0  0  0
    4.5824   -8.8617    2.3057 N   0  0  1  0  0  0  0  0  0  0  0  0
    5.4800   -9.4126    1.2667 C   0  0  0  0  0  0  0  0  0  0  0  0
    5.4044   -8.0917    3.3564 C   0  0  2  0  0  0  0  0  0  0  0  0
    6.3535   -9.1837    6.4426 H   0  0  0  0  0  0  0  0  0  0  0  0
    7.3063   -8.2157    5.3367 H   0  0  0  0  0  0  0  0  0  0  0  0
    6.8045   -9.8476    4.8699 H   0  0  0  0  0  0  0  0  0  0  0  0
    4.4726   -7.5845    6.6353 H   0  0  0  0  0  0  0  0  0  0  0  0
    5.6896   -6.5759    5.9164 H   0  0  0  0  0  0  0  0  0  0  0  0
    2.8724   -6.0115    5.6793 H   0  0  0  0  0  0  0  0  0  0  0  0
    4.1195   -5.2932    4.7932 H   0  0  0  0  0  0  0  0  0  0  0  0
    5.8836   -5.8289    1.7904 H   0  0  0  0  0  0  0  0  0  0  0  0
    3.3227   -4.6132    2.3496 H   0  0  0  0  0  0  0  0  0  0  0  0
    4.2973   -6.0101   -0.2350 H   0  0  0  0  0  0  0  0  0  0  0  0
    2.7081   -5.3187   -0.1730 H   0  0  0  0  0  0  0  0  0  0  0  0
    2.4860   -2.8490    0.9356 H   0  0  0  0  0  0  0  0  0  0  0  0
    3.2408   -0.5741    0.3431 H   0  0  0  0  0  0  0  0  0  0  0  0
    5.3001   -0.2559   -1.0203 H   0  0  0  0  0  0  0  0  0  0  0  0
    6.6038   -2.2577   -1.7978 H   0  0  0  0  0  0  0  0  0  0  0  0
    5.8268   -4.5344   -1.1878 H   0  0  0  0  0  0  0  0  0  0  0  0
    0.6402   -7.0799    2.7213 H   0  0  0  0  0  0  0  0  0  0  0  0
    1.1108   -5.4140    2.6651 H   0  0  0  0  0  0  0  0  0  0  0  0
    0.8713   -7.1383    0.4414 H   0  0  0  0  0  0  0  0  0  0  0  0
    3.4816   -8.0541    0.5775 H   0  0  0  0  0  0  0  0  0  0  0  0
    1.2840   -8.8552    1.3544 H   0  0  0  0  0  0  0  0  0  0  0  0
    2.4389  -10.1511    1.3601 H   0  0  0  0  0  0  0  0  0  0  0  0
    0.9253  -11.2337    3.0133 H   0  0  0  0  0  0  0  0  0  0  0  0
    0.4682  -11.5527    5.4199 H   0  0  0  0  0  0  0  0  0  0  0  0
    1.0456  -10.8076    7.5506 H   0  0  0  0  0  0  0  0  0  0  0  0
    2.3164   -7.8497    6.3638 H   0  0  0  0  0  0  0  0  0  0  0  0
    5.9364   -8.5928    0.7098 H   0  0  0  0  0  0  0  0  0  0  0  0
    4.9459  -10.0378    0.5501 H   0  0  0  0  0  0  0  0  0  0  0  0
    6.2814  -10.0108    1.7087 H   0  0  0  0  0  0  0  0  0  0  0  0
    6.4463   -7.9494    3.0619 H   0  0  0  0  0  0  0  0  0  0  0  0
    4.2085   -9.6682    2.7954 H   0  0  0  0  0  0  0  0  0  0  0  0
  1  2  1  0
  1 31  1  0
  1 32  1  0
  1 33  1  0
  2 30  1  0
  2  3  1  0
  3  4  1  0
  3 34  1  0
  3 35  1  0
  5  4  1  1
  4 36  1  0
  4 37  1  0
  5 16  1  0
  5 27  1  0
  5  6  1  0
  6 30  1  0
  6  7  2  0
  7  8  1  0
  7 38  1  0
  8  9  1  0
  8 16  1  0
  8 39  1  1
  9 10  1  0
  9 40  1  0
  9 41  1  0
 10 15  1  0
 10 11  2  0
 11 12  1  0
 11 42  1  0
 12 13  2  0
 12 43  1  0
 13 14  1  0
 13 44  1  0
 14 15  2  0
 14 45  1  0
 15 46  1  0
 16 17  1  1
 16 19  1  0
 17 18  1  0
 17 47  1  0
 17 48  1  0
 18 49  1  0
 19 20  1  0
 19 28  1  0
 19 50  1  6
 20 21  1  0
 20 51  1  0
 20 52  1  0
 21 27  2  0
 21 22  1  0
 22 23  2  0
 22 53  1  0
 23 24  1  0
 23 54  1  0
 24 25  1  0
 24 26  2  0
 25 55  1  0
 26 27  1  0
 26 56  1  0
 28 29  1  0
 28 30  1  0
 28 61  1  1
 29 57  1  0
 29 58  1  0
 29 59  1  0
 30 60  1  6
M  CHG  1  28   1
M  END
>  <i_m_ct_stereo_status>  (101) 
1

>  <s_m_source_file>  (101) 
/var/tmp/pbs.5076255.sched01/tmp4ovtozgc/0905bh7x9.sdf

>  <i_m_source_file_index>  (101) 
39

>  <i_lp_mmshare_version>  (101) 
48012

>  <i_f3d_flags>  (101) 
0

>  <s_epik_input>  (101) 
W2NIXTFbY0hdYyhbT0hdKVtjSF1jMmMxW0NIMl1bQ0BIXShOKFtDSDNdKVtDQEBIXShDPTNbQ0BAXTI0NSlOKFtDSDNdKVtDSDJdW0NIMl00KVtDQF01KFtDSDJdW09IXSlbQ0BASF0oW0NIXTMpW0NIMl1jNltjSF1bY0hdW2NIXVtjSF1bY0hdNg==

>  <s_epik_cmdline>  (101) 
J2VwaWtfcHl0aG9uJywgJy1waHQnLCAnMi4wJywgJy1waCcsICc3LjAnLCAnLXRuJywgJzgnLCAnLW1hJywgJzIwMCcsICctaW1hZScsICc8aW5maWxlLm1hZT4nLCAnLW9tYWUnLCAnPG91dGZpbGUubWFlPic=

>  <r_epik_Ionization_Penalty>  (101) 
0.0278634

>  <r_epik_Ionization_Penalty_Charging>  (101) 
0.0256709

>  <r_epik_Ionization_Penalty_Neutral>  (101) 
0.00219256

>  <r_epik_State_Penalty>  (101) 
1.01917

>  <r_epik_Charging_Adjusted_Penalty>  (101) 
1.04484

>  <i_epik_Tot_Q>  (101) 
1

>  <i_epik_Tot_abs_Q>  (101) 
1

>  <s_epik_Chemistry_Notes>  (101) 
This compound contains an acetal/aminal-like group ( X-CH(R)-Y where X, Y are N, S, or O) that may be acid/base labile, releasing an aldehyde.

>  <s_lp_Force_Field>  (101) 
OPLS3e

>  <r_lp_Energy>  (101) 
180.131

>  <b_lp_Chiralities_Consistent>  (101) 
1

>  <s_lp_Variant>  (101) 
27:0-2

>  <s_i_glide_gridfile>  (101) 
pfpi4k_grid

>  <i_i_glide_lignum>  (101) 
39

>  <i_i_glide_rotatable_bonds>  (101) 
5

>  <r_i_docking_score>  (101) 
-3.75409

>  <r_i_glide_ligand_efficiency>  (101) 
-0.125136

>  <r_i_glide_ligand_efficiency_sa>  (101) 
-0.388828

>  <r_i_glide_ligand_efficiency_ln>  (101) 
-0.852971

>  <r_i_glide_gscore>  (101) 
-3.75409

>  <r_i_glide_lipo>  (101) 
-0.205678

>  <r_i_glide_hbond>  (101) 
-0.32

>  <r_i_glide_metal>  (101) 
-0

>  <r_i_glide_rewards>  (101) 
-0.657978

>  <r_i_glide_evdw>  (101) 
-22.2752

>  <r_i_glide_ecoul>  (101) 
-12.0122

>  <r_i_glide_erotb>  (101) 
0.361721

>  <r_i_glide_esite>  (101) 
-0.0165623

>  <r_i_glide_emodel>  (101) 
-43.4927

>  <r_i_glide_energy>  (101) 
-34.2875

>  <r_i_glide_einternal>  (101) 
0.911177

>  <r_i_glide_intrahb_reward>  (101) 
-0

>  <i_i_glide_confnum>  (101) 
2

>  <i_i_glide_posenum>  (101) 
1

>  <r_i_glide_eff_state_penalty>  (101) 
0

>  <ligand_id>  (101) 
27

>  <original_smiles>  (101) 
CN1CCC23C4=CC(Cc5ccccc5)C2(CO)C(Cc2ccc(O)cc23)N(C)C41

>  <smiles>  (101) 
[H]Oc1c([H])c([H])c2c(c1[H])C13C4=C([H])C([H])(C([H])([H])c5c([H])c([H])c([H])c([H])c5[H])C1(C([H])([H])O[H])C([H])(C2([H])[H])[N+]([H])(C([H])([H])[H])C4([H])N(C([H])([H])[H])C([H])([H])C3([H])[H]

$$$$
27:1:2
     RDKit          3D

 61 66  0  0  1  0  0  0  0  0999 V2000
    8.2906   -6.3469    3.6130 C   0  0  0  0  0  0  0  0  0  0  0  0
    7.1488   -5.8097    2.8814 N   0  0  0  0  0  0  0  0  0  0  0  0
    6.9287   -6.6396    1.6202 C   0  0  0  0  0  0  0  0  0  0  0  0
    5.5213   -6.3477    0.8816 C   0  0  0  0  0  0  0  0  0  0  0  0
    4.9278   -5.1087    1.5894 C   0  0  2  0  0  0  0  0  0  0  0  0
    4.8984   -5.9547    2.8924 C   0  0  0  0  0  0  0  0  0  0  0  0
    3.7597   -6.5171    3.2927 C   0  0  0  0  0  0  0  0  0  0  0  0
    2.7145   -5.8264    2.5233 C   0  0  1  0  0  0  0  0  0  0  0  0
    1.4560   -5.4919    3.3542 C   0  0  0  0  0  0  0  0  0  0  0  0
    0.4215   -6.6024    3.3229 C   0  0  0  0  0  0  0  0  0  0  0  0
   -0.0802   -7.0875    2.0919 C   0  0  0  0  0  0  0  0  0  0  0  0
   -1.0183   -8.1360    2.0781 C   0  0  0  0  0  0  0  0  0  0  0  0
   -1.4786   -8.6904    3.2775 C   0  0  0  0  0  0  0  0  0  0  0  0
   -0.9837   -8.2146    4.5044 C   0  0  0  0  0  0  0  0  0  0  0  0
   -0.0398   -7.1699    4.5297 C   0  0  0  0  0  0  0  0  0  0  0  0
    3.5594   -4.5890    2.0434 C   0  0  2  0  0  0  0  0  0  0  0  0
    2.7767   -3.8325    0.9233 C   0  0  0  0  0  0  0  0  0  0  0  0
    2.2614   -4.7075   -0.0643 O   0  0  0  0  0  0  0  0  0  0  0  0
    4.1139   -3.6629    3.3092 C   0  0  2  0  0  0  0  0  0  0  0  0
    4.5194   -2.3080    2.7642 C   0  0  0  0  0  0  0  0  0  0  0  0
    5.6117   -2.5331    1.7611 C   0  0  0  0  0  0  0  0  0  0  0  0
    6.3923   -1.4133    1.4061 C   0  0  0  0  0  0  0  0  0  0  0  0
    7.4298   -1.5564    0.4799 C   0  0  0  0  0  0  0  0  0  0  0  0
    7.6426   -2.7990   -0.1296 C   0  0  0  0  0  0  0  0  0  0  0  0
    8.6098   -2.9717   -1.0762 O   0  0  0  0  0  0  0  0  0  0  0  0
    6.8440   -3.9014    0.2143 C   0  0  0  0  0  0  0  0  0  0  0  0
    5.8324   -3.8350    1.2082 C   0  0  0  0  0  0  0  0  0  0  0  0
    5.4006   -4.2042    4.0736 N   0  0  1  0  0  0  0  0  0  0  0  0
    5.2560   -4.0213    5.5373 C   0  0  0  0  0  0  0  0  0  0  0  0
    5.9540   -5.6078    3.7635 C   0  0  2  0  0  0  0  0  0  0  0  0
    9.1643   -6.4311    2.9614 H   0  0  0  0  0  0  0  0  0  0  0  0
    8.0627   -7.3528    3.9729 H   0  0  0  0  0  0  0  0  0  0  0  0
    8.5651   -5.7239    4.4709 H   0  0  0  0  0  0  0  0  0  0  0  0
    7.7549   -6.4483    0.9404 H   0  0  0  0  0  0  0  0  0  0  0  0
    6.9788   -7.6975    1.8826 H   0  0  0  0  0  0  0  0  0  0  0  0
    5.5904   -6.2234   -0.1974 H   0  0  0  0  0  0  0  0  0  0  0  0
    4.8921   -7.2379    0.9679 H   0  0  0  0  0  0  0  0  0  0  0  0
    3.5829   -6.9722    4.2589 H   0  0  0  0  0  0  0  0  0  0  0  0
    2.4855   -6.4729    1.6739 H   0  0  0  0  0  0  0  0  0  0  0  0
    1.7209   -5.2289    4.3826 H   0  0  0  0  0  0  0  0  0  0  0  0
    0.9627   -4.6152    2.9412 H   0  0  0  0  0  0  0  0  0  0  0  0
    0.2662   -6.6897    1.1513 H   0  0  0  0  0  0  0  0  0  0  0  0
   -1.3818   -8.5359    1.1443 H   0  0  0  0  0  0  0  0  0  0  0  0
   -2.1868   -9.5042    3.2732 H   0  0  0  0  0  0  0  0  0  0  0  0
   -1.3201   -8.6762    5.4199 H   0  0  0  0  0  0  0  0  0  0  0  0
    0.3429   -6.8200    5.4757 H   0  0  0  0  0  0  0  0  0  0  0  0
    1.9362   -3.2859    1.3498 H   0  0  0  0  0  0  0  0  0  0  0  0
    3.3860   -3.0888    0.4069 H   0  0  0  0  0  0  0  0  0  0  0  0
    2.9747   -5.0108   -0.6135 H   0  0  0  0  0  0  0  0  0  0  0  0
    3.2993   -3.5075    4.0122 H   0  0  0  0  0  0  0  0  0  0  0  0
    3.6781   -1.8166    2.2816 H   0  0  0  0  0  0  0  0  0  0  0  0
    4.8469   -1.6357    3.5592 H   0  0  0  0  0  0  0  0  0  0  0  0
    6.2124   -0.4531    1.8677 H   0  0  0  0  0  0  0  0  0  0  0  0
    8.0720   -0.7160    0.2658 H   0  0  0  0  0  0  0  0  0  0  0  0
    9.3228   -2.3387   -1.1140 H   0  0  0  0  0  0  0  0  0  0  0  0
    7.0668   -4.8050   -0.3121 H   0  0  0  0  0  0  0  0  0  0  0  0
    4.4876   -4.6999    5.9198 H   0  0  0  0  0  0  0  0  0  0  0  0
    4.9678   -2.9991    5.7985 H   0  0  0  0  0  0  0  0  0  0  0  0
    6.1948   -4.2505    6.0512 H   0  0  0  0  0  0  0  0  0  0  0  0
    5.9659   -6.2669    4.6325 H   0  0  0  0  0  0  0  0  0  0  0  0
    6.1352   -3.5727    3.7802 H   0  0  0  0  0  0  0  0  0  0  0  0
  1  2  1  0
  1 31  1  0
  1 32  1  0
  1 33  1  0
  2 30  1  0
  2  3  1  0
  3  4  1  0
  3 34  1  0
  3 35  1  0
  5  4  1  6
  4 36  1  0
  4 37  1  0
  5 16  1  0
  5 27  1  0
  5  6  1  0
  6 30  1  0
  6  7  2  0
  7  8  1  0
  7 38  1  0
  8  9  1  0
  8 16  1  0
  8 39  1  6
  9 10  1  0
  9 40  1  0
  9 41  1  0
 10 15  1  0
 10 11  2  0
 11 12  1  0
 11 42  1  0
 12 13  2  0
 12 43  1  0
 13 14  1  0
 13 44  1  0
 14 15  2  0
 14 45  1  0
 15 46  1  0
 16 17  1  6
 16 19  1  0
 17 18  1  0
 17 47  1  0
 17 48  1  0
 18 49  1  0
 19 20  1  0
 19 28  1  0
 19 50  1  1
 20 21  1  0
 20 51  1  0
 20 52  1  0
 21 27  2  0
 21 22  1  0
 22 23  2  0
 22 53  1  0
 23 24  1  0
 23 54  1  0
 24 25  1  0
 24 26  2  0
 25 55  1  0
 26 27  1  0
 26 56  1  0
 28 29  1  0
 28 30  1  0
 28 61  1  6
 29 57  1  0
 29 58  1  0
 29 59  1  0
 30 60  1  1
M  CHG  1  28   1
M  END
>  <i_m_ct_stereo_status>  (102) 
1

>  <s_m_source_file>  (102) 
/var/tmp/pbs.5076255.sched01/tmp4ovtozgc/0905bh7x9.sdf

>  <i_m_source_file_index>  (102) 
39

>  <i_lp_mmshare_version>  (102) 
48012

>  <i_f3d_flags>  (102) 
0

>  <s_epik_input>  (102) 
W2NIXTFbY0hdYyhbT0hdKVtjSF1jMmMxW0NIMl1bQ0BIXShOKFtDSDNdKVtDQEBIXShDPTNbQ0BAXTI0NSlOKFtDSDNdKVtDSDJdW0NIMl00KVtDQF01KFtDSDJdW09IXSlbQ0BASF0oW0NIXTMpW0NIMl1jNltjSF1bY0hdW2NIXVtjSF1bY0hdNg==

>  <s_epik_cmdline>  (102) 
J2VwaWtfcHl0aG9uJywgJy1waHQnLCAnMi4wJywgJy1waCcsICc3LjAnLCAnLXRuJywgJzgnLCAnLW1hJywgJzIwMCcsICctaW1hZScsICc8aW5maWxlLm1hZT4nLCAnLW9tYWUnLCAnPG91dGZpbGUubWFlPic=

>  <r_epik_Ionization_Penalty>  (102) 
0.0278634

>  <r_epik_Ionization_Penalty_Charging>  (102) 
0.0256709

>  <r_epik_Ionization_Penalty_Neutral>  (102) 
0.00219256

>  <r_epik_State_Penalty>  (102) 
1.01917

>  <r_epik_Charging_Adjusted_Penalty>  (102) 
1.04484

>  <i_epik_Tot_Q>  (102) 
1

>  <i_epik_Tot_abs_Q>  (102) 
1

>  <s_epik_Chemistry_Notes>  (102) 
This compound contains an acetal/aminal-like group ( X-CH(R)-Y where X, Y are N, S, or O) that may be acid/base labile, releasing an aldehyde.

>  <s_lp_Force_Field>  (102) 
OPLS3e

>  <r_lp_Energy>  (102) 
180.131

>  <b_lp_Chiralities_Consistent>  (102) 
1

>  <s_lp_Variant>  (102) 
27:0-2

>  <s_i_glide_gridfile>  (102) 
pfpi4k_grid

>  <i_i_glide_lignum>  (102) 
39

>  <i_i_glide_rotatable_bonds>  (102) 
5

>  <r_i_docking_score>  (102) 
-3.50368

>  <r_i_glide_ligand_efficiency>  (102) 
-0.116789

>  <r_i_glide_ligand_efficiency_sa>  (102) 
-0.362892

>  <r_i_glide_ligand_efficiency_ln>  (102) 
-0.796074

>  <r_i_glide_gscore>  (102) 
-3.50368

>  <r_i_glide_lipo>  (102) 
-0.731396

>  <r_i_glide_hbond>  (102) 
-0.181883

>  <r_i_glide_metal>  (102) 
-0

>  <r_i_glide_rewards>  (102) 
-0.661787

>  <r_i_glide_evdw>  (102) 
-25.3195

>  <r_i_glide_ecoul>  (102) 
-6.10562

>  <r_i_glide_erotb>  (102) 
0.253205

>  <r_i_glide_esite>  (102) 
0

>  <r_i_glide_emodel>  (102) 
-39.6462

>  <r_i_glide_energy>  (102) 
-31.4252

>  <r_i_glide_einternal>  (102) 
1.66575

>  <r_i_glide_intrahb_reward>  (102) 
-0

>  <i_i_glide_confnum>  (102) 
3

>  <i_i_glide_posenum>  (102) 
9

>  <r_i_glide_eff_state_penalty>  (102) 
0

>  <ligand_id>  (102) 
27

>  <original_smiles>  (102) 
CN1CCC23C4=CC(Cc5ccccc5)C2(CO)C(Cc2ccc(O)cc23)N(C)C41

>  <smiles>  (102) 
[H]Oc1c([H])c([H])c2c(c1[H])C13C4=C([H])C([H])(C([H])([H])c5c([H])c([H])c([H])c([H])c5[H])C1(C([H])([H])O[H])C([H])(C2([H])[H])[N+]([H])(C([H])([H])[H])C4([H])N(C([H])([H])[H])C([H])([H])C3([H])[H]

$$$$
28:0:0
     RDKit          3D

 79 84  0  0  1  0  0  0  0  0999 V2000
   -2.6452    3.1347    8.3415 C   0  0  0  0  0  0  0  0  0  0  0  0
   -2.6661    3.3361    6.8143 C   0  0  0  0  0  0  0  0  0  0  0  0
   -1.9434    2.7121    5.8382 C   0  0  0  0  0  0  0  0  0  0  0  0
   -2.1530    3.0379    4.3553 C   0  0  0  0  0  0  0  0  0  0  0  0
   -0.9415    1.6868    6.1601 C   0  0  0  0  0  0  0  0  0  0  0  0
   -0.9222    1.0890    7.2373 O   0  0  0  0  0  0  0  0  0  0  0  0
   -0.0944    1.4115    5.1270 O   0  0  0  0  0  0  0  0  0  0  0  0
    1.0317    0.5009    5.2522 C   0  0  2  0  0  0  0  0  0  0  0  0
    2.3609    1.2357    4.7303 C   0  0  2  0  0  0  0  0  0  0  0  0
    2.1915    2.2330    3.5383 C   0  0  1  0  0  0  0  0  0  0  0  0
    2.9982    3.3785    3.7407 O   0  0  0  0  0  0  0  0  0  0  0  0
    2.5982    1.5149    2.3851 O   0  0  0  0  0  0  0  0  0  0  0  0
    2.3731    0.1221    2.6321 C   0  0  2  0  0  0  0  0  0  0  0  0
    0.9100    0.0546    2.1800 C   0  0  0  0  0  0  0  0  0  0  0  0
    3.0774    0.1853    4.0249 C   0  0  1  0  0  0  0  0  0  0  0  0
    4.5433   -0.3911    4.0076 C   0  0  2  0  0  0  0  0  0  0  0  0
    5.2296   -0.1896    2.7605 O   0  0  0  0  0  0  0  0  0  0  0  0
    4.3577   -0.2512    1.6279 C   0  0  1  0  0  0  0  0  0  0  0  0
    3.9799   -1.3843    0.8013 C   0  0  1  0  0  0  0  0  0  0  0  0
    3.4188   -1.0456   -0.4552 O   0  0  0  0  0  0  0  0  0  0  0  0
    4.9269   -2.4646    0.8234 O   0  0  0  0  0  0  0  0  0  0  0  0
    6.1766   -2.2138    0.2593 C   0  0  0  0  0  0  0  0  0  0  0  0
    6.1292   -1.8764   -1.0926 O   0  0  0  0  0  0  0  0  0  0  0  0
    5.6150   -2.9164   -1.9151 C   0  0  0  0  0  0  0  0  0  0  0  0
    3.0769   -1.0588    2.0390 C   0  0  2  0  0  0  0  0  0  0  0  0
    2.9831   -2.1989    3.1736 C   0  0  1  0  0  0  0  0  0  0  0  0
    2.9727   -3.5723    2.4116 C   0  0  0  0  0  0  0  0  0  0  0  0
    4.3736   -1.9604    3.9283 C   0  0  2  0  0  0  0  0  0  0  0  0
    4.6443   -2.7854    5.2274 C   0  0  1  0  0  0  0  0  0  0  0  0
    5.2235   -4.1843    4.9398 C   0  0  0  0  0  0  0  0  0  0  0  0
    5.6626   -2.1697    5.9934 O   0  0  0  0  0  0  0  0  0  0  0  0
    3.4158   -2.8872    6.1168 C   0  0  0  0  0  0  0  0  0  0  0  0
    2.1945   -3.3543    5.3070 C   0  0  0  0  0  0  0  0  0  0  0  0
    1.6951   -2.2890    4.2558 C   0  0  1  0  0  0  0  0  0  0  0  0
    0.7193   -1.1310    5.0422 C   0  0  0  0  0  0  0  0  0  0  0  0
    0.4548   -1.6216    6.5184 C   0  0  0  0  0  0  0  0  0  0  0  0
   -0.7337   -1.3105    4.5058 C   0  0  0  0  0  0  0  0  0  0  0  0
   -2.6547    4.1108    8.8266 H   0  0  0  0  0  0  0  0  0  0  0  0
   -1.7756    2.6605    8.7760 H   0  0  0  0  0  0  0  0  0  0  0  0
   -3.5234    2.5714    8.6772 H   0  0  0  0  0  0  0  0  0  0  0  0
   -3.3753    4.0609    6.4752 H   0  0  0  0  0  0  0  0  0  0  0  0
   -2.3433    2.1256    3.7867 H   0  0  0  0  0  0  0  0  0  0  0  0
   -1.2540    3.5067    3.9587 H   0  0  0  0  0  0  0  0  0  0  0  0
   -2.9911    3.7109    4.1962 H   0  0  0  0  0  0  0  0  0  0  0  0
    1.2557    0.5519    6.3155 H   0  0  0  0  0  0  0  0  0  0  0  0
    2.9475    1.6792    5.5336 H   0  0  0  0  0  0  0  0  0  0  0  0
    1.1655    2.5926    3.4252 H   0  0  0  0  0  0  0  0  0  0  0  0
    2.8936    3.9375    2.9788 H   0  0  0  0  0  0  0  0  0  0  0  0
    0.5820   -0.9781    2.0933 H   0  0  0  0  0  0  0  0  0  0  0  0
    0.8404    0.4581    1.1683 H   0  0  0  0  0  0  0  0  0  0  0  0
    0.2110    0.6638    2.7464 H   0  0  0  0  0  0  0  0  0  0  0  0
    2.9346   -0.4782    4.8501 H   0  0  0  0  0  0  0  0  0  0  0  0
    5.1685   -0.0307    4.8256 H   0  0  0  0  0  0  0  0  0  0  0  0
    4.3233    0.6912    1.0853 H   0  0  0  0  0  0  0  0  0  0  0  0
    2.4643   -1.0670   -0.4347 H   0  0  0  0  0  0  0  0  0  0  0  0
    6.6492   -1.3901    0.7932 H   0  0  0  0  0  0  0  0  0  0  0  0
    6.8005   -3.1013    0.3989 H   0  0  0  0  0  0  0  0  0  0  0  0
    5.5876   -2.5938   -2.9579 H   0  0  0  0  0  0  0  0  0  0  0  0
    4.5978   -3.1945   -1.6348 H   0  0  0  0  0  0  0  0  0  0  0  0
    6.2407   -3.8056   -1.8474 H   0  0  0  0  0  0  0  0  0  0  0  0
    2.3383   -4.3326    2.8545 H   0  0  0  0  0  0  0  0  0  0  0  0
    3.9627   -4.0266    2.3480 H   0  0  0  0  0  0  0  0  0  0  0  0
    2.5820   -3.4789    1.3951 H   0  0  0  0  0  0  0  0  0  0  0  0
    5.1890   -2.3013    3.2870 H   0  0  0  0  0  0  0  0  0  0  0  0
    4.5376   -4.8257    4.3932 H   0  0  0  0  0  0  0  0  0  0  0  0
    5.4812   -4.6964    5.8674 H   0  0  0  0  0  0  0  0  0  0  0  0
    6.1361   -4.1194    4.3549 H   0  0  0  0  0  0  0  0  0  0  0  0
    5.3522   -1.3328    6.2980 H   0  0  0  0  0  0  0  0  0  0  0  0
    3.6040   -3.5658    6.9492 H   0  0  0  0  0  0  0  0  0  0  0  0
    3.2556   -1.9226    6.5886 H   0  0  0  0  0  0  0  0  0  0  0  0
    2.4468   -4.3014    4.8504 H   0  0  0  0  0  0  0  0  0  0  0  0
    1.4389   -3.7386    5.9710 H   0  0  0  0  0  0  0  0  0  0  0  0
    0.9535   -2.8219    3.6593 H   0  0  0  0  0  0  0  0  0  0  0  0
   -0.0103   -2.6126    6.5603 H   0  0  0  0  0  0  0  0  0  0  0  0
   -0.2849   -1.0859    7.0466 H   0  0  0  0  0  0  0  0  0  0  0  0
    1.3448   -1.5707    7.1553 H   0  0  0  0  0  0  0  0  0  0  0  0
   -1.0275   -2.3615    4.5035 H   0  0  0  0  0  0  0  0  0  0  0  0
   -0.9137   -0.9220    3.5188 H   0  0  0  0  0  0  0  0  0  0  0  0
   -1.4847   -0.8007    5.1080 H   0  0  0  0  0  0  0  0  0  0  0  0
  1  2  1  0
  1 38  1  0
  1 39  1  0
  1 40  1  0
  2  3  2  3
  2 41  1  0
  3  4  1  0
  3  5  1  0
  4 42  1  0
  4 43  1  0
  4 44  1  0
  5  6  2  0
  5  7  1  0
  7  8  1  0
  8 35  1  0
  8  9  1  0
  8 45  1  1
  9 15  1  0
  9 10  1  0
  9 46  1  1
 10 11  1  0
 10 12  1  0
 10 47  1  6
 11 48  1  0
 12 13  1  0
 13 25  1  0
 13 14  1  1
 13 15  1  0
 14 49  1  0
 14 50  1  0
 14 51  1  0
 15 16  1  0
 15 52  1  1
 16 28  1  0
 16 17  1  0
 16 53  1  1
 17 18  1  0
 18 25  1  0
 18 19  1  0
 18 54  1  6
 19 20  1  6
 19 21  1  0
 25 19  1  6
 20 55  1  0
 21 22  1  0
 22 23  1  0
 22 56  1  0
 22 57  1  0
 23 24  1  0
 24 58  1  0
 24 59  1  0
 24 60  1  0
 25 26  1  0
 26 34  1  0
 26 27  1  6
 26 28  1  0
 27 61  1  0
 27 62  1  0
 27 63  1  0
 28 29  1  0
 28 64  1  6
 29 30  1  0
 29 31  1  1
 29 32  1  0
 30 65  1  0
 30 66  1  0
 30 67  1  0
 31 68  1  0
 32 33  1  0
 32 69  1  0
 32 70  1  0
 33 34  1  0
 33 71  1  0
 33 72  1  0
 34 35  1  0
 34 73  1  6
 35 36  1  0
 35 37  1  0
 36 74  1  0
 36 75  1  0
 36 76  1  0
 37 77  1  0
 37 78  1  0
 37 79  1  0
M  END
>  <i_m_ct_stereo_status>  (103) 
1

>  <s_m_source_file>  (103) 
/var/tmp/pbs.5076255.sched01/tmp4ovtozgc/0905bh7x9.sdf

>  <i_m_source_file_index>  (103) 
40

>  <i_lp_mmshare_version>  (103) 
48012

>  <i_f3d_flags>  (103) 
0

>  <s_epik_input>  (103) 
W0NIM10vW0NIXT1DKC9bQ0gzXSlDKD1PKU9bQ0BIXShbQ0BIXShbQ0BIXShPMSlbT0hdKVtDQEhdMltDQEBdMShbQ0BdMzQ1KVtDSDNdKUMoW0NIM10pKFtDSDNdKVtDQEhdNltDQF01KFtDSDNdKVtDQEhdKFtDQEBdKFtDSDNdKShbT0hdKVtDSDJdW0NIMl02KVtDQEhdMk9bQ0BASF0zW0NAQF00KFtPSF0pT1tDSDJdT1tDSDNd

>  <s_epik_cmdline>  (103) 
J2VwaWtfcHl0aG9uJywgJy1waHQnLCAnMi4wJywgJy1waCcsICc3LjAnLCAnLXRuJywgJzgnLCAnLW1hJywgJzIwMCcsICctaW1hZScsICc8aW5maWxlLm1hZT4nLCAnLW9tYWUnLCAnPG91dGZpbGUubWFlPic=

>  <r_lp_tautomer_probability>  (103) 
1

>  <r_epik_Ionization_Penalty>  (103) 
5.84453e-06

>  <r_epik_Ionization_Penalty_Charging>  (103) 
0

>  <r_epik_Ionization_Penalty_Neutral>  (103) 
5.84453e-06

>  <r_epik_State_Penalty>  (103) 
-0

>  <r_epik_Charging_Adjusted_Penalty>  (103) 
0

>  <i_epik_Tot_Q>  (103) 
0

>  <i_epik_Tot_abs_Q>  (103) 
0

>  <s_epik_Chemistry_Notes>  (103) 
This compound has an ester and may undergo hydrolysis at high or low pH. This compound contains an acetal/aminal-like group ( X-CH(R)-Y where X, Y are N, S, or O) that may be acid/base labile, releasing an aldehyde.

>  <s_lp_Force_Field>  (103) 
OPLS3e

>  <r_lp_Energy>  (103) 
253.007

>  <b_lp_Chiralities_Consistent>  (103) 
1

>  <s_lp_Variant>  (103) 
28:0-1

>  <s_i_glide_gridfile>  (103) 
pfpi4k_grid

>  <i_i_glide_lignum>  (103) 
40

>  <i_i_glide_rotatable_bonds>  (103) 
9

>  <r_i_docking_score>  (103) 
-2.8678

>  <r_i_glide_ligand_efficiency>  (103) 
-0.0775082

>  <r_i_glide_ligand_efficiency_sa>  (103) 
-0.258275

>  <r_i_glide_ligand_efficiency_ln>  (103) 
-0.621959

>  <r_i_glide_gscore>  (103) 
-2.8678

>  <r_i_glide_lipo>  (103) 
-0.533744

>  <r_i_glide_hbond>  (103) 
-0.183882

>  <r_i_glide_metal>  (103) 
-0

>  <r_i_glide_rewards>  (103) 
-0.0633589

>  <r_i_glide_evdw>  (103) 
-25.1931

>  <r_i_glide_ecoul>  (103) 
-7.68033

>  <r_i_glide_erotb>  (103) 
0.376457

>  <r_i_glide_esite>  (103) 
-0.0538074

>  <r_i_glide_emodel>  (103) 
-32.4247

>  <r_i_glide_energy>  (103) 
-32.8734

>  <r_i_glide_einternal>  (103) 
6.04488

>  <r_i_glide_intrahb_reward>  (103) 
-0

>  <i_i_glide_confnum>  (103) 
3

>  <i_i_glide_posenum>  (103) 
7

>  <r_i_glide_eff_state_penalty>  (103) 
0

>  <ligand_id>  (103) 
28

>  <original_smiles>  (103) 
CC=C(C)C(=O)OC1C2C(O)OC3(C)C2C2OC4C(O)(OCOC)C43C3(C)C2C(C)(O)CCC3C1(C)C

>  <smiles>  (103) 
[H]OC1([H])OC2(C([H])([H])[H])C3([H])C4([H])OC5([H])C(O[H])(OC([H])([H])OC([H])([H])[H])C52C2(C([H])([H])[H])C4([H])C(O[H])(C([H])([H])[H])C([H])([H])C([H])([H])C2([H])C(C([H])([H])[H])(C([H])([H])[H])C([H])(OC(=O)C(=C([H])C([H])([H])[H])C([H])([H])[H])C13[H]

$$$$
28:0:1
     RDKit          3D

 79 84  0  0  1  0  0  0  0  0999 V2000
   -3.0249    3.2643    7.9181 C   0  0  0  0  0  0  0  0  0  0  0  0
   -3.0541    3.0206    6.4100 C   0  0  0  0  0  0  0  0  0  0  0  0
   -2.1257    2.4889    5.5767 C   0  0  0  0  0  0  0  0  0  0  0  0
   -2.4065    2.3653    4.0816 C   0  0  0  0  0  0  0  0  0  0  0  0
   -0.8071    1.9747    6.0406 C   0  0  0  0  0  0  0  0  0  0  0  0
   -0.4566    1.9194    7.2185 O   0  0  0  0  0  0  0  0  0  0  0  0
   -0.0472    1.4923    5.0200 O   0  0  0  0  0  0  0  0  0  0  0  0
    1.1213    0.6841    5.2320 C   0  0  2  0  0  0  0  0  0  0  0  0
    2.4323    1.3730    4.6107 C   0  0  2  0  0  0  0  0  0  0  0  0
    2.2234    2.2015    3.3095 C   0  0  1  0  0  0  0  0  0  0  0  0
    3.0091    3.3685    3.3286 O   0  0  0  0  0  0  0  0  0  0  0  0
    2.6066    1.3481    2.2466 O   0  0  0  0  0  0  0  0  0  0  0  0
    2.4007   -0.0041    2.6777 C   0  0  2  0  0  0  0  0  0  0  0  0
    0.9269   -0.1394    2.2668 C   0  0  0  0  0  0  0  0  0  0  0  0
    3.1405    0.2428    4.0395 C   0  0  1  0  0  0  0  0  0  0  0  0
    4.6004   -0.3287    4.0702 C   0  0  2  0  0  0  0  0  0  0  0  0
    5.2537   -0.2482    2.7962 O   0  0  0  0  0  0  0  0  0  0  0  0
    4.3669   -0.4531    1.6924 C   0  0  1  0  0  0  0  0  0  0  0  0
    3.9899   -1.6741    1.0003 C   0  0  1  0  0  0  0  0  0  0  0  0
    3.4203   -1.4690   -0.2790 O   0  0  0  0  0  0  0  0  0  0  0  0
    4.9427   -2.7318    1.1400 O   0  0  0  0  0  0  0  0  0  0  0  0
    6.2358   -2.4946    0.6755 C   0  0  0  0  0  0  0  0  0  0  0  0
    6.2841   -2.4098   -0.7081 O   0  0  0  0  0  0  0  0  0  0  0  0
    7.5613   -2.7039   -1.2362 C   0  0  0  0  0  0  0  0  0  0  0  0
    3.0991   -1.2393    2.2082 C   0  0  2  0  0  0  0  0  0  0  0  0
    3.0463   -2.2444    3.4737 C   0  0  1  0  0  0  0  0  0  0  0  0
    3.0385   -3.7034    2.8926 C   0  0  0  0  0  0  0  0  0  0  0  0
    4.4367   -1.8990    4.1789 C   0  0  2  0  0  0  0  0  0  0  0  0
    4.7300   -2.5551    5.5680 C   0  0  1  0  0  0  0  0  0  0  0  0
    5.3201   -3.9778    5.4400 C   0  0  0  0  0  0  0  0  0  0  0  0
    5.7418   -1.8349    6.2434 O   0  0  0  0  0  0  0  0  0  0  0  0
    3.5111   -2.5533    6.4859 C   0  0  0  0  0  0  0  0  0  0  0  0
    2.2782   -3.1188    5.7654 C   0  0  0  0  0  0  0  0  0  0  0  0
    1.7732   -2.2014    4.5933 C   0  0  1  0  0  0  0  0  0  0  0  0
    0.7886   -0.9535    5.2254 C   0  0  0  0  0  0  0  0  0  0  0  0
    0.5054   -1.1941    6.7535 C   0  0  0  0  0  0  0  0  0  0  0  0
   -0.6782   -1.2235    4.7266 C   0  0  0  0  0  0  0  0  0  0  0  0
   -3.3967    4.2676    8.1343 H   0  0  0  0  0  0  0  0  0  0  0  0
   -2.0393    3.2235    8.3764 H   0  0  0  0  0  0  0  0  0  0  0  0
   -3.6724    2.5543    8.4321 H   0  0  0  0  0  0  0  0  0  0  0  0
   -3.9813    3.3222    5.9507 H   0  0  0  0  0  0  0  0  0  0  0  0
   -2.2197    1.3480    3.7290 H   0  0  0  0  0  0  0  0  0  0  0  0
   -1.7586    3.0365    3.5200 H   0  0  0  0  0  0  0  0  0  0  0  0
   -3.4411    2.6057    3.8314 H   0  0  0  0  0  0  0  0  0  0  0  0
    1.3958    0.8570    6.2717 H   0  0  0  0  0  0  0  0  0  0  0  0
    3.0132    1.9161    5.3596 H   0  0  0  0  0  0  0  0  0  0  0  0
    1.1865    2.5287    3.1820 H   0  0  0  0  0  0  0  0  0  0  0  0
    3.8900    3.1351    3.0244 H   0  0  0  0  0  0  0  0  0  0  0  0
    0.6129   -1.1761    2.2965 H   0  0  0  0  0  0  0  0  0  0  0  0
    0.8413    0.1454    1.2234 H   0  0  0  0  0  0  0  0  0  0  0  0
    0.2318    0.5218    2.7686 H   0  0  0  0  0  0  0  0  0  0  0  0
    3.0188   -0.3231    4.9416 H   0  0  0  0  0  0  0  0  0  0  0  0
    5.2288    0.1282    4.8366 H   0  0  0  0  0  0  0  0  0  0  0  0
    4.3323    0.4164    1.0430 H   0  0  0  0  0  0  0  0  0  0  0  0
    2.4617   -1.4516   -0.2279 H   0  0  0  0  0  0  0  0  0  0  0  0
    6.6761   -1.5967    1.1123 H   0  0  0  0  0  0  0  0  0  0  0  0
    6.8260   -3.3463    1.0180 H   0  0  0  0  0  0  0  0  0  0  0  0
    7.5357   -2.6250   -2.3204 H   0  0  0  0  0  0  0  0  0  0  0  0
    7.8561   -3.7220   -0.9874 H   0  0  0  0  0  0  0  0  0  0  0  0
    8.3184   -2.0183   -0.8565 H   0  0  0  0  0  0  0  0  0  0  0  0
    2.4142   -4.4107    3.4305 H   0  0  0  0  0  0  0  0  0  0  0  0
    4.0351   -4.1441    2.8644 H   0  0  0  0  0  0  0  0  0  0  0  0
    2.6358   -3.7299    1.8792 H   0  0  0  0  0  0  0  0  0  0  0  0
    5.2410   -2.3092    3.5667 H   0  0  0  0  0  0  0  0  0  0  0  0
    4.6277   -4.6886    4.9910 H   0  0  0  0  0  0  0  0  0  0  0  0
    5.6020   -4.3794    6.4163 H   0  0  0  0  0  0  0  0  0  0  0  0
    6.2130   -3.9783    4.8200 H   0  0  0  0  0  0  0  0  0  0  0  0
    6.5511   -1.9391    5.7685 H   0  0  0  0  0  0  0  0  0  0  0  0
    3.7219   -3.1447    7.3798 H   0  0  0  0  0  0  0  0  0  0  0  0
    3.3426   -1.5386    6.8398 H   0  0  0  0  0  0  0  0  0  0  0  0
    2.5364   -4.1133    5.4211 H   0  0  0  0  0  0  0  0  0  0  0  0
    1.5139   -3.3904    6.4807 H   0  0  0  0  0  0  0  0  0  0  0  0
    1.0271   -2.8117    4.0844 H   0  0  0  0  0  0  0  0  0  0  0  0
    0.0193   -2.1457    6.9700 H   0  0  0  0  0  0  0  0  0  0  0  0
   -0.2101   -0.4889    7.1600 H   0  0  0  0  0  0  0  0  0  0  0  0
    1.3838   -1.0864    7.3877 H   0  0  0  0  0  0  0  0  0  0  0  0
   -0.9670   -2.2633    4.8896 H   0  0  0  0  0  0  0  0  0  0  0  0
   -0.8905   -1.0255    3.6868 H   0  0  0  0  0  0  0  0  0  0  0  0
   -1.4212   -0.6360    5.2649 H   0  0  0  0  0  0  0  0  0  0  0  0
  1  2  1  0
  1 38  1  0
  1 39  1  0
  1 40  1  0
  2  3  2  3
  2 41  1  0
  3  4  1  0
  3  5  1  0
  4 42  1  0
  4 43  1  0
  4 44  1  0
  5  6  2  0
  5  7  1  0
  7  8  1  0
  8 35  1  0
  8  9  1  0
  8 45  1  1
  9 15  1  0
  9 10  1  0
  9 46  1  1
 10 11  1  0
 10 12  1  0
 10 47  1  6
 11 48  1  0
 12 13  1  0
 13 25  1  0
 13 14  1  1
 13 15  1  0
 14 49  1  0
 14 50  1  0
 14 51  1  0
 15 16  1  0
 15 52  1  1
 16 28  1  0
 16 17  1  0
 16 53  1  1
 17 18  1  0
 18 25  1  0
 18 19  1  0
 18 54  1  6
 19 20  1  6
 19 21  1  0
 25 19  1  6
 20 55  1  0
 21 22  1  0
 22 23  1  0
 22 56  1  0
 22 57  1  0
 23 24  1  0
 24 58  1  0
 24 59  1  0
 24 60  1  0
 25 26  1  0
 26 34  1  0
 26 27  1  6
 26 28  1  0
 27 61  1  0
 27 62  1  0
 27 63  1  0
 28 29  1  0
 28 64  1  6
 29 30  1  0
 29 31  1  1
 29 32  1  0
 30 65  1  0
 30 66  1  0
 30 67  1  0
 31 68  1  0
 32 33  1  0
 32 69  1  0
 32 70  1  0
 33 34  1  0
 33 71  1  0
 33 72  1  0
 34 35  1  0
 34 73  1  6
 35 36  1  0
 35 37  1  0
 36 74  1  0
 36 75  1  0
 36 76  1  0
 37 77  1  0
 37 78  1  0
 37 79  1  0
M  END
>  <i_m_ct_stereo_status>  (104) 
1

>  <s_m_source_file>  (104) 
/var/tmp/pbs.5076255.sched01/tmp4ovtozgc/0905bh7x9.sdf

>  <i_m_source_file_index>  (104) 
40

>  <i_lp_mmshare_version>  (104) 
48012

>  <i_f3d_flags>  (104) 
0

>  <s_epik_input>  (104) 
W0NIM10vW0NIXT1DKC9bQ0gzXSlDKD1PKU9bQ0BIXShbQ0BIXShbQ0BIXShPMSlbT0hdKVtDQEhdMltDQEBdMShbQ0BdMzQ1KVtDSDNdKUMoW0NIM10pKFtDSDNdKVtDQEhdNltDQF01KFtDSDNdKVtDQEhdKFtDQEBdKFtDSDNdKShbT0hdKVtDSDJdW0NIMl02KVtDQEhdMk9bQ0BASF0zW0NAQF00KFtPSF0pT1tDSDJdT1tDSDNd

>  <s_epik_cmdline>  (104) 
J2VwaWtfcHl0aG9uJywgJy1waHQnLCAnMi4wJywgJy1waCcsICc3LjAnLCAnLXRuJywgJzgnLCAnLW1hJywgJzIwMCcsICctaW1hZScsICc8aW5maWxlLm1hZT4nLCAnLW9tYWUnLCAnPG91dGZpbGUubWFlPic=

>  <r_lp_tautomer_probability>  (104) 
1

>  <r_epik_Ionization_Penalty>  (104) 
5.84453e-06

>  <r_epik_Ionization_Penalty_Charging>  (104) 
0

>  <r_epik_Ionization_Penalty_Neutral>  (104) 
5.84453e-06

>  <r_epik_State_Penalty>  (104) 
-0

>  <r_epik_Charging_Adjusted_Penalty>  (104) 
0

>  <i_epik_Tot_Q>  (104) 
0

>  <i_epik_Tot_abs_Q>  (104) 
0

>  <s_epik_Chemistry_Notes>  (104) 
This compound has an ester and may undergo hydrolysis at high or low pH. This compound contains an acetal/aminal-like group ( X-CH(R)-Y where X, Y are N, S, or O) that may be acid/base labile, releasing an aldehyde.

>  <s_lp_Force_Field>  (104) 
OPLS3e

>  <r_lp_Energy>  (104) 
253.007

>  <b_lp_Chiralities_Consistent>  (104) 
1

>  <s_lp_Variant>  (104) 
28:0-1

>  <s_i_glide_gridfile>  (104) 
pfpi4k_grid

>  <i_i_glide_lignum>  (104) 
40

>  <i_i_glide_rotatable_bonds>  (104) 
9

>  <r_i_docking_score>  (104) 
-2.74029

>  <r_i_glide_ligand_efficiency>  (104) 
-0.0740618

>  <r_i_glide_ligand_efficiency_sa>  (104) 
-0.24679

>  <r_i_glide_ligand_efficiency_ln>  (104) 
-0.594304

>  <r_i_glide_gscore>  (104) 
-2.74029

>  <r_i_glide_lipo>  (104) 
-0.497433

>  <r_i_glide_hbond>  (104) 
-0.0526583

>  <r_i_glide_metal>  (104) 
-0

>  <r_i_glide_rewards>  (104) 
-0.109986

>  <r_i_glide_evdw>  (104) 
-27.1776

>  <r_i_glide_ecoul>  (104) 
-7.03685

>  <r_i_glide_erotb>  (104) 
0.376457

>  <r_i_glide_esite>  (104) 
-0.042259

>  <r_i_glide_emodel>  (104) 
-34.4386

>  <r_i_glide_energy>  (104) 
-34.2145

>  <r_i_glide_einternal>  (104) 
9.04504

>  <r_i_glide_intrahb_reward>  (104) 
-0

>  <i_i_glide_confnum>  (104) 
3

>  <i_i_glide_posenum>  (104) 
5

>  <r_i_glide_eff_state_penalty>  (104) 
0

>  <ligand_id>  (104) 
28

>  <original_smiles>  (104) 
CC=C(C)C(=O)OC1C2C(O)OC3(C)C2C2OC4C(O)(OCOC)C43C3(C)C2C(C)(O)CCC3C1(C)C

>  <smiles>  (104) 
[H]OC1([H])OC2(C([H])([H])[H])C3([H])C4([H])OC5([H])C(O[H])(OC([H])([H])OC([H])([H])[H])C52C2(C([H])([H])[H])C4([H])C(O[H])(C([H])([H])[H])C([H])([H])C([H])([H])C2([H])C(C([H])([H])[H])(C([H])([H])[H])C([H])(OC(=O)C(=C([H])C([H])([H])[H])C([H])([H])[H])C13[H]

$$$$
28:0:2
     RDKit          3D

 79 84  0  0  1  0  0  0  0  0999 V2000
    3.6652   -2.8120   -1.4551 C   0  0  0  0  0  0  0  0  0  0  0  0
    4.2906   -1.6531   -0.6908 C   0  0  0  0  0  0  0  0  0  0  0  0
    4.0389   -1.1937    0.5610 C   0  0  0  0  0  0  0  0  0  0  0  0
    4.7943    0.0095    1.1111 C   0  0  0  0  0  0  0  0  0  0  0  0
    3.0610   -1.8303    1.4896 C   0  0  0  0  0  0  0  0  0  0  0  0
    2.6145   -2.9704    1.3560 O   0  0  0  0  0  0  0  0  0  0  0  0
    2.7804   -1.0423    2.5669 O   0  0  0  0  0  0  0  0  0  0  0  0
    2.0861   -1.5270    3.7267 C   0  0  2  0  0  0  0  0  0  0  0  0
    0.6202   -0.8984    3.8515 C   0  0  2  0  0  0  0  0  0  0  0  0
    0.4564    0.5620    3.3561 C   0  0  1  0  0  0  0  0  0  0  0  0
   -0.7725    0.7102    2.6877 O   0  0  0  0  0  0  0  0  0  0  0  0
    0.5048    1.3678    4.5219 O   0  0  0  0  0  0  0  0  0  0  0  0
    1.2885    0.6741    5.5026 C   0  0  2  0  0  0  0  0  0  0  0  0
    2.6830    1.1846    5.0862 C   0  0  0  0  0  0  0  0  0  0  0  0
    0.4952   -0.6607    5.2742 C   0  0  1  0  0  0  0  0  0  0  0  0
   -0.5638   -0.9584    6.3910 C   0  0  2  0  0  0  0  0  0  0  0  0
   -1.1699    0.2359    6.9018 O   0  0  0  0  0  0  0  0  0  0  0  0
   -0.2655    1.3435    6.9874 C   0  0  1  0  0  0  0  0  0  0  0  0
    0.6274    1.7686    8.0459 C   0  0  1  0  0  0  0  0  0  0  0  0
    1.1313    3.0803    7.9160 O   0  0  0  0  0  0  0  0  0  0  0  0
    0.2603    1.3273    9.3537 O   0  0  0  0  0  0  0  0  0  0  0  0
   -0.8632    1.9312    9.9089 C   0  0  0  0  0  0  0  0  0  0  0  0
   -0.6694    3.2917   10.1013 O   0  0  0  0  0  0  0  0  0  0  0  0
   -1.6999    3.8946   10.8646 C   0  0  0  0  0  0  0  0  0  0  0  0
    1.2140    0.7793    6.9933 C   0  0  2  0  0  0  0  0  0  0  0  0
    1.6865   -0.6702    7.5318 C   0  0  1  0  0  0  0  0  0  0  0  0
    2.3487   -0.4400    8.9368 C   0  0  0  0  0  0  0  0  0  0  0  0
    0.2772   -1.4018    7.6592 C   0  0  2  0  0  0  0  0  0  0  0  0
    0.2715   -2.9223    8.0231 C   0  0  1  0  0  0  0  0  0  0  0  0
    0.3590   -3.1715    9.5460 C   0  0  0  0  0  0  0  0  0  0  0  0
   -0.9759   -3.4939    7.6811 O   0  0  0  0  0  0  0  0  0  0  0  0
    1.3485   -3.7061    7.2687 C   0  0  0  0  0  0  0  0  0  0  0  0
    2.7189   -3.0247    7.3954 C   0  0  0  0  0  0  0  0  0  0  0  0
    2.7864   -1.6343    6.6674 C   0  0  1  0  0  0  0  0  0  0  0  0
    3.1042   -1.8661    5.0031 C   0  0  0  0  0  0  0  0  0  0  0  0
    3.4298   -3.3724    4.6900 C   0  0  0  0  0  0  0  0  0  0  0  0
    4.5495   -1.3167    4.7262 C   0  0  0  0  0  0  0  0  0  0  0  0
    3.4519   -2.4986   -2.4791 H   0  0  0  0  0  0  0  0  0  0  0  0
    2.7207   -3.1598   -1.0422 H   0  0  0  0  0  0  0  0  0  0  0  0
    4.3556   -3.6541   -1.4999 H   0  0  0  0  0  0  0  0  0  0  0  0
    5.0506   -1.1395   -1.2578 H   0  0  0  0  0  0  0  0  0  0  0  0
    5.2341   -0.2090    2.0836 H   0  0  0  0  0  0  0  0  0  0  0  0
    4.1210    0.8605    1.2150 H   0  0  0  0  0  0  0  0  0  0  0  0
    5.6260    0.3049    0.4764 H   0  0  0  0  0  0  0  0  0  0  0  0
    1.7375   -2.5229    3.4569 H   0  0  0  0  0  0  0  0  0  0  0  0
   -0.1540   -1.5573    3.4557 H   0  0  0  0  0  0  0  0  0  0  0  0
    1.2336    0.8611    2.6512 H   0  0  0  0  0  0  0  0  0  0  0  0
   -0.7387    1.5088    2.1798 H   0  0  0  0  0  0  0  0  0  0  0  0
    3.4343    0.9346    5.8274 H   0  0  0  0  0  0  0  0  0  0  0  0
    2.6634    2.2739    5.0797 H   0  0  0  0  0  0  0  0  0  0  0  0
    3.0001    0.9141    4.0855 H   0  0  0  0  0  0  0  0  0  0  0  0
    0.8357   -1.6541    5.4931 H   0  0  0  0  0  0  0  0  0  0  0  0
   -1.3387   -1.6574    6.0761 H   0  0  0  0  0  0  0  0  0  0  0  0
   -0.6028    2.1761    6.3753 H   0  0  0  0  0  0  0  0  0  0  0  0
    0.4871    3.6664    8.2954 H   0  0  0  0  0  0  0  0  0  0  0  0
   -1.7430    1.7647    9.2859 H   0  0  0  0  0  0  0  0  0  0  0  0
   -1.0384    1.4506   10.8747 H   0  0  0  0  0  0  0  0  0  0  0  0
   -1.4838    4.9545   11.0038 H   0  0  0  0  0  0  0  0  0  0  0  0
   -1.7769    3.4401   11.8525 H   0  0  0  0  0  0  0  0  0  0  0  0
   -2.6646    3.8089   10.3636 H   0  0  0  0  0  0  0  0  0  0  0  0
    3.2115   -1.0631    9.1518 H   0  0  0  0  0  0  0  0  0  0  0  0
    1.6521   -0.5993    9.7597 H   0  0  0  0  0  0  0  0  0  0  0  0
    2.7422    0.5719    9.0335 H   0  0  0  0  0  0  0  0  0  0  0  0
   -0.2295   -0.9627    8.5177 H   0  0  0  0  0  0  0  0  0  0  0  0
    1.2977   -2.8287    9.9758 H   0  0  0  0  0  0  0  0  0  0  0  0
    0.2757   -4.2334    9.7834 H   0  0  0  0  0  0  0  0  0  0  0  0
   -0.4436   -2.6620   10.0815 H   0  0  0  0  0  0  0  0  0  0  0  0
   -0.9137   -4.4276    7.8262 H   0  0  0  0  0  0  0  0  0  0  0  0
    1.4125   -4.7262    7.6527 H   0  0  0  0  0  0  0  0  0  0  0  0
    1.0505   -3.8020    6.2268 H   0  0  0  0  0  0  0  0  0  0  0  0
    2.9321   -2.9383    8.4545 H   0  0  0  0  0  0  0  0  0  0  0  0
    3.5144   -3.7057    7.1145 H   0  0  0  0  0  0  0  0  0  0  0  0
    3.7352   -1.2119    6.9993 H   0  0  0  0  0  0  0  0  0  0  0  0
    4.2911   -3.7603    5.2335 H   0  0  0  0  0  0  0  0  0  0  0  0
    3.7175   -3.5175    3.6506 H   0  0  0  0  0  0  0  0  0  0  0  0
    2.5923   -4.0497    4.8360 H   0  0  0  0  0  0  0  0  0  0  0  0
    5.2622   -1.6891    5.4637 H   0  0  0  0  0  0  0  0  0  0  0  0
    4.6838   -0.2451    4.7134 H   0  0  0  0  0  0  0  0  0  0  0  0
    4.9366   -1.6538    3.7668 H   0  0  0  0  0  0  0  0  0  0  0  0
  1  2  1  0
  1 38  1  0
  1 39  1  0
  1 40  1  0
  2  3  2  3
  2 41  1  0
  3  4  1  0
  3  5  1  0
  4 42  1  0
  4 43  1  0
  4 44  1  0
  5  6  2  0
  5  7  1  0
  7  8  1  0
  8 35  1  0
  8  9  1  0
  8 45  1  6
  9 15  1  0
  9 10  1  0
  9 46  1  6
 10 11  1  0
 10 12  1  0
 10 47  1  6
 11 48  1  0
 12 13  1  0
 13 25  1  0
 13 14  1  6
 13 15  1  0
 14 49  1  0
 14 50  1  0
 14 51  1  0
 15 16  1  0
 15 52  1  1
 16 28  1  0
 16 17  1  0
 16 53  1  6
 17 18  1  0
 18 25  1  0
 18 19  1  0
 18 54  1  6
 19 20  1  1
 19 21  1  0
 25 19  1  1
 20 55  1  0
 21 22  1  0
 22 23  1  0
 22 56  1  0
 22 57  1  0
 23 24  1  0
 24 58  1  0
 24 59  1  0
 24 60  1  0
 25 26  1  0
 26 34  1  0
 26 27  1  1
 26 28  1  0
 27 61  1  0
 27 62  1  0
 27 63  1  0
 28 29  1  0
 28 64  1  1
 29 30  1  0
 29 31  1  6
 29 32  1  0
 30 65  1  0
 30 66  1  0
 30 67  1  0
 31 68  1  0
 32 33  1  0
 32 69  1  0
 32 70  1  0
 33 34  1  0
 33 71  1  0
 33 72  1  0
 34 35  1  0
 34 73  1  1
 35 36  1  0
 35 37  1  0
 36 74  1  0
 36 75  1  0
 36 76  1  0
 37 77  1  0
 37 78  1  0
 37 79  1  0
M  END
>  <i_m_ct_stereo_status>  (105) 
1

>  <s_m_source_file>  (105) 
/var/tmp/pbs.5076255.sched01/tmp4ovtozgc/0905bh7x9.sdf

>  <i_m_source_file_index>  (105) 
40

>  <i_lp_mmshare_version>  (105) 
48012

>  <i_f3d_flags>  (105) 
0

>  <s_epik_input>  (105) 
W0NIM10vW0NIXT1DKC9bQ0gzXSlDKD1PKU9bQ0BIXShbQ0BIXShbQ0BIXShPMSlbT0hdKVtDQEhdMltDQEBdMShbQ0BdMzQ1KVtDSDNdKUMoW0NIM10pKFtDSDNdKVtDQEhdNltDQF01KFtDSDNdKVtDQEhdKFtDQEBdKFtDSDNdKShbT0hdKVtDSDJdW0NIMl02KVtDQEhdMk9bQ0BASF0zW0NAQF00KFtPSF0pT1tDSDJdT1tDSDNd

>  <s_epik_cmdline>  (105) 
J2VwaWtfcHl0aG9uJywgJy1waHQnLCAnMi4wJywgJy1waCcsICc3LjAnLCAnLXRuJywgJzgnLCAnLW1hJywgJzIwMCcsICctaW1hZScsICc8aW5maWxlLm1hZT4nLCAnLW9tYWUnLCAnPG91dGZpbGUubWFlPic=

>  <r_lp_tautomer_probability>  (105) 
1

>  <r_epik_Ionization_Penalty>  (105) 
5.84453e-06

>  <r_epik_Ionization_Penalty_Charging>  (105) 
0

>  <r_epik_Ionization_Penalty_Neutral>  (105) 
5.84453e-06

>  <r_epik_State_Penalty>  (105) 
-0

>  <r_epik_Charging_Adjusted_Penalty>  (105) 
0

>  <i_epik_Tot_Q>  (105) 
0

>  <i_epik_Tot_abs_Q>  (105) 
0

>  <s_epik_Chemistry_Notes>  (105) 
This compound has an ester and may undergo hydrolysis at high or low pH. This compound contains an acetal/aminal-like group ( X-CH(R)-Y where X, Y are N, S, or O) that may be acid/base labile, releasing an aldehyde.

>  <s_lp_Force_Field>  (105) 
OPLS3e

>  <r_lp_Energy>  (105) 
253.007

>  <b_lp_Chiralities_Consistent>  (105) 
1

>  <s_lp_Variant>  (105) 
28:0-1

>  <s_i_glide_gridfile>  (105) 
pfpi4k_grid

>  <i_i_glide_lignum>  (105) 
40

>  <i_i_glide_rotatable_bonds>  (105) 
9

>  <r_i_docking_score>  (105) 
-2.15682

>  <r_i_glide_ligand_efficiency>  (105) 
-0.0582925

>  <r_i_glide_ligand_efficiency_sa>  (105) 
-0.194244

>  <r_i_glide_ligand_efficiency_ln>  (105) 
-0.467765

>  <r_i_glide_gscore>  (105) 
-2.15682

>  <r_i_glide_lipo>  (105) 
-0.115355

>  <r_i_glide_hbond>  (105) 
-0.175702

>  <r_i_glide_metal>  (105) 
-0

>  <r_i_glide_rewards>  (105) 
-0.5

>  <r_i_glide_evdw>  (105) 
-19.6604

>  <r_i_glide_ecoul>  (105) 
-4.45857

>  <r_i_glide_erotb>  (105) 
0.376457

>  <r_i_glide_esite>  (105) 
-0.0904169

>  <r_i_glide_emodel>  (105) 
-30.8604

>  <r_i_glide_energy>  (105) 
-24.119

>  <r_i_glide_einternal>  (105) 
5.43296

>  <r_i_glide_intrahb_reward>  (105) 
-0.5

>  <i_i_glide_confnum>  (105) 
3

>  <i_i_glide_posenum>  (105) 
15

>  <r_i_glide_eff_state_penalty>  (105) 
0

>  <ligand_id>  (105) 
28

>  <original_smiles>  (105) 
CC=C(C)C(=O)OC1C2C(O)OC3(C)C2C2OC4C(O)(OCOC)C43C3(C)C2C(C)(O)CCC3C1(C)C

>  <smiles>  (105) 
[H]OC1([H])OC2(C([H])([H])[H])C3([H])C4([H])OC5([H])C(O[H])(OC([H])([H])OC([H])([H])[H])C52C2(C([H])([H])[H])C4([H])C(O[H])(C([H])([H])[H])C([H])([H])C([H])([H])C2([H])C(C([H])([H])[H])(C([H])([H])[H])C([H])(OC(=O)C(=C([H])C([H])([H])[H])C([H])([H])[H])C13[H]

$$$$
28:1:0
     RDKit          3D

 79 84  0  0  1  0  0  0  0  0999 V2000
    2.9774    0.5265    1.6592 C   0  0  0  0  0  0  0  0  0  0  0  0
    3.4693   -0.8839    1.3960 C   0  0  0  0  0  0  0  0  0  0  0  0
    4.6875   -1.2572    0.9323 C   0  0  0  0  0  0  0  0  0  0  0  0
    5.8173   -0.2904    0.6157 C   0  0  0  0  0  0  0  0  0  0  0  0
    5.0275   -2.6855    0.7228 C   0  0  0  0  0  0  0  0  0  0  0  0
    6.0394   -3.0332    0.1080 O   0  0  0  0  0  0  0  0  0  0  0  0
    4.1515   -3.5472    1.3095 O   0  0  0  0  0  0  0  0  0  0  0  0
    4.4329   -4.9343    1.5002 C   0  0  2  0  0  0  0  0  0  0  0  0
    3.3451   -5.8636    0.7803 C   0  0  2  0  0  0  0  0  0  0  0  0
    1.8982   -5.3274    0.7463 C   0  0  1  0  0  0  0  0  0  0  0  0
    1.3121   -5.5929   -0.4963 O   0  0  0  0  0  0  0  0  0  0  0  0
    1.2004   -5.9739    1.7925 O   0  0  0  0  0  0  0  0  0  0  0  0
    2.1595   -6.2997    2.8064 C   0  0  2  0  0  0  0  0  0  0  0  0
    2.1338   -4.9853    3.5974 C   0  0  0  0  0  0  0  0  0  0  0  0
    3.1357   -6.9210    1.7488 C   0  0  1  0  0  0  0  0  0  0  0  0
    3.1221   -8.4881    1.7505 C   0  0  2  0  0  0  0  0  0  0  0  0
    1.7993   -8.9555    2.0010 O   0  0  0  0  0  0  0  0  0  0  0  0
    1.0621   -8.2538    3.0147 C   0  0  1  0  0  0  0  0  0  0  0  0
    1.0616   -8.3495    4.4604 C   0  0  1  0  0  0  0  0  0  0  0  0
   -0.0303   -7.7008    5.0767 O   0  0  0  0  0  0  0  0  0  0  0  0
    1.4055   -9.6426    4.9433 O   0  0  0  0  0  0  0  0  0  0  0  0
    0.4692  -10.6679    4.7279 C   0  0  0  0  0  0  0  0  0  0  0  0
    1.0269  -11.8317    4.1818 O   0  0  0  0  0  0  0  0  0  0  0  0
    1.5587  -11.6335    2.8948 C   0  0  0  0  0  0  0  0  0  0  0  0
    2.1240   -7.3902    3.8319 C   0  0  2  0  0  0  0  0  0  0  0  0
    3.6777   -7.7587    4.1169 C   0  0  1  0  0  0  0  0  0  0  0  0
    3.7617   -8.3282    5.5792 C   0  0  0  0  0  0  0  0  0  0  0  0
    3.9058   -8.9163    3.0643 C   0  0  2  0  0  0  0  0  0  0  0  0
    5.3253   -9.5360    2.8396 C   0  0  1  0  0  0  0  0  0  0  0  0
    5.6571  -10.6509    3.8601 C   0  0  0  0  0  0  0  0  0  0  0  0
    5.4254  -10.2003    1.5860 O   0  0  0  0  0  0  0  0  0  0  0  0
    6.3974   -8.4480    2.8254 C   0  0  0  0  0  0  0  0  0  0  0  0
    6.2252   -7.5013    4.0284 C   0  0  0  0  0  0  0  0  0  0  0  0
    4.9154   -6.6280    3.9733 C   0  0  1  0  0  0  0  0  0  0  0  0
    5.1506   -5.2669    2.9699 C   0  0  0  0  0  0  0  0  0  0  0  0
    6.6568   -5.1672    2.5552 C   0  0  0  0  0  0  0  0  0  0  0  0
    5.1037   -4.0108    3.9112 C   0  0  0  0  0  0  0  0  0  0  0  0
    2.5015    0.5808    2.6384 H   0  0  0  0  0  0  0  0  0  0  0  0
    2.2309    0.7879    0.9097 H   0  0  0  0  0  0  0  0  0  0  0  0
    3.7592    1.2813    1.6376 H   0  0  0  0  0  0  0  0  0  0  0  0
    2.7295   -1.6379    1.6067 H   0  0  0  0  0  0  0  0  0  0  0  0
    6.3098   -0.5439   -0.3209 H   0  0  0  0  0  0  0  0  0  0  0  0
    6.5677   -0.2916    1.4091 H   0  0  0  0  0  0  0  0  0  0  0  0
    5.4638    0.7239    0.4992 H   0  0  0  0  0  0  0  0  0  0  0  0
    5.2248   -5.1568    0.7879 H   0  0  0  0  0  0  0  0  0  0  0  0
    3.6683   -6.2491   -0.1862 H   0  0  0  0  0  0  0  0  0  0  0  0
    1.8545   -4.2549    0.8903 H   0  0  0  0  0  0  0  0  0  0  0  0
    1.9867   -5.5853   -1.1682 H   0  0  0  0  0  0  0  0  0  0  0  0
    2.6564   -5.0894    4.5444 H   0  0  0  0  0  0  0  0  0  0  0  0
    1.1027   -4.7707    3.8840 H   0  0  0  0  0  0  0  0  0  0  0  0
    2.4600   -4.1160    3.0459 H   0  0  0  0  0  0  0  0  0  0  0  0
    4.1929   -7.0469    1.8365 H   0  0  0  0  0  0  0  0  0  0  0  0
    3.4517   -8.9362    0.8136 H   0  0  0  0  0  0  0  0  0  0  0  0
    0.1208   -7.8730    2.6164 H   0  0  0  0  0  0  0  0  0  0  0  0
   -0.7808   -8.2878    5.0997 H   0  0  0  0  0  0  0  0  0  0  0  0
    0.0639  -10.9546    5.7060 H   0  0  0  0  0  0  0  0  0  0  0  0
   -0.3486  -10.3241    4.0836 H   0  0  0  0  0  0  0  0  0  0  0  0
    1.9979  -12.5675    2.5117 H   0  0  0  0  0  0  0  0  0  0  0  0
    2.4245  -11.0333    2.9045 H   0  0  0  0  0  0  0  0  0  0  0  0
    0.8218  -11.1763    2.2084 H   0  0  0  0  0  0  0  0  0  0  0  0
    4.6546   -8.0780    6.1338 H   0  0  0  0  0  0  0  0  0  0  0  0
    3.7063   -9.4116    5.6500 H   0  0  0  0  0  0  0  0  0  0  0  0
    2.9554   -7.9631    6.2102 H   0  0  0  0  0  0  0  0  0  0  0  0
    3.4200   -9.6994    3.5956 H   0  0  0  0  0  0  0  0  0  0  0  0
    5.6574  -10.2919    4.8862 H   0  0  0  0  0  0  0  0  0  0  0  0
    6.6429  -11.0807    3.6732 H   0  0  0  0  0  0  0  0  0  0  0  0
    4.9400  -11.4686    3.8083 H   0  0  0  0  0  0  0  0  0  0  0  0
    4.7493  -10.8711    1.4783 H   0  0  0  0  0  0  0  0  0  0  0  0
    7.3956   -8.9001    2.8315 H   0  0  0  0  0  0  0  0  0  0  0  0
    6.3193   -7.9112    1.8802 H   0  0  0  0  0  0  0  0  0  0  0  0
    6.2566   -8.1314    4.9055 H   0  0  0  0  0  0  0  0  0  0  0  0
    7.1281   -6.9271    4.1848 H   0  0  0  0  0  0  0  0  0  0  0  0
    4.8671   -6.1686    4.9614 H   0  0  0  0  0  0  0  0  0  0  0  0
    7.3258   -5.0989    3.4048 H   0  0  0  0  0  0  0  0  0  0  0  0
    6.8739   -4.2480    2.0296 H   0  0  0  0  0  0  0  0  0  0  0  0
    7.0057   -5.9534    1.8899 H   0  0  0  0  0  0  0  0  0  0  0  0
    5.7406   -4.1572    4.7830 H   0  0  0  0  0  0  0  0  0  0  0  0
    4.1418   -3.7135    4.2979 H   0  0  0  0  0  0  0  0  0  0  0  0
    5.4864   -3.1187    3.4248 H   0  0  0  0  0  0  0  0  0  0  0  0
  1  2  1  0
  1 38  1  0
  1 39  1  0
  1 40  1  0
  2  3  2  3
  2 41  1  0
  3  4  1  0
  3  5  1  0
  4 42  1  0
  4 43  1  0
  4 44  1  0
  5  6  2  0
  5  7  1  0
  7  8  1  0
  8 35  1  0
  8  9  1  0
  8 45  1  6
  9 15  1  0
  9 10  1  0
  9 46  1  6
 10 11  1  0
 10 12  1  0
 10 47  1  1
 11 48  1  0
 12 13  1  0
 13 25  1  0
 13 14  1  1
 13 15  1  0
 14 49  1  0
 14 50  1  0
 14 51  1  0
 15 16  1  0
 15 52  1  1
 16 28  1  0
 16 17  1  0
 16 53  1  6
 17 18  1  0
 18 25  1  0
 18 19  1  0
 18 54  1  6
 19 20  1  1
 19 21  1  0
 25 19  1  1
 20 55  1  0
 21 22  1  0
 22 23  1  0
 22 56  1  0
 22 57  1  0
 23 24  1  0
 24 58  1  0
 24 59  1  0
 24 60  1  0
 25 26  1  0
 26 34  1  0
 26 27  1  1
 26 28  1  0
 27 61  1  0
 27 62  1  0
 27 63  1  0
 28 29  1  0
 28 64  1  1
 29 30  1  0
 29 31  1  6
 29 32  1  0
 30 65  1  0
 30 66  1  0
 30 67  1  0
 31 68  1  0
 32 33  1  0
 32 69  1  0
 32 70  1  0
 33 34  1  0
 33 71  1  0
 33 72  1  0
 34 35  1  0
 34 73  1  1
 35 36  1  0
 35 37  1  0
 36 74  1  0
 36 75  1  0
 36 76  1  0
 37 77  1  0
 37 78  1  0
 37 79  1  0
M  END
>  <i_m_ct_stereo_status>  (106) 
1

>  <s_m_source_file>  (106) 
/var/tmp/pbs.5076255.sched01/tmp8yzwbncg/40d_vk9m1l.sdf

>  <i_m_source_file_index>  (106) 
1

>  <i_lp_mmshare_version>  (106) 
48012

>  <i_f3d_flags>  (106) 
0

>  <s_epik_input>  (106) 
W0NIM10vW0NIXT1DKC9bQ0gzXSlDKD1PKU9bQ0BIXShbQ0BIXShbQ0BIXShPMSlbT0hdKVtDQEhdMltDQEBdMShbQ0BdMzQ1KVtDSDNdKUMoW0NIM10pKFtDSDNdKVtDQEhdNltDQF01KFtDSDNdKVtDQEhdKFtDQEBdKFtDSDNdKShbT0hdKVtDSDJdW0NIMl02KVtDQEhdMk9bQ0BASF0zW0NAQF00KFtPSF0pT1tDSDJdT1tDSDNd

>  <s_epik_cmdline>  (106) 
J2VwaWtfcHl0aG9uJywgJy1waHQnLCAnMi4wJywgJy1waCcsICc3LjAnLCAnLXRuJywgJzgnLCAnLW1hJywgJzIwMCcsICctaW1hZScsICc8aW5maWxlLm1hZT4nLCAnLW9tYWUnLCAnPG91dGZpbGUubWFlPic=

>  <r_lp_tautomer_probability>  (106) 
1

>  <r_epik_Ionization_Penalty>  (106) 
5.84453e-06

>  <r_epik_Ionization_Penalty_Charging>  (106) 
0

>  <r_epik_Ionization_Penalty_Neutral>  (106) 
5.84453e-06

>  <r_epik_State_Penalty>  (106) 
-0

>  <r_epik_Charging_Adjusted_Penalty>  (106) 
0

>  <i_epik_Tot_Q>  (106) 
0

>  <i_epik_Tot_abs_Q>  (106) 
0

>  <s_epik_Chemistry_Notes>  (106) 
This compound has an ester and may undergo hydrolysis at high or low pH. This compound contains an acetal/aminal-like group ( X-CH(R)-Y where X, Y are N, S, or O) that may be acid/base labile, releasing an aldehyde.

>  <s_lp_Force_Field>  (106) 
OPLS3e

>  <r_lp_Energy>  (106) 
251.189

>  <b_lp_Chiralities_Consistent>  (106) 
1

>  <s_lp_Variant>  (106) 
28:0-2

>  <s_i_glide_gridfile>  (106) 
pfpi4k_grid

>  <i_i_glide_lignum>  (106) 
1

>  <i_i_glide_rotatable_bonds>  (106) 
9

>  <r_i_docking_score>  (106) 
-3.32045

>  <r_i_glide_ligand_efficiency>  (106) 
-0.0897418

>  <r_i_glide_ligand_efficiency_sa>  (106) 
-0.29904

>  <r_i_glide_ligand_efficiency_ln>  (106) 
-0.720127

>  <r_i_glide_gscore>  (106) 
-3.32045

>  <r_i_glide_lipo>  (106) 
-0.444615

>  <r_i_glide_hbond>  (106) 
-0.216048

>  <r_i_glide_metal>  (106) 
-0

>  <r_i_glide_rewards>  (106) 
-0.0374757

>  <r_i_glide_evdw>  (106) 
-17.7324

>  <r_i_glide_ecoul>  (106) 
-12.9181

>  <r_i_glide_erotb>  (106) 
0.376457

>  <r_i_glide_esite>  (106) 
-0.174436

>  <r_i_glide_emodel>  (106) 
-32.4857

>  <r_i_glide_energy>  (106) 
-30.6505

>  <r_i_glide_einternal>  (106) 
6.66712

>  <r_i_glide_intrahb_reward>  (106) 
-0

>  <i_i_glide_confnum>  (106) 
3

>  <i_i_glide_posenum>  (106) 
28

>  <r_i_glide_eff_state_penalty>  (106) 
0

>  <ligand_id>  (106) 
28

>  <original_smiles>  (106) 
CC=C(C)C(=O)OC1C2C(O)OC3(C)C2C2OC4C(O)(OCOC)C43C3(C)C2C(C)(O)CCC3C1(C)C

>  <smiles>  (106) 
[H]OC1([H])OC2(C([H])([H])[H])C3([H])C4([H])OC5([H])C(O[H])(OC([H])([H])OC([H])([H])[H])C52C2(C([H])([H])[H])C4([H])C(O[H])(C([H])([H])[H])C([H])([H])C([H])([H])C2([H])C(C([H])([H])[H])(C([H])([H])[H])C([H])(OC(=O)C(=C([H])C([H])([H])[H])C([H])([H])[H])C13[H]

$$$$
28:1:1
     RDKit          3D

 79 84  0  0  1  0  0  0  0  0999 V2000
    2.5210    0.3483    1.6430 C   0  0  0  0  0  0  0  0  0  0  0  0
    3.1526   -1.0159    1.4027 C   0  0  0  0  0  0  0  0  0  0  0  0
    4.4246   -1.2707    1.0153 C   0  0  0  0  0  0  0  0  0  0  0  0
    5.4799   -0.1996    0.8020 C   0  0  0  0  0  0  0  0  0  0  0  0
    4.8965   -2.6582    0.7916 C   0  0  0  0  0  0  0  0  0  0  0  0
    5.9093   -2.9310    0.1353 O   0  0  0  0  0  0  0  0  0  0  0  0
    4.1238   -3.5866    1.4208 O   0  0  0  0  0  0  0  0  0  0  0  0
    4.4927   -4.9752    1.5228 C   0  0  2  0  0  0  0  0  0  0  0  0
    3.4111   -5.9244    0.8210 C   0  0  2  0  0  0  0  0  0  0  0  0
    1.9307   -5.4632    0.8914 C   0  0  1  0  0  0  0  0  0  0  0  0
    1.2690   -5.7569   -0.3118 O   0  0  0  0  0  0  0  0  0  0  0  0
    1.3474   -6.1784    1.9750 O   0  0  0  0  0  0  0  0  0  0  0  0
    2.3925   -6.5304    2.8837 C   0  0  2  0  0  0  0  0  0  0  0  0
    2.3525   -5.2702    3.7558 C   0  0  0  0  0  0  0  0  0  0  0  0
    3.3155   -7.0387    1.7217 C   0  0  1  0  0  0  0  0  0  0  0  0
    3.3518   -8.6021    1.5915 C   0  0  2  0  0  0  0  0  0  0  0  0
    2.1011   -9.2009    1.9476 O   0  0  0  0  0  0  0  0  0  0  0  0
    1.4201   -8.5332    3.0213 C   0  0  1  0  0  0  0  0  0  0  0  0
    1.4670   -8.7344    4.4510 C   0  0  1  0  0  0  0  0  0  0  0  0
    0.3862   -8.1744    5.2013 O   0  0  0  0  0  0  0  0  0  0  0  0
    1.9288  -10.0274    4.8398 O   0  0  0  0  0  0  0  0  0  0  0  0
    1.1068  -11.0669    4.4567 C   0  0  0  0  0  0  0  0  0  0  0  0
    1.7903  -12.2513    4.5270 O   0  0  0  0  0  0  0  0  0  0  0  0
    3.0213  -12.3079    3.8258 C   0  0  0  0  0  0  0  0  0  0  0  0
    2.4556   -7.7014    3.8233 C   0  0  2  0  0  0  0  0  0  0  0  0
    4.0399   -8.0105    3.9575 C   0  0  1  0  0  0  0  0  0  0  0  0
    4.2400   -8.6228    5.3834 C   0  0  0  0  0  0  0  0  0  0  0  0
    4.2386   -9.1024    2.8020 C   0  0  2  0  0  0  0  0  0  0  0  0
    5.6961   -9.6117    2.4915 C   0  0  1  0  0  0  0  0  0  0  0  0
    6.2059  -10.7384    3.4138 C   0  0  0  0  0  0  0  0  0  0  0  0
    5.7903  -10.2050    1.2093 O   0  0  0  0  0  0  0  0  0  0  0  0
    6.6935   -8.4576    2.4768 C   0  0  0  0  0  0  0  0  0  0  0  0
    6.5602   -7.6048    3.7539 C   0  0  0  0  0  0  0  0  0  0  0  0
    5.2077   -6.7929    3.8403 C   0  0  1  0  0  0  0  0  0  0  0  0
    5.3300   -5.3629    2.9148 C   0  0  0  0  0  0  0  0  0  0  0  0
    6.8050   -5.1812    2.4188 C   0  0  0  0  0  0  0  0  0  0  0  0
    5.2903   -4.1701    3.9292 C   0  0  0  0  0  0  0  0  0  0  0  0
    1.9699    0.3502    2.5838 H   0  0  0  0  0  0  0  0  0  0  0  0
    1.8093    0.5493    0.8404 H   0  0  0  0  0  0  0  0  0  0  0  0
    3.2309    1.1756    1.6787 H   0  0  0  0  0  0  0  0  0  0  0  0
    2.4633   -1.8382    1.5514 H   0  0  0  0  0  0  0  0  0  0  0  0
    6.0775   -0.3822   -0.0880 H   0  0  0  0  0  0  0  0  0  0  0  0
    6.1546   -0.1673    1.6571 H   0  0  0  0  0  0  0  0  0  0  0  0
    5.0241    0.7726    0.6672 H   0  0  0  0  0  0  0  0  0  0  0  0
    5.2538   -5.1144    0.7549 H   0  0  0  0  0  0  0  0  0  0  0  0
    3.6954   -6.2323   -0.1909 H   0  0  0  0  0  0  0  0  0  0  0  0
    1.8616   -4.3852    1.0718 H   0  0  0  0  0  0  0  0  0  0  0  0
    1.9293   -5.7825   -1.0103 H   0  0  0  0  0  0  0  0  0  0  0  0
    2.9472   -5.4032    4.6548 H   0  0  0  0  0  0  0  0  0  0  0  0
    1.3315   -5.1442    4.1185 H   0  0  0  0  0  0  0  0  0  0  0  0
    2.5853   -4.3422    3.2388 H   0  0  0  0  0  0  0  0  0  0  0  0
    4.3818   -7.1188    1.7310 H   0  0  0  0  0  0  0  0  0  0  0  0
    3.6708   -8.9636    0.6086 H   0  0  0  0  0  0  0  0  0  0  0  0
    0.4425   -8.1822    2.6971 H   0  0  0  0  0  0  0  0  0  0  0  0
   -0.2589   -8.8481    5.3637 H   0  0  0  0  0  0  0  0  0  0  0  0
    0.2604  -11.1542    5.1431 H   0  0  0  0  0  0  0  0  0  0  0  0
    0.7651  -11.0265    3.4243 H   0  0  0  0  0  0  0  0  0  0  0  0
    3.4864  -13.2995    3.7754 H   0  0  0  0  0  0  0  0  0  0  0  0
    3.6915  -11.7027    4.4106 H   0  0  0  0  0  0  0  0  0  0  0  0
    2.9293  -11.9606    2.7988 H   0  0  0  0  0  0  0  0  0  0  0  0
    5.1573   -8.3388    5.8915 H   0  0  0  0  0  0  0  0  0  0  0  0
    4.2410   -9.7142    5.3612 H   0  0  0  0  0  0  0  0  0  0  0  0
    3.4593   -8.3063    6.0780 H   0  0  0  0  0  0  0  0  0  0  0  0
    3.7548  -10.0080    3.1322 H   0  0  0  0  0  0  0  0  0  0  0  0
    6.1954  -10.4710    4.4710 H   0  0  0  0  0  0  0  0  0  0  0  0
    7.2359  -10.9949    3.1666 H   0  0  0  0  0  0  0  0  0  0  0  0
    5.6319  -11.6574    3.2878 H   0  0  0  0  0  0  0  0  0  0  0  0
    5.1128  -10.8781    1.1082 H   0  0  0  0  0  0  0  0  0  0  0  0
    7.7104   -8.8459    2.3898 H   0  0  0  0  0  0  0  0  0  0  0  0
    6.5210   -7.8806    1.5741 H   0  0  0  0  0  0  0  0  0  0  0  0
    6.6884   -8.2662    4.6029 H   0  0  0  0  0  0  0  0  0  0  0  0
    7.4599   -7.0164    3.8971 H   0  0  0  0  0  0  0  0  0  0  0  0
    5.1958   -6.3880    4.8578 H   0  0  0  0  0  0  0  0  0  0  0  0
    7.5242   -5.1843    3.2339 H   0  0  0  0  0  0  0  0  0  0  0  0
    6.9733   -4.2058    1.9734 H   0  0  0  0  0  0  0  0  0  0  0  0
    7.1084   -5.9078    1.6643 H   0  0  0  0  0  0  0  0  0  0  0  0
    5.9850   -4.3348    4.7568 H   0  0  0  0  0  0  0  0  0  0  0  0
    4.3395   -3.9360    4.3895 H   0  0  0  0  0  0  0  0  0  0  0  0
    5.6014   -3.2346    3.4651 H   0  0  0  0  0  0  0  0  0  0  0  0
  1  2  1  0
  1 38  1  0
  1 39  1  0
  1 40  1  0
  2  3  2  3
  2 41  1  0
  3  4  1  0
  3  5  1  0
  4 42  1  0
  4 43  1  0
  4 44  1  0
  5  6  2  0
  5  7  1  0
  7  8  1  0
  8 35  1  0
  8  9  1  0
  8 45  1  6
  9 15  1  0
  9 10  1  0
  9 46  1  6
 10 11  1  0
 10 12  1  0
 10 47  1  1
 11 48  1  0
 12 13  1  0
 13 25  1  0
 13 14  1  1
 13 15  1  0
 14 49  1  0
 14 50  1  0
 14 51  1  0
 15 16  1  0
 15 52  1  1
 16 28  1  0
 16 17  1  0
 16 53  1  6
 17 18  1  0
 18 25  1  0
 18 19  1  0
 18 54  1  6
 19 20  1  1
 19 21  1  0
 25 19  1  1
 20 55  1  0
 21 22  1  0
 22 23  1  0
 22 56  1  0
 22 57  1  0
 23 24  1  0
 24 58  1  0
 24 59  1  0
 24 60  1  0
 25 26  1  0
 26 34  1  0
 26 27  1  1
 26 28  1  0
 27 61  1  0
 27 62  1  0
 27 63  1  0
 28 29  1  0
 28 64  1  1
 29 30  1  0
 29 31  1  6
 29 32  1  0
 30 65  1  0
 30 66  1  0
 30 67  1  0
 31 68  1  0
 32 33  1  0
 32 69  1  0
 32 70  1  0
 33 34  1  0
 33 71  1  0
 33 72  1  0
 34 35  1  0
 34 73  1  1
 35 36  1  0
 35 37  1  0
 36 74  1  0
 36 75  1  0
 36 76  1  0
 37 77  1  0
 37 78  1  0
 37 79  1  0
M  END
>  <i_m_ct_stereo_status>  (107) 
1

>  <s_m_source_file>  (107) 
/var/tmp/pbs.5076255.sched01/tmp8yzwbncg/40d_vk9m1l.sdf

>  <i_m_source_file_index>  (107) 
1

>  <i_lp_mmshare_version>  (107) 
48012

>  <i_f3d_flags>  (107) 
0

>  <s_epik_input>  (107) 
W0NIM10vW0NIXT1DKC9bQ0gzXSlDKD1PKU9bQ0BIXShbQ0BIXShbQ0BIXShPMSlbT0hdKVtDQEhdMltDQEBdMShbQ0BdMzQ1KVtDSDNdKUMoW0NIM10pKFtDSDNdKVtDQEhdNltDQF01KFtDSDNdKVtDQEhdKFtDQEBdKFtDSDNdKShbT0hdKVtDSDJdW0NIMl02KVtDQEhdMk9bQ0BASF0zW0NAQF00KFtPSF0pT1tDSDJdT1tDSDNd

>  <s_epik_cmdline>  (107) 
J2VwaWtfcHl0aG9uJywgJy1waHQnLCAnMi4wJywgJy1waCcsICc3LjAnLCAnLXRuJywgJzgnLCAnLW1hJywgJzIwMCcsICctaW1hZScsICc8aW5maWxlLm1hZT4nLCAnLW9tYWUnLCAnPG91dGZpbGUubWFlPic=

>  <r_lp_tautomer_probability>  (107) 
1

>  <r_epik_Ionization_Penalty>  (107) 
5.84453e-06

>  <r_epik_Ionization_Penalty_Charging>  (107) 
0

>  <r_epik_Ionization_Penalty_Neutral>  (107) 
5.84453e-06

>  <r_epik_State_Penalty>  (107) 
-0

>  <r_epik_Charging_Adjusted_Penalty>  (107) 
0

>  <i_epik_Tot_Q>  (107) 
0

>  <i_epik_Tot_abs_Q>  (107) 
0

>  <s_epik_Chemistry_Notes>  (107) 
This compound has an ester and may undergo hydrolysis at high or low pH. This compound contains an acetal/aminal-like group ( X-CH(R)-Y where X, Y are N, S, or O) that may be acid/base labile, releasing an aldehyde.

>  <s_lp_Force_Field>  (107) 
OPLS3e

>  <r_lp_Energy>  (107) 
251.189

>  <b_lp_Chiralities_Consistent>  (107) 
1

>  <s_lp_Variant>  (107) 
28:0-2

>  <s_i_glide_gridfile>  (107) 
pfpi4k_grid

>  <i_i_glide_lignum>  (107) 
1

>  <i_i_glide_rotatable_bonds>  (107) 
9

>  <r_i_docking_score>  (107) 
-3.09509

>  <r_i_glide_ligand_efficiency>  (107) 
-0.0836512

>  <r_i_glide_ligand_efficiency_sa>  (107) 
-0.278744

>  <r_i_glide_ligand_efficiency_ln>  (107) 
-0.671254

>  <r_i_glide_gscore>  (107) 
-3.09509

>  <r_i_glide_lipo>  (107) 
-0.304305

>  <r_i_glide_hbond>  (107) 
-0.144958

>  <r_i_glide_metal>  (107) 
-0

>  <r_i_glide_rewards>  (107) 
-0.0967979

>  <r_i_glide_evdw>  (107) 
-21.8287

>  <r_i_glide_ecoul>  (107) 
-11.6507

>  <r_i_glide_erotb>  (107) 
0.376457

>  <r_i_glide_esite>  (107) 
-0.086454

>  <r_i_glide_emodel>  (107) 
-35.4262

>  <r_i_glide_energy>  (107) 
-33.4794

>  <r_i_glide_einternal>  (107) 
6.99772

>  <r_i_glide_intrahb_reward>  (107) 
-0

>  <i_i_glide_confnum>  (107) 
3

>  <i_i_glide_posenum>  (107) 
26

>  <r_i_glide_eff_state_penalty>  (107) 
0

>  <ligand_id>  (107) 
28

>  <original_smiles>  (107) 
CC=C(C)C(=O)OC1C2C(O)OC3(C)C2C2OC4C(O)(OCOC)C43C3(C)C2C(C)(O)CCC3C1(C)C

>  <smiles>  (107) 
[H]OC1([H])OC2(C([H])([H])[H])C3([H])C4([H])OC5([H])C(O[H])(OC([H])([H])OC([H])([H])[H])C52C2(C([H])([H])[H])C4([H])C(O[H])(C([H])([H])[H])C([H])([H])C([H])([H])C2([H])C(C([H])([H])[H])(C([H])([H])[H])C([H])(OC(=O)C(=C([H])C([H])([H])[H])C([H])([H])[H])C13[H]

$$$$
28:1:2
     RDKit          3D

 79 84  0  0  1  0  0  0  0  0999 V2000
    2.7139    0.8177    2.0237 C   0  0  0  0  0  0  0  0  0  0  0  0
    3.4396   -0.4868    2.3093 C   0  0  0  0  0  0  0  0  0  0  0  0
    4.5192   -0.9855    1.6570 C   0  0  0  0  0  0  0  0  0  0  0  0
    5.1983   -0.3011    0.4828 C   0  0  0  0  0  0  0  0  0  0  0  0
    5.1160   -2.2870    2.0485 C   0  0  0  0  0  0  0  0  0  0  0  0
    6.1965   -2.6959    1.6164 O   0  0  0  0  0  0  0  0  0  0  0  0
    4.3222   -2.9994    2.8933 O   0  0  0  0  0  0  0  0  0  0  0  0
    4.6332   -4.3398    3.2899 C   0  0  2  0  0  0  0  0  0  0  0  0
    4.6157   -5.3543    2.0555 C   0  0  2  0  0  0  0  0  0  0  0  0
    3.5974   -5.0417    0.9229 C   0  0  1  0  0  0  0  0  0  0  0  0
    4.2131   -5.3245   -0.3099 O   0  0  0  0  0  0  0  0  0  0  0  0
    2.4828   -5.8764    1.1574 O   0  0  0  0  0  0  0  0  0  0  0  0
    2.4552   -6.1575    2.5621 C   0  0  2  0  0  0  0  0  0  0  0  0
    1.6260   -4.9533    3.0322 C   0  0  0  0  0  0  0  0  0  0  0  0
    3.9778   -6.5240    2.6054 C   0  0  1  0  0  0  0  0  0  0  0  0
    4.2479   -8.0658    2.6212 C   0  0  2  0  0  0  0  0  0  0  0  0
    3.2701   -8.8094    1.8789 O   0  0  0  0  0  0  0  0  0  0  0  0
    1.9577   -8.2559    1.9562 C   0  0  1  0  0  0  0  0  0  0  0  0
    0.8700   -8.4845    2.8850 C   0  0  1  0  0  0  0  0  0  0  0  0
   -0.3963   -8.0421    2.4309 O   0  0  0  0  0  0  0  0  0  0  0  0
    0.9124   -9.7273    3.5653 O   0  0  0  0  0  0  0  0  0  0  0  0
    1.0217  -10.8430    2.7583 C   0  0  0  0  0  0  0  0  0  0  0  0
    0.6121  -11.9778    3.4067 O   0  0  0  0  0  0  0  0  0  0  0  0
    1.2040  -12.1667    4.6714 C   0  0  0  0  0  0  0  0  0  0  0  0
    1.8728   -7.3486    3.2394 C   0  0  2  0  0  0  0  0  0  0  0  0
    2.7459   -7.5207    4.5899 C   0  0  1  0  0  0  0  0  0  0  0  0
    1.8094   -8.1913    5.6527 C   0  0  0  0  0  0  0  0  0  0  0  0
    3.8694   -8.5384    4.0843 C   0  0  2  0  0  0  0  0  0  0  0  0
    5.0518   -8.8588    5.0547 C   0  0  1  0  0  0  0  0  0  0  0  0
    4.7198   -9.9977    6.0459 C   0  0  0  0  0  0  0  0  0  0  0  0
    6.1481   -9.3642    4.3220 O   0  0  0  0  0  0  0  0  0  0  0  0
    5.5634   -7.6194    5.7861 C   0  0  0  0  0  0  0  0  0  0  0  0
    4.4101   -6.8350    6.4299 C   0  0  0  0  0  0  0  0  0  0  0  0
    3.4397   -6.1887    5.3752 C   0  0  1  0  0  0  0  0  0  0  0  0
    4.0858   -4.7001    4.8242 C   0  0  0  0  0  0  0  0  0  0  0  0
    5.3515   -4.2856    5.6557 C   0  0  0  0  0  0  0  0  0  0  0  0
    3.1524   -3.5587    5.3629 C   0  0  0  0  0  0  0  0  0  0  0  0
    2.5903    1.3933    2.9412 H   0  0  0  0  0  0  0  0  0  0  0  0
    1.7272    0.6336    1.5958 H   0  0  0  0  0  0  0  0  0  0  0  0
    3.2546    1.4483    1.3335 H   0  0  0  0  0  0  0  0  0  0  0  0
    3.0012   -1.0365    3.1281 H   0  0  0  0  0  0  0  0  0  0  0  0
    5.3901   -1.0039   -0.3299 H   0  0  0  0  0  0  0  0  0  0  0  0
    6.1472    0.1454    0.7749 H   0  0  0  0  0  0  0  0  0  0  0  0
    4.5585    0.4722    0.0802 H   0  0  0  0  0  0  0  0  0  0  0  0
    5.7124   -4.2920    3.4361 H   0  0  0  0  0  0  0  0  0  0  0  0
    5.6168   -5.5597    1.6658 H   0  0  0  0  0  0  0  0  0  0  0  0
    3.2733   -4.0008    0.8883 H   0  0  0  0  0  0  0  0  0  0  0  0
    3.5584   -5.3055   -1.0018 H   0  0  0  0  0  0  0  0  0  0  0  0
    1.3013   -5.0649    4.0639 H   0  0  0  0  0  0  0  0  0  0  0  0
    0.6892   -4.9596    2.4861 H   0  0  0  0  0  0  0  0  0  0  0  0
    2.0614   -3.9770    2.8346 H   0  0  0  0  0  0  0  0  0  0  0  0
    4.6245   -6.5054    3.4603 H   0  0  0  0  0  0  0  0  0  0  0  0
    5.2534   -8.3359    2.2862 H   0  0  0  0  0  0  0  0  0  0  0  0
    1.5883   -7.9773    0.9744 H   0  0  0  0  0  0  0  0  0  0  0  0
   -0.7474   -8.7059    1.8533 H   0  0  0  0  0  0  0  0  0  0  0  0
    0.3555  -10.7360    1.9030 H   0  0  0  0  0  0  0  0  0  0  0  0
    2.0526  -10.9987    2.4393 H   0  0  0  0  0  0  0  0  0  0  0  0
    0.8234  -13.1142    5.0328 H   0  0  0  0  0  0  0  0  0  0  0  0
    0.8880  -11.4011    5.3796 H   0  0  0  0  0  0  0  0  0  0  0  0
    2.2949  -12.2011    4.6330 H   0  0  0  0  0  0  0  0  0  0  0  0
    1.9441   -7.8404    6.6698 H   0  0  0  0  0  0  0  0  0  0  0  0
    1.9424   -9.2713    5.6916 H   0  0  0  0  0  0  0  0  0  0  0  0
    0.7582   -7.9895    5.4451 H   0  0  0  0  0  0  0  0  0  0  0  0
    3.4218   -9.5262    3.9534 H   0  0  0  0  0  0  0  0  0  0  0  0
    3.9023   -9.7472    6.7181 H   0  0  0  0  0  0  0  0  0  0  0  0
    5.5824  -10.2339    6.6707 H   0  0  0  0  0  0  0  0  0  0  0  0
    4.4356  -10.9153    5.5266 H   0  0  0  0  0  0  0  0  0  0  0  0
    5.8803  -10.1779    3.9198 H   0  0  0  0  0  0  0  0  0  0  0  0
    6.2904   -7.9084    6.5457 H   0  0  0  0  0  0  0  0  0  0  0  0
    6.1150   -7.0041    5.0807 H   0  0  0  0  0  0  0  0  0  0  0  0
    3.8863   -7.5238    7.0834 H   0  0  0  0  0  0  0  0  0  0  0  0
    4.7864   -6.1350    7.1671 H   0  0  0  0  0  0  0  0  0  0  0  0
    2.5946   -5.8367    5.9688 H   0  0  0  0  0  0  0  0  0  0  0  0
    5.1536   -4.1734    6.7237 H   0  0  0  0  0  0  0  0  0  0  0  0
    5.7152   -3.3011    5.3553 H   0  0  0  0  0  0  0  0  0  0  0  0
    6.2056   -4.9486    5.5292 H   0  0  0  0  0  0  0  0  0  0  0  0
    2.9484   -3.6896    6.4282 H   0  0  0  0  0  0  0  0  0  0  0  0
    2.1831   -3.4438    4.9011 H   0  0  0  0  0  0  0  0  0  0  0  0
    3.6107   -2.5739    5.2657 H   0  0  0  0  0  0  0  0  0  0  0  0
  1  2  1  0
  1 38  1  0
  1 39  1  0
  1 40  1  0
  2  3  2  3
  2 41  1  0
  3  4  1  0
  3  5  1  0
  4 42  1  0
  4 43  1  0
  4 44  1  0
  5  6  2  0
  5  7  1  0
  7  8  1  0
  8 35  1  0
  8  9  1  0
  8 45  1  1
  9 15  1  0
  9 10  1  0
  9 46  1  6
 10 11  1  0
 10 12  1  0
 10 47  1  6
 11 48  1  0
 12 13  1  0
 13 25  1  0
 13 14  1  1
 13 15  1  0
 14 49  1  0
 14 50  1  0
 14 51  1  0
 15 16  1  0
 15 52  1  1
 16 28  1  0
 16 17  1  0
 16 53  1  6
 17 18  1  0
 18 25  1  0
 18 19  1  0
 18 54  1  6
 19 20  1  6
 19 21  1  0
 25 19  1  1
 20 55  1  0
 21 22  1  0
 22 23  1  0
 22 56  1  0
 22 57  1  0
 23 24  1  0
 24 58  1  0
 24 59  1  0
 24 60  1  0
 25 26  1  0
 26 34  1  0
 26 27  1  1
 26 28  1  0
 27 61  1  0
 27 62  1  0
 27 63  1  0
 28 29  1  0
 28 64  1  6
 29 30  1  0
 29 31  1  6
 29 32  1  0
 30 65  1  0
 30 66  1  0
 30 67  1  0
 31 68  1  0
 32 33  1  0
 32 69  1  0
 32 70  1  0
 33 34  1  0
 33 71  1  0
 33 72  1  0
 34 35  1  0
 34 73  1  1
 35 36  1  0
 35 37  1  0
 36 74  1  0
 36 75  1  0
 36 76  1  0
 37 77  1  0
 37 78  1  0
 37 79  1  0
M  END
>  <i_m_ct_stereo_status>  (108) 
1

>  <s_m_source_file>  (108) 
/var/tmp/pbs.5076255.sched01/tmp8yzwbncg/40d_vk9m1l.sdf

>  <i_m_source_file_index>  (108) 
1

>  <i_lp_mmshare_version>  (108) 
48012

>  <i_f3d_flags>  (108) 
0

>  <s_epik_input>  (108) 
W0NIM10vW0NIXT1DKC9bQ0gzXSlDKD1PKU9bQ0BIXShbQ0BIXShbQ0BIXShPMSlbT0hdKVtDQEhdMltDQEBdMShbQ0BdMzQ1KVtDSDNdKUMoW0NIM10pKFtDSDNdKVtDQEhdNltDQF01KFtDSDNdKVtDQEhdKFtDQEBdKFtDSDNdKShbT0hdKVtDSDJdW0NIMl02KVtDQEhdMk9bQ0BASF0zW0NAQF00KFtPSF0pT1tDSDJdT1tDSDNd

>  <s_epik_cmdline>  (108) 
J2VwaWtfcHl0aG9uJywgJy1waHQnLCAnMi4wJywgJy1waCcsICc3LjAnLCAnLXRuJywgJzgnLCAnLW1hJywgJzIwMCcsICctaW1hZScsICc8aW5maWxlLm1hZT4nLCAnLW9tYWUnLCAnPG91dGZpbGUubWFlPic=

>  <r_lp_tautomer_probability>  (108) 
1

>  <r_epik_Ionization_Penalty>  (108) 
5.84453e-06

>  <r_epik_Ionization_Penalty_Charging>  (108) 
0

>  <r_epik_Ionization_Penalty_Neutral>  (108) 
5.84453e-06

>  <r_epik_State_Penalty>  (108) 
-0

>  <r_epik_Charging_Adjusted_Penalty>  (108) 
0

>  <i_epik_Tot_Q>  (108) 
0

>  <i_epik_Tot_abs_Q>  (108) 
0

>  <s_epik_Chemistry_Notes>  (108) 
This compound has an ester and may undergo hydrolysis at high or low pH. This compound contains an acetal/aminal-like group ( X-CH(R)-Y where X, Y are N, S, or O) that may be acid/base labile, releasing an aldehyde.

>  <s_lp_Force_Field>  (108) 
OPLS3e

>  <r_lp_Energy>  (108) 
251.189

>  <b_lp_Chiralities_Consistent>  (108) 
1

>  <s_lp_Variant>  (108) 
28:0-2

>  <s_i_glide_gridfile>  (108) 
pfpi4k_grid

>  <i_i_glide_lignum>  (108) 
1

>  <i_i_glide_rotatable_bonds>  (108) 
9

>  <r_i_docking_score>  (108) 
-2.28971

>  <r_i_glide_ligand_efficiency>  (108) 
-0.0618841

>  <r_i_glide_ligand_efficiency_sa>  (108) 
-0.206212

>  <r_i_glide_ligand_efficiency_ln>  (108) 
-0.496585

>  <r_i_glide_gscore>  (108) 
-2.28971

>  <r_i_glide_lipo>  (108) 
-0.288915

>  <r_i_glide_hbond>  (108) 
0

>  <r_i_glide_metal>  (108) 
-0

>  <r_i_glide_rewards>  (108) 
-0.267486

>  <r_i_glide_evdw>  (108) 
-22.0239

>  <r_i_glide_ecoul>  (108) 
-6.57268

>  <r_i_glide_erotb>  (108) 
0.376457

>  <r_i_glide_esite>  (108) 
-0.0226702

>  <r_i_glide_emodel>  (108) 
-30.5198

>  <r_i_glide_energy>  (108) 
-28.5966

>  <r_i_glide_einternal>  (108) 
5.78193

>  <r_i_glide_intrahb_reward>  (108) 
-0

>  <i_i_glide_confnum>  (108) 
3

>  <i_i_glide_posenum>  (108) 
5

>  <r_i_glide_eff_state_penalty>  (108) 
0

>  <ligand_id>  (108) 
28

>  <original_smiles>  (108) 
CC=C(C)C(=O)OC1C2C(O)OC3(C)C2C2OC4C(O)(OCOC)C43C3(C)C2C(C)(O)CCC3C1(C)C

>  <smiles>  (108) 
[H]OC1([H])OC2(C([H])([H])[H])C3([H])C4([H])OC5([H])C(O[H])(OC([H])([H])OC([H])([H])[H])C52C2(C([H])([H])[H])C4([H])C(O[H])(C([H])([H])[H])C([H])([H])C([H])([H])C2([H])C(C([H])([H])[H])(C([H])([H])[H])C([H])(OC(=O)C(=C([H])C([H])([H])[H])C([H])([H])[H])C13[H]

$$$$
28:2:0
     RDKit          3D

 79 84  0  0  1  0  0  0  0  0999 V2000
   -2.8291    3.1665    7.6528 C   0  0  0  0  0  0  0  0  0  0  0  0
   -2.7725    3.1126    6.1311 C   0  0  0  0  0  0  0  0  0  0  0  0
   -1.9431    2.4111    5.3089 C   0  0  0  0  0  0  0  0  0  0  0  0
   -2.0786    2.5193    3.7887 C   0  0  0  0  0  0  0  0  0  0  0  0
   -0.8785    1.4923    5.8184 C   0  0  0  0  0  0  0  0  0  0  0  0
   -0.7764    1.1432    6.9962 O   0  0  0  0  0  0  0  0  0  0  0  0
   -0.0520    1.0445    4.8436 O   0  0  0  0  0  0  0  0  0  0  0  0
    1.1480    0.2931    5.1192 C   0  0  2  0  0  0  0  0  0  0  0  0
    2.4200    1.1231    4.5588 C   0  0  2  0  0  0  0  0  0  0  0  0
    2.3092    1.8369    3.1889 C   0  0  1  0  0  0  0  0  0  0  0  0
    2.9805    3.0770    3.2145 O   0  0  0  0  0  0  0  0  0  0  0  0
    2.9262    0.9486    2.2694 O   0  0  0  0  0  0  0  0  0  0  0  0
    2.6817   -0.3754    2.7613 C   0  0  2  0  0  0  0  0  0  0  0  0
    1.2576   -0.4801    2.1352 C   0  0  0  0  0  0  0  0  0  0  0  0
    3.2669    0.0472    4.1295 C   0  0  1  0  0  0  0  0  0  0  0  0
    4.7877   -0.2639    4.1315 C   0  0  2  0  0  0  0  0  0  0  0  0
    5.2358   -0.2519    2.7434 O   0  0  0  0  0  0  0  0  0  0  0  0
    4.9403   -1.4374    1.9519 C   0  0  1  0  0  0  0  0  0  0  0  0
    3.8236   -1.8379    1.0191 C   0  0  1  0  0  0  0  0  0  0  0  0
    3.6731   -0.8089    0.0695 O   0  0  0  0  0  0  0  0  0  0  0  0
    3.9810   -3.1451    0.4995 O   0  0  0  0  0  0  0  0  0  0  0  0
    2.8311   -3.6694   -0.0955 C   0  0  0  0  0  0  0  0  0  0  0  0
    2.2187   -4.6280    0.7024 O   0  0  0  0  0  0  0  0  0  0  0  0
    3.0207   -5.7900    0.8051 C   0  0  0  0  0  0  0  0  0  0  0  0
    3.4584   -1.6399    2.4737 C   0  0  2  0  0  0  0  0  0  0  0  0
    3.5747   -2.4767    3.8419 C   0  0  1  0  0  0  0  0  0  0  0  0
    3.9705   -3.9411    3.5137 C   0  0  0  0  0  0  0  0  0  0  0  0
    4.8323   -1.7786    4.5924 C   0  0  2  0  0  0  0  0  0  0  0  0
    5.0290   -2.0440    6.1386 C   0  0  1  0  0  0  0  0  0  0  0  0
    5.9978   -3.2068    6.4348 C   0  0  0  0  0  0  0  0  0  0  0  0
    5.6824   -0.9383    6.7240 O   0  0  0  0  0  0  0  0  0  0  0  0
    3.7246   -2.2224    6.9192 C   0  0  0  0  0  0  0  0  0  0  0  0
    2.7585   -3.1499    6.1829 C   0  0  0  0  0  0  0  0  0  0  0  0
    2.2352   -2.5334    4.8461 C   0  0  1  0  0  0  0  0  0  0  0  0
    1.0000   -1.3929    5.1278 C   0  0  0  0  0  0  0  0  0  0  0  0
    0.4041   -1.6470    6.5610 C   0  0  0  0  0  0  0  0  0  0  0  0
   -0.2258   -1.8799    4.2945 C   0  0  0  0  0  0  0  0  0  0  0  0
   -2.9917    4.1969    7.9754 H   0  0  0  0  0  0  0  0  0  0  0  0
   -1.9227    2.8659    8.1770 H   0  0  0  0  0  0  0  0  0  0  0  0
   -3.6529    2.5572    8.0231 H   0  0  0  0  0  0  0  0  0  0  0  0
   -3.5223    3.7278    5.6683 H   0  0  0  0  0  0  0  0  0  0  0  0
   -1.1885    2.9929    3.3757 H   0  0  0  0  0  0  0  0  0  0  0  0
   -2.9475    3.1092    3.4926 H   0  0  0  0  0  0  0  0  0  0  0  0
   -2.1816    1.5325    3.3252 H   0  0  0  0  0  0  0  0  0  0  0  0
    1.3358    0.4878    6.1779 H   0  0  0  0  0  0  0  0  0  0  0  0
    2.8860    1.7492    5.3204 H   0  0  0  0  0  0  0  0  0  0  0  0
    1.2796    2.0577    2.9112 H   0  0  0  0  0  0  0  0  0  0  0  0
    3.8775    2.9317    2.8917 H   0  0  0  0  0  0  0  0  0  0  0  0
    1.0118   -1.4921    1.8289 H   0  0  0  0  0  0  0  0  0  0  0  0
    1.2518    0.0670    1.1942 H   0  0  0  0  0  0  0  0  0  0  0  0
    0.4457   -0.0132    2.6705 H   0  0  0  0  0  0  0  0  0  0  0  0
    3.1596   -0.4519    5.0689 H   0  0  0  0  0  0  0  0  0  0  0  0
    5.3788    0.4398    4.7232 H   0  0  0  0  0  0  0  0  0  0  0  0
    5.7064   -2.1968    2.0751 H   0  0  0  0  0  0  0  0  0  0  0  0
    2.7730   -0.7639   -0.2374 H   0  0  0  0  0  0  0  0  0  0  0  0
    2.1031   -2.8747   -0.2513 H   0  0  0  0  0  0  0  0  0  0  0  0
    3.0495   -4.0778   -1.0892 H   0  0  0  0  0  0  0  0  0  0  0  0
    2.5014   -6.5410    1.3989 H   0  0  0  0  0  0  0  0  0  0  0  0
    3.9793   -5.5923    1.2845 H   0  0  0  0  0  0  0  0  0  0  0  0
    3.2428   -6.2030   -0.1794 H   0  0  0  0  0  0  0  0  0  0  0  0
    4.4416   -4.4585    4.3396 H   0  0  0  0  0  0  0  0  0  0  0  0
    4.6987   -4.0014    2.7187 H   0  0  0  0  0  0  0  0  0  0  0  0
    3.0936   -4.5160    3.2407 H   0  0  0  0  0  0  0  0  0  0  0  0
    5.7677   -2.1757    4.1934 H   0  0  0  0  0  0  0  0  0  0  0  0
    5.6054   -4.1719    6.1168 H   0  0  0  0  0  0  0  0  0  0  0  0
    6.2111   -3.2875    7.5037 H   0  0  0  0  0  0  0  0  0  0  0  0
    6.9604   -3.0653    5.9420 H   0  0  0  0  0  0  0  0  0  0  0  0
    5.8167   -1.1234    7.6370 H   0  0  0  0  0  0  0  0  0  0  0  0
    3.9328   -2.6225    7.9150 H   0  0  0  0  0  0  0  0  0  0  0  0
    3.2617   -1.2538    7.1089 H   0  0  0  0  0  0  0  0  0  0  0  0
    3.2537   -4.0971    5.9993 H   0  0  0  0  0  0  0  0  0  0  0  0
    1.9882   -3.4886    6.8628 H   0  0  0  0  0  0  0  0  0  0  0  0
    1.6681   -3.3605    4.4232 H   0  0  0  0  0  0  0  0  0  0  0  0
    0.1690   -2.7079    6.7516 H   0  0  0  0  0  0  0  0  0  0  0  0
   -0.5425   -1.1852    6.6794 H   0  0  0  0  0  0  0  0  0  0  0  0
    1.0777   -1.3001    7.3556 H   0  0  0  0  0  0  0  0  0  0  0  0
   -0.8024   -2.6516    4.8054 H   0  0  0  0  0  0  0  0  0  0  0  0
    0.0487   -2.3751    3.3720 H   0  0  0  0  0  0  0  0  0  0  0  0
   -0.9398   -1.0906    4.0704 H   0  0  0  0  0  0  0  0  0  0  0  0
  1  2  1  0
  1 38  1  0
  1 39  1  0
  1 40  1  0
  2  3  2  3
  2 41  1  0
  3  4  1  0
  3  5  1  0
  4 42  1  0
  4 43  1  0
  4 44  1  0
  5  6  2  0
  5  7  1  0
  7  8  1  0
  8 35  1  0
  8  9  1  0
  8 45  1  1
  9 15  1  0
  9 10  1  0
  9 46  1  1
 10 11  1  0
 10 12  1  0
 10 47  1  6
 11 48  1  0
 12 13  1  0
 13 25  1  0
 13 14  1  1
 13 15  1  0
 14 49  1  0
 14 50  1  0
 14 51  1  0
 15 16  1  0
 15 52  1  1
 16 28  1  0
 16 17  1  0
 16 53  1  1
 17 18  1  0
 18 25  1  0
 18 19  1  0
 18 54  1  1
 19 20  1  6
 19 21  1  0
 25 19  1  6
 20 55  1  0
 21 22  1  0
 22 23  1  0
 22 56  1  0
 22 57  1  0
 23 24  1  0
 24 58  1  0
 24 59  1  0
 24 60  1  0
 25 26  1  0
 26 34  1  0
 26 27  1  6
 26 28  1  0
 27 61  1  0
 27 62  1  0
 27 63  1  0
 28 29  1  0
 28 64  1  6
 29 30  1  0
 29 31  1  1
 29 32  1  0
 30 65  1  0
 30 66  1  0
 30 67  1  0
 31 68  1  0
 32 33  1  0
 32 69  1  0
 32 70  1  0
 33 34  1  0
 33 71  1  0
 33 72  1  0
 34 35  1  0
 34 73  1  6
 35 36  1  0
 35 37  1  0
 36 74  1  0
 36 75  1  0
 36 76  1  0
 37 77  1  0
 37 78  1  0
 37 79  1  0
M  END
>  <i_m_ct_stereo_status>  (109) 
1

>  <s_m_source_file>  (109) 
/var/tmp/pbs.5076255.sched01/tmp8yzwbncg/40d_vk9m1l.sdf

>  <i_m_source_file_index>  (109) 
2

>  <i_lp_mmshare_version>  (109) 
48012

>  <i_f3d_flags>  (109) 
0

>  <s_epik_input>  (109) 
W0NIM10vW0NIXT1DKC9bQ0gzXSlDKD1PKU9bQ0BIXShbQ0BIXShbQ0BIXShPMSlbT0hdKVtDQEhdMltDQEBdMShbQ0BdMzQ1KVtDSDNdKUMoW0NIM10pKFtDSDNdKVtDQEhdNltDQF01KFtDSDNdKVtDQEhdKFtDQEBdKFtDSDNdKShbT0hdKVtDSDJdW0NIMl02KVtDQEhdMk9bQ0BASF0zW0NAQF00KFtPSF0pT1tDSDJdT1tDSDNd

>  <s_epik_cmdline>  (109) 
J2VwaWtfcHl0aG9uJywgJy1waHQnLCAnMi4wJywgJy1waCcsICc3LjAnLCAnLXRuJywgJzgnLCAnLW1hJywgJzIwMCcsICctaW1hZScsICc8aW5maWxlLm1hZT4nLCAnLW9tYWUnLCAnPG91dGZpbGUubWFlPic=

>  <r_lp_tautomer_probability>  (109) 
1

>  <r_epik_Ionization_Penalty>  (109) 
5.84453e-06

>  <r_epik_Ionization_Penalty_Charging>  (109) 
0

>  <r_epik_Ionization_Penalty_Neutral>  (109) 
5.84453e-06

>  <r_epik_State_Penalty>  (109) 
-0

>  <r_epik_Charging_Adjusted_Penalty>  (109) 
0

>  <i_epik_Tot_Q>  (109) 
0

>  <i_epik_Tot_abs_Q>  (109) 
0

>  <s_epik_Chemistry_Notes>  (109) 
This compound has an ester and may undergo hydrolysis at high or low pH. This compound contains an acetal/aminal-like group ( X-CH(R)-Y where X, Y are N, S, or O) that may be acid/base labile, releasing an aldehyde.

>  <s_lp_Force_Field>  (109) 
OPLS3e

>  <r_lp_Energy>  (109) 
245.264

>  <b_lp_Chiralities_Consistent>  (109) 
1

>  <s_lp_Variant>  (109) 
28:0-3

>  <s_i_glide_gridfile>  (109) 
pfpi4k_grid

>  <i_i_glide_lignum>  (109) 
2

>  <i_i_glide_rotatable_bonds>  (109) 
9

>  <r_i_docking_score>  (109) 
-2.80369

>  <r_i_glide_ligand_efficiency>  (109) 
-0.0757755

>  <r_i_glide_ligand_efficiency_sa>  (109) 
-0.252501

>  <r_i_glide_ligand_efficiency_ln>  (109) 
-0.608055

>  <r_i_glide_gscore>  (109) 
-2.80369

>  <r_i_glide_lipo>  (109) 
-0.490216

>  <r_i_glide_hbond>  (109) 
-0.0717056

>  <r_i_glide_metal>  (109) 
-0

>  <r_i_glide_rewards>  (109) 
0

>  <r_i_glide_evdw>  (109) 
-24.6477

>  <r_i_glide_ecoul>  (109) 
-8.80107

>  <r_i_glide_erotb>  (109) 
0.376457

>  <r_i_glide_esite>  (109) 
-0.065683

>  <r_i_glide_emodel>  (109) 
-34.347

>  <r_i_glide_energy>  (109) 
-33.4488

>  <r_i_glide_einternal>  (109) 
8.03967

>  <r_i_glide_intrahb_reward>  (109) 
-0

>  <i_i_glide_confnum>  (109) 
3

>  <i_i_glide_posenum>  (109) 
36

>  <r_i_glide_eff_state_penalty>  (109) 
0

>  <ligand_id>  (109) 
28

>  <original_smiles>  (109) 
CC=C(C)C(=O)OC1C2C(O)OC3(C)C2C2OC4C(O)(OCOC)C43C3(C)C2C(C)(O)CCC3C1(C)C

>  <smiles>  (109) 
[H]OC1([H])OC2(C([H])([H])[H])C3([H])C4([H])OC5([H])C(O[H])(OC([H])([H])OC([H])([H])[H])C52C2(C([H])([H])[H])C4([H])C(O[H])(C([H])([H])[H])C([H])([H])C([H])([H])C2([H])C(C([H])([H])[H])(C([H])([H])[H])C([H])(OC(=O)C(=C([H])C([H])([H])[H])C([H])([H])[H])C13[H]

$$$$
28:2:1
     RDKit          3D

 79 84  0  0  1  0  0  0  0  0999 V2000
   -2.9909    3.1354    7.7935 C   0  0  0  0  0  0  0  0  0  0  0  0
   -2.9376    3.0910    6.2711 C   0  0  0  0  0  0  0  0  0  0  0  0
   -2.1358    2.3512    5.4524 C   0  0  0  0  0  0  0  0  0  0  0  0
   -2.2521    2.4850    3.9364 C   0  0  0  0  0  0  0  0  0  0  0  0
   -1.1284    1.3785    5.9509 C   0  0  0  0  0  0  0  0  0  0  0  0
   -1.0559    0.9991    7.1273 O   0  0  0  0  0  0  0  0  0  0  0  0
   -0.3011    0.9244    4.9766 O   0  0  0  0  0  0  0  0  0  0  0  0
    0.9379    0.2553    5.2565 C   0  0  2  0  0  0  0  0  0  0  0  0
    2.1497    1.1287    4.6355 C   0  0  2  0  0  0  0  0  0  0  0  0
    1.9833    1.7829    3.2395 C   0  0  1  0  0  0  0  0  0  0  0  0
    2.5976    3.0516    3.2341 O   0  0  0  0  0  0  0  0  0  0  0  0
    2.6347    0.8906    2.3393 O   0  0  0  0  0  0  0  0  0  0  0  0
    2.4602   -0.4251    2.8788 C   0  0  2  0  0  0  0  0  0  0  0  0
    1.0291   -0.6404    2.2919 C   0  0  0  0  0  0  0  0  0  0  0  0
    3.0483    0.0909    4.2138 C   0  0  1  0  0  0  0  0  0  0  0  0
    4.5884   -0.1270    4.1961 C   0  0  2  0  0  0  0  0  0  0  0  0
    5.0168   -0.1678    2.8028 O   0  0  0  0  0  0  0  0  0  0  0  0
    4.7575   -1.4048    2.0763 C   0  0  2  0  0  0  0  0  0  0  0  0
    3.6552   -1.8980    1.1805 C   0  0  1  0  0  0  0  0  0  0  0  0
    3.4254   -0.9339    0.1699 O   0  0  0  0  0  0  0  0  0  0  0  0
    3.8717   -3.2215    0.7204 O   0  0  0  0  0  0  0  0  0  0  0  0
    2.7161   -3.8620    0.2834 C   0  0  0  0  0  0  0  0  0  0  0  0
    2.2256   -4.7415    1.2420 O   0  0  0  0  0  0  0  0  0  0  0  0
    3.0809   -5.8605    1.4390 C   0  0  0  0  0  0  0  0  0  0  0  0
    3.3015   -1.6591    2.6345 C   0  0  2  0  0  0  0  0  0  0  0  0
    3.4976   -2.4181    4.0472 C   0  0  1  0  0  0  0  0  0  0  0  0
    3.9924   -3.8642    3.8035 C   0  0  0  0  0  0  0  0  0  0  0  0
    4.7294   -1.6131    4.7303 C   0  0  2  0  0  0  0  0  0  0  0  0
    4.9803   -1.7924    6.2797 C   0  0  1  0  0  0  0  0  0  0  0  0
    6.0165   -2.8939    6.6030 C   0  0  0  0  0  0  0  0  0  0  0  0
    5.6030   -0.6391    6.8127 O   0  0  0  0  0  0  0  0  0  0  0  0
    3.6996   -2.0236    7.1017 C   0  0  0  0  0  0  0  0  0  0  0  0
    2.7725   -3.0405    6.4265 C   0  0  0  0  0  0  0  0  0  0  0  0
    2.1801   -2.5060    5.0819 C   0  0  1  0  0  0  0  0  0  0  0  0
    0.8870   -1.4309    5.3387 C   0  0  0  0  0  0  0  0  0  0  0  0
    0.3390   -1.6534    6.7904 C   0  0  0  0  0  0  0  0  0  0  0  0
   -0.3284   -2.0264    4.5513 C   0  0  0  0  0  0  0  0  0  0  0  0
   -3.1194    4.1684    8.1200 H   0  0  0  0  0  0  0  0  0  0  0  0
   -2.0934    2.7867    8.3040 H   0  0  0  0  0  0  0  0  0  0  0  0
   -3.8378    2.5557    8.1637 H   0  0  0  0  0  0  0  0  0  0  0  0
   -3.6547    3.7364    5.7910 H   0  0  0  0  0  0  0  0  0  0  0  0
   -1.3501    2.9372    3.5256 H   0  0  0  0  0  0  0  0  0  0  0  0
   -3.1059    3.0915    3.6312 H   0  0  0  0  0  0  0  0  0  0  0  0
   -2.3605    1.5045    3.4744 H   0  0  0  0  0  0  0  0  0  0  0  0
    1.1330    0.5039    6.3035 H   0  0  0  0  0  0  0  0  0  0  0  0
    2.5966    1.8121    5.3619 H   0  0  0  0  0  0  0  0  0  0  0  0
    0.9368    1.9399    2.9653 H   0  0  0  0  0  0  0  0  0  0  0  0
    2.3966    3.4644    2.4079 H   0  0  0  0  0  0  0  0  0  0  0  0
    0.8347   -1.6837    2.0632 H   0  0  0  0  0  0  0  0  0  0  0  0
    0.9684   -0.1743    1.3061 H   0  0  0  0  0  0  0  0  0  0  0  0
    0.2052   -0.1916    2.8309 H   0  0  0  0  0  0  0  0  0  0  0  0
    2.9911   -0.3650    5.1797 H   0  0  0  0  0  0  0  0  0  0  0  0
    5.1513    0.6317    4.7425 H   0  0  0  0  0  0  0  0  0  0  0  0
    5.5777   -2.1071    2.2006 H   0  0  0  0  0  0  0  0  0  0  0  0
    2.5096   -0.9621   -0.0956 H   0  0  0  0  0  0  0  0  0  0  0  0
    1.9399   -3.1356    0.0367 H   0  0  0  0  0  0  0  0  0  0  0  0
    2.9173   -4.4209   -0.6317 H   0  0  0  0  0  0  0  0  0  0  0  0
    2.6368   -6.5059    2.1979 H   0  0  0  0  0  0  0  0  0  0  0  0
    4.0695   -5.5604    1.7834 H   0  0  0  0  0  0  0  0  0  0  0  0
    3.1834   -6.4296    0.5159 H   0  0  0  0  0  0  0  0  0  0  0  0
    4.5219   -4.3053    4.6454 H   0  0  0  0  0  0  0  0  0  0  0  0
    4.6921   -3.9294    2.9744 H   0  0  0  0  0  0  0  0  0  0  0  0
    3.1408   -4.5059    3.5978 H   0  0  0  0  0  0  0  0  0  0  0  0
    5.6740   -1.9820    4.3240 H   0  0  0  0  0  0  0  0  0  0  0  0
    5.6784   -3.8925    6.3374 H   0  0  0  0  0  0  0  0  0  0  0  0
    6.2409   -2.9199    7.6708 H   0  0  0  0  0  0  0  0  0  0  0  0
    6.9605   -2.7157    6.0873 H   0  0  0  0  0  0  0  0  0  0  0  0
    5.0035    0.0874    6.7340 H   0  0  0  0  0  0  0  0  0  0  0  0
    3.9547   -2.3864    8.1010 H   0  0  0  0  0  0  0  0  0  0  0  0
    3.1726   -1.0815    7.2629 H   0  0  0  0  0  0  0  0  0  0  0  0
    3.3140   -3.9692    6.2779 H   0  0  0  0  0  0  0  0  0  0  0  0
    2.0347   -3.4001    7.1340 H   0  0  0  0  0  0  0  0  0  0  0  0
    1.6571   -3.3851    4.7071 H   0  0  0  0  0  0  0  0  0  0  0  0
    0.1613   -2.7061    7.0345 H   0  0  0  0  0  0  0  0  0  0  0  0
   -0.6259   -1.2037    6.9185 H   0  0  0  0  0  0  0  0  0  0  0  0
    1.0047   -1.2487    7.5542 H   0  0  0  0  0  0  0  0  0  0  0  0
   -0.8504   -2.8073    5.1066 H   0  0  0  0  0  0  0  0  0  0  0  0
   -0.0513   -2.5536    3.6474 H   0  0  0  0  0  0  0  0  0  0  0  0
   -1.0903   -1.2910    4.3006 H   0  0  0  0  0  0  0  0  0  0  0  0
  1  2  1  0
  1 38  1  0
  1 39  1  0
  1 40  1  0
  2  3  2  3
  2 41  1  0
  3  4  1  0
  3  5  1  0
  4 42  1  0
  4 43  1  0
  4 44  1  0
  5  6  2  0
  5  7  1  0
  7  8  1  0
  8 35  1  0
  8  9  1  0
  8 45  1  1
  9 15  1  0
  9 10  1  0
  9 46  1  1
 10 11  1  0
 10 12  1  0
 10 47  1  6
 11 48  1  0
 12 13  1  0
 13 25  1  0
 13 14  1  1
 13 15  1  0
 14 49  1  0
 14 50  1  0
 14 51  1  0
 15 16  1  0
 15 52  1  1
 16 28  1  0
 16 17  1  0
 16 53  1  1
 17 18  1  0
 18 25  1  0
 18 19  1  0
 18 54  1  1
 19 20  1  6
 19 21  1  0
 25 19  1  6
 20 55  1  0
 21 22  1  0
 22 23  1  0
 22 56  1  0
 22 57  1  0
 23 24  1  0
 24 58  1  0
 24 59  1  0
 24 60  1  0
 25 26  1  0
 26 34  1  0
 26 27  1  6
 26 28  1  0
 27 61  1  0
 27 62  1  0
 27 63  1  0
 28 29  1  0
 28 64  1  6
 29 30  1  0
 29 31  1  1
 29 32  1  0
 30 65  1  0
 30 66  1  0
 30 67  1  0
 31 68  1  0
 32 33  1  0
 32 69  1  0
 32 70  1  0
 33 34  1  0
 33 71  1  0
 33 72  1  0
 34 35  1  0
 34 73  1  6
 35 36  1  0
 35 37  1  0
 36 74  1  0
 36 75  1  0
 36 76  1  0
 37 77  1  0
 37 78  1  0
 37 79  1  0
M  END
>  <i_m_ct_stereo_status>  (110) 
1

>  <s_m_source_file>  (110) 
/var/tmp/pbs.5076255.sched01/tmp8yzwbncg/40d_vk9m1l.sdf

>  <i_m_source_file_index>  (110) 
2

>  <i_lp_mmshare_version>  (110) 
48012

>  <i_f3d_flags>  (110) 
0

>  <s_epik_input>  (110) 
W0NIM10vW0NIXT1DKC9bQ0gzXSlDKD1PKU9bQ0BIXShbQ0BIXShbQ0BIXShPMSlbT0hdKVtDQEhdMltDQEBdMShbQ0BdMzQ1KVtDSDNdKUMoW0NIM10pKFtDSDNdKVtDQEhdNltDQF01KFtDSDNdKVtDQEhdKFtDQEBdKFtDSDNdKShbT0hdKVtDSDJdW0NIMl02KVtDQEhdMk9bQ0BASF0zW0NAQF00KFtPSF0pT1tDSDJdT1tDSDNd

>  <s_epik_cmdline>  (110) 
J2VwaWtfcHl0aG9uJywgJy1waHQnLCAnMi4wJywgJy1waCcsICc3LjAnLCAnLXRuJywgJzgnLCAnLW1hJywgJzIwMCcsICctaW1hZScsICc8aW5maWxlLm1hZT4nLCAnLW9tYWUnLCAnPG91dGZpbGUubWFlPic=

>  <r_lp_tautomer_probability>  (110) 
1

>  <r_epik_Ionization_Penalty>  (110) 
5.84453e-06

>  <r_epik_Ionization_Penalty_Charging>  (110) 
0

>  <r_epik_Ionization_Penalty_Neutral>  (110) 
5.84453e-06

>  <r_epik_State_Penalty>  (110) 
-0

>  <r_epik_Charging_Adjusted_Penalty>  (110) 
0

>  <i_epik_Tot_Q>  (110) 
0

>  <i_epik_Tot_abs_Q>  (110) 
0

>  <s_epik_Chemistry_Notes>  (110) 
This compound has an ester and may undergo hydrolysis at high or low pH. This compound contains an acetal/aminal-like group ( X-CH(R)-Y where X, Y are N, S, or O) that may be acid/base labile, releasing an aldehyde.

>  <s_lp_Force_Field>  (110) 
OPLS3e

>  <r_lp_Energy>  (110) 
245.264

>  <b_lp_Chiralities_Consistent>  (110) 
1

>  <s_lp_Variant>  (110) 
28:0-3

>  <s_i_glide_gridfile>  (110) 
pfpi4k_grid

>  <i_i_glide_lignum>  (110) 
2

>  <i_i_glide_rotatable_bonds>  (110) 
9

>  <r_i_docking_score>  (110) 
-2.46855

>  <r_i_glide_ligand_efficiency>  (110) 
-0.0667176

>  <r_i_glide_ligand_efficiency_sa>  (110) 
-0.222318

>  <r_i_glide_ligand_efficiency_ln>  (110) 
-0.535371

>  <r_i_glide_gscore>  (110) 
-2.46855

>  <r_i_glide_lipo>  (110) 
-0.474052

>  <r_i_glide_hbond>  (110) 
-0.0892222

>  <r_i_glide_metal>  (110) 
-0

>  <r_i_glide_rewards>  (110) 
0

>  <r_i_glide_evdw>  (110) 
-24.6362

>  <r_i_glide_ecoul>  (110) 
-6.45186

>  <r_i_glide_erotb>  (110) 
0.376457

>  <r_i_glide_esite>  (110) 
-0.0821454

>  <r_i_glide_emodel>  (110) 
-32.0473

>  <r_i_glide_energy>  (110) 
-31.0881

>  <r_i_glide_einternal>  (110) 
6.447

>  <r_i_glide_intrahb_reward>  (110) 
-0

>  <i_i_glide_confnum>  (110) 
3

>  <i_i_glide_posenum>  (110) 
26

>  <r_i_glide_eff_state_penalty>  (110) 
0

>  <ligand_id>  (110) 
28

>  <original_smiles>  (110) 
CC=C(C)C(=O)OC1C2C(O)OC3(C)C2C2OC4C(O)(OCOC)C43C3(C)C2C(C)(O)CCC3C1(C)C

>  <smiles>  (110) 
[H]OC1([H])OC2(C([H])([H])[H])C3([H])C4([H])OC5([H])C(O[H])(OC([H])([H])OC([H])([H])[H])C52C2(C([H])([H])[H])C4([H])C(O[H])(C([H])([H])[H])C([H])([H])C([H])([H])C2([H])C(C([H])([H])[H])(C([H])([H])[H])C([H])(OC(=O)C(=C([H])C([H])([H])[H])C([H])([H])[H])C13[H]

$$$$
28:2:2
     RDKit          3D

 79 84  0  0  1  0  0  0  0  0999 V2000
   -2.8595    2.9812    7.6177 C   0  0  0  0  0  0  0  0  0  0  0  0
   -2.7347    3.0240    6.0971 C   0  0  0  0  0  0  0  0  0  0  0  0
   -1.9354    2.2986    5.2702 C   0  0  0  0  0  0  0  0  0  0  0  0
   -1.9712    2.5136    3.7593 C   0  0  0  0  0  0  0  0  0  0  0  0
   -0.9925    1.2633    5.7651 C   0  0  0  0  0  0  0  0  0  0  0  0
   -1.0262    0.7938    6.9153 O   0  0  0  0  0  0  0  0  0  0  0  0
   -0.0960    0.8515    4.8264 O   0  0  0  0  0  0  0  0  0  0  0  0
    1.0840    0.0845    5.1408 C   0  0  2  0  0  0  0  0  0  0  0  0
    2.3706    0.9588    4.7210 C   0  0  2  0  0  0  0  0  0  0  0  0
    2.3355    1.7693    3.4006 C   0  0  1  0  0  0  0  0  0  0  0  0
    3.0001    3.0056    3.5857 O   0  0  0  0  0  0  0  0  0  0  0  0
    3.0300    0.9506    2.4682 O   0  0  0  0  0  0  0  0  0  0  0  0
    2.7837   -0.4094    2.8433 C   0  0  2  0  0  0  0  0  0  0  0  0
    1.4085   -0.4926    2.1110 C   0  0  0  0  0  0  0  0  0  0  0  0
    3.2653   -0.0693    4.2692 C   0  0  1  0  0  0  0  0  0  0  0  0
    4.7885   -0.3507    4.3545 C   0  0  2  0  0  0  0  0  0  0  0  0
    5.3434   -0.2493    3.0107 O   0  0  0  0  0  0  0  0  0  0  0  0
    5.1233   -1.3928    2.1379 C   0  0  2  0  0  0  0  0  0  0  0  0
    4.0898   -1.7029    1.0899 C   0  0  1  0  0  0  0  0  0  0  0  0
    4.0077   -0.5780    0.2386 O   0  0  0  0  0  0  0  0  0  0  0  0
    4.2182   -2.9829    0.4743 O   0  0  0  0  0  0  0  0  0  0  0  0
    3.2077   -3.2351   -0.4514 C   0  0  0  0  0  0  0  0  0  0  0  0
    3.4334   -2.5673   -1.6552 O   0  0  0  0  0  0  0  0  0  0  0  0
    2.4494   -2.8295   -2.6482 C   0  0  0  0  0  0  0  0  0  0  0  0
    3.6118   -1.6340    2.5287 C   0  0  2  0  0  0  0  0  0  0  0  0
    3.6460   -2.5595    3.8458 C   0  0  1  0  0  0  0  0  0  0  0  0
    4.0857   -3.9980    3.4267 C   0  0  0  0  0  0  0  0  0  0  0  0
    4.8382   -1.8904    4.7217 C   0  0  2  0  0  0  0  0  0  0  0  0
    4.9376   -2.2393    6.2556 C   0  0  1  0  0  0  0  0  0  0  0  0
    5.9116   -3.4010    6.5443 C   0  0  0  0  0  0  0  0  0  0  0  0
    5.5074   -1.1528    6.9567 O   0  0  0  0  0  0  0  0  0  0  0  0
    3.5890   -2.4962    6.9368 C   0  0  0  0  0  0  0  0  0  0  0  0
    2.6933   -3.3909    6.0792 C   0  0  0  0  0  0  0  0  0  0  0  0
    2.2440   -2.6962    4.7550 C   0  0  1  0  0  0  0  0  0  0  0  0
    0.9800   -1.5972    5.0319 C   0  0  0  0  0  0  0  0  0  0  0  0
    0.3020   -1.9583    6.3944 C   0  0  0  0  0  0  0  0  0  0  0  0
   -0.1732   -2.0418    4.0930 C   0  0  0  0  0  0  0  0  0  0  0  0
   -2.9505    3.9964    8.0045 H   0  0  0  0  0  0  0  0  0  0  0  0
   -2.0134    2.5553    8.1542 H   0  0  0  0  0  0  0  0  0  0  0  0
   -3.7592    2.4397    7.9026 H   0  0  0  0  0  0  0  0  0  0  0  0
   -3.4022    3.7345    5.6456 H   0  0  0  0  0  0  0  0  0  0  0  0
   -1.0245    2.9350    3.4258 H   0  0  0  0  0  0  0  0  0  0  0  0
   -2.7680    3.1946    3.4656 H   0  0  0  0  0  0  0  0  0  0  0  0
   -2.1292    1.5733    3.2276 H   0  0  0  0  0  0  0  0  0  0  0  0
    1.1946    0.2181    6.2165 H   0  0  0  0  0  0  0  0  0  0  0  0
    2.7716    1.5474    5.5473 H   0  0  0  0  0  0  0  0  0  0  0  0
    1.3258    2.0022    3.0518 H   0  0  0  0  0  0  0  0  0  0  0  0
    3.2118    3.3476    2.7301 H   0  0  0  0  0  0  0  0  0  0  0  0
    1.1927   -1.4872    1.7355 H   0  0  0  0  0  0  0  0  0  0  0  0
    1.4557    0.0975    1.1946 H   0  0  0  0  0  0  0  0  0  0  0  0
    0.5571   -0.0671    2.6222 H   0  0  0  0  0  0  0  0  0  0  0  0
    3.1115   -0.6236    5.1701 H   0  0  0  0  0  0  0  0  0  0  0  0
    5.3176    0.3264    5.0233 H   0  0  0  0  0  0  0  0  0  0  0  0
    5.9033   -2.1482    2.2606 H   0  0  0  0  0  0  0  0  0  0  0  0
    3.1551   -0.6107   -0.1739 H   0  0  0  0  0  0  0  0  0  0  0  0
    3.2461   -4.3038   -0.6653 H   0  0  0  0  0  0  0  0  0  0  0  0
    2.2291   -2.9835   -0.0327 H   0  0  0  0  0  0  0  0  0  0  0  0
    2.6266   -2.2062   -3.5290 H   0  0  0  0  0  0  0  0  0  0  0  0
    1.4374   -2.6335   -2.3015 H   0  0  0  0  0  0  0  0  0  0  0  0
    2.4839   -3.8638   -2.9667 H   0  0  0  0  0  0  0  0  0  0  0  0
    4.5121   -4.5585    4.2558 H   0  0  0  0  0  0  0  0  0  0  0  0
    4.8636   -4.0146    2.6665 H   0  0  0  0  0  0  0  0  0  0  0  0
    3.2444   -4.5750    3.0429 H   0  0  0  0  0  0  0  0  0  0  0  0
    5.8064   -2.2466    4.3644 H   0  0  0  0  0  0  0  0  0  0  0  0
    5.5598   -4.3518    6.1475 H   0  0  0  0  0  0  0  0  0  0  0  0
    6.0504   -3.5431    7.6188 H   0  0  0  0  0  0  0  0  0  0  0  0
    6.9000   -3.2148    6.1208 H   0  0  0  0  0  0  0  0  0  0  0  0
    6.3962   -1.0321    6.6671 H   0  0  0  0  0  0  0  0  0  0  0  0
    3.7454   -2.9510    7.9190 H   0  0  0  0  0  0  0  0  0  0  0  0
    3.0966   -1.5498    7.1594 H   0  0  0  0  0  0  0  0  0  0  0  0
    3.2170   -4.3174    5.8724 H   0  0  0  0  0  0  0  0  0  0  0  0
    1.8863   -3.7798    6.6850 H   0  0  0  0  0  0  0  0  0  0  0  0
    1.7283   -3.5092    4.2463 H   0  0  0  0  0  0  0  0  0  0  0  0
    0.0569   -3.0186    6.5064 H   0  0  0  0  0  0  0  0  0  0  0  0
   -0.6765   -1.5137    6.4788 H   0  0  0  0  0  0  0  0  0  0  0  0
    0.8962   -1.6474    7.2590 H   0  0  0  0  0  0  0  0  0  0  0  0
   -0.7670   -2.8534    4.5115 H   0  0  0  0  0  0  0  0  0  0  0  0
    0.1955   -2.4766    3.1731 H   0  0  0  0  0  0  0  0  0  0  0  0
   -0.8814   -1.2474    3.8656 H   0  0  0  0  0  0  0  0  0  0  0  0
  1  2  1  0
  1 38  1  0
  1 39  1  0
  1 40  1  0
  2  3  2  3
  2 41  1  0
  3  4  1  0
  3  5  1  0
  4 42  1  0
  4 43  1  0
  4 44  1  0
  5  6  2  0
  5  7  1  0
  7  8  1  0
  8 35  1  0
  8  9  1  0
  8 45  1  1
  9 15  1  0
  9 10  1  0
  9 46  1  1
 10 11  1  0
 10 12  1  0
 10 47  1  6
 11 48  1  0
 12 13  1  0
 13 25  1  0
 13 14  1  1
 13 15  1  0
 14 49  1  0
 14 50  1  0
 14 51  1  0
 15 16  1  0
 15 52  1  1
 16 28  1  0
 16 17  1  0
 16 53  1  1
 17 18  1  0
 18 25  1  0
 18 19  1  0
 18 54  1  1
 19 20  1  6
 19 21  1  0
 25 19  1  6
 20 55  1  0
 21 22  1  0
 22 23  1  0
 22 56  1  0
 22 57  1  0
 23 24  1  0
 24 58  1  0
 24 59  1  0
 24 60  1  0
 25 26  1  0
 26 34  1  0
 26 27  1  6
 26 28  1  0
 27 61  1  0
 27 62  1  0
 27 63  1  0
 28 29  1  0
 28 64  1  6
 29 30  1  0
 29 31  1  1
 29 32  1  0
 30 65  1  0
 30 66  1  0
 30 67  1  0
 31 68  1  0
 32 33  1  0
 32 69  1  0
 32 70  1  0
 33 34  1  0
 33 71  1  0
 33 72  1  0
 34 35  1  0
 34 73  1  6
 35 36  1  0
 35 37  1  0
 36 74  1  0
 36 75  1  0
 36 76  1  0
 37 77  1  0
 37 78  1  0
 37 79  1  0
M  END
>  <i_m_ct_stereo_status>  (111) 
1

>  <s_m_source_file>  (111) 
/var/tmp/pbs.5076255.sched01/tmp8yzwbncg/40d_vk9m1l.sdf

>  <i_m_source_file_index>  (111) 
2

>  <i_lp_mmshare_version>  (111) 
48012

>  <i_f3d_flags>  (111) 
0

>  <s_epik_input>  (111) 
W0NIM10vW0NIXT1DKC9bQ0gzXSlDKD1PKU9bQ0BIXShbQ0BIXShbQ0BIXShPMSlbT0hdKVtDQEhdMltDQEBdMShbQ0BdMzQ1KVtDSDNdKUMoW0NIM10pKFtDSDNdKVtDQEhdNltDQF01KFtDSDNdKVtDQEhdKFtDQEBdKFtDSDNdKShbT0hdKVtDSDJdW0NIMl02KVtDQEhdMk9bQ0BASF0zW0NAQF00KFtPSF0pT1tDSDJdT1tDSDNd

>  <s_epik_cmdline>  (111) 
J2VwaWtfcHl0aG9uJywgJy1waHQnLCAnMi4wJywgJy1waCcsICc3LjAnLCAnLXRuJywgJzgnLCAnLW1hJywgJzIwMCcsICctaW1hZScsICc8aW5maWxlLm1hZT4nLCAnLW9tYWUnLCAnPG91dGZpbGUubWFlPic=

>  <r_lp_tautomer_probability>  (111) 
1

>  <r_epik_Ionization_Penalty>  (111) 
5.84453e-06

>  <r_epik_Ionization_Penalty_Charging>  (111) 
0

>  <r_epik_Ionization_Penalty_Neutral>  (111) 
5.84453e-06

>  <r_epik_State_Penalty>  (111) 
-0

>  <r_epik_Charging_Adjusted_Penalty>  (111) 
0

>  <i_epik_Tot_Q>  (111) 
0

>  <i_epik_Tot_abs_Q>  (111) 
0

>  <s_epik_Chemistry_Notes>  (111) 
This compound has an ester and may undergo hydrolysis at high or low pH. This compound contains an acetal/aminal-like group ( X-CH(R)-Y where X, Y are N, S, or O) that may be acid/base labile, releasing an aldehyde.

>  <s_lp_Force_Field>  (111) 
OPLS3e

>  <r_lp_Energy>  (111) 
245.264

>  <b_lp_Chiralities_Consistent>  (111) 
1

>  <s_lp_Variant>  (111) 
28:0-3

>  <s_i_glide_gridfile>  (111) 
pfpi4k_grid

>  <i_i_glide_lignum>  (111) 
2

>  <i_i_glide_rotatable_bonds>  (111) 
9

>  <r_i_docking_score>  (111) 
-2.39615

>  <r_i_glide_ligand_efficiency>  (111) 
-0.0647609

>  <r_i_glide_ligand_efficiency_sa>  (111) 
-0.215798

>  <r_i_glide_ligand_efficiency_ln>  (111) 
-0.519669

>  <r_i_glide_gscore>  (111) 
-2.39615

>  <r_i_glide_lipo>  (111) 
-0.497536

>  <r_i_glide_hbond>  (111) 
-0.080426

>  <r_i_glide_metal>  (111) 
-0

>  <r_i_glide_rewards>  (111) 
-0.0337173

>  <r_i_glide_evdw>  (111) 
-27.3154

>  <r_i_glide_ecoul>  (111) 
-5.00571

>  <r_i_glide_erotb>  (111) 
0.376457

>  <r_i_glide_esite>  (111) 
-0.0443024

>  <r_i_glide_emodel>  (111) 
-31.7513

>  <r_i_glide_energy>  (111) 
-32.3211

>  <r_i_glide_einternal>  (111) 
9.64451

>  <r_i_glide_intrahb_reward>  (111) 
-0

>  <i_i_glide_confnum>  (111) 
3

>  <i_i_glide_posenum>  (111) 
25

>  <r_i_glide_eff_state_penalty>  (111) 
0

>  <ligand_id>  (111) 
28

>  <original_smiles>  (111) 
CC=C(C)C(=O)OC1C2C(O)OC3(C)C2C2OC4C(O)(OCOC)C43C3(C)C2C(C)(O)CCC3C1(C)C

>  <smiles>  (111) 
[H]OC1([H])OC2(C([H])([H])[H])C3([H])C4([H])OC5([H])C(O[H])(OC([H])([H])OC([H])([H])[H])C52C2(C([H])([H])[H])C4([H])C(O[H])(C([H])([H])[H])C([H])([H])C([H])([H])C2([H])C(C([H])([H])[H])(C([H])([H])[H])C([H])(OC(=O)C(=C([H])C([H])([H])[H])C([H])([H])[H])C13[H]

$$$$
28:3:0
     RDKit          3D

 79 84  0  0  1  0  0  0  0  0999 V2000
    1.8318    2.5206    2.6764 C   0  0  0  0  0  0  0  0  0  0  0  0
    2.7757    1.3291    2.8005 C   0  0  0  0  0  0  0  0  0  0  0  0
    2.4514    0.0164    2.8029 C   0  0  0  0  0  0  0  0  0  0  0  0
    1.0191   -0.5051    2.6976 C   0  0  0  0  0  0  0  0  0  0  0  0
    3.5398   -1.0019    2.8965 C   0  0  0  0  0  0  0  0  0  0  0  0
    4.7348   -0.7417    2.7414 O   0  0  0  0  0  0  0  0  0  0  0  0
    3.0617   -2.2539    3.1580 O   0  0  0  0  0  0  0  0  0  0  0  0
    3.8824   -3.4318    3.1811 C   0  0  2  0  0  0  0  0  0  0  0  0
    3.9174   -4.0961    1.7153 C   0  0  2  0  0  0  0  0  0  0  0  0
    2.6159   -4.1168    0.8784 C   0  0  1  0  0  0  0  0  0  0  0  0
    2.9268   -3.8636   -0.4741 O   0  0  0  0  0  0  0  0  0  0  0  0
    2.0858   -5.4279    1.0621 O   0  0  0  0  0  0  0  0  0  0  0  0
    2.4731   -5.8416    2.3816 C   0  0  2  0  0  0  0  0  0  0  0  0
    1.2987   -5.1321    3.1210 C   0  0  0  0  0  0  0  0  0  0  0  0
    3.9449   -5.4917    2.0485 C   0  0  1  0  0  0  0  0  0  0  0  0
    4.6549   -6.7569    1.5078 C   0  0  2  0  0  0  0  0  0  0  0  0
    3.6300   -7.6039    0.9224 O   0  0  0  0  0  0  0  0  0  0  0  0
    2.8360   -8.3911    1.8569 C   0  0  2  0  0  0  0  0  0  0  0  0
    1.5076   -8.2077    2.5150 C   0  0  1  0  0  0  0  0  0  0  0  0
    0.4862   -7.7792    1.6296 O   0  0  0  0  0  0  0  0  0  0  0  0
    1.1221   -9.1642    3.4947 O   0  0  0  0  0  0  0  0  0  0  0  0
    0.6668  -10.3685    2.9504 C   0  0  0  0  0  0  0  0  0  0  0  0
    1.4780  -11.4325    3.2976 O   0  0  0  0  0  0  0  0  0  0  0  0
    1.3288  -11.8011    4.6546 C   0  0  0  0  0  0  0  0  0  0  0  0
    2.6076   -7.2465    2.9249 C   0  0  2  0  0  0  0  0  0  0  0  0
    3.9097   -7.2756    3.8885 C   0  0  1  0  0  0  0  0  0  0  0  0
    3.7963   -8.5270    4.8104 C   0  0  0  0  0  0  0  0  0  0  0  0
    5.1277   -7.4935    2.8329 C   0  0  2  0  0  0  0  0  0  0  0  0
    6.6030   -7.2082    3.3027 C   0  0  1  0  0  0  0  0  0  0  0  0
    7.3024   -8.4733    3.8452 C   0  0  0  0  0  0  0  0  0  0  0  0
    7.4070   -6.8679    2.1894 O   0  0  0  0  0  0  0  0  0  0  0  0
    6.7331   -6.0456    4.2992 C   0  0  0  0  0  0  0  0  0  0  0  0
    5.6763   -6.1403    5.4027 C   0  0  0  0  0  0  0  0  0  0  0  0
    4.2208   -5.9325    4.8671 C   0  0  1  0  0  0  0  0  0  0  0  0
    3.8699   -4.2805    4.6378 C   0  0  0  0  0  0  0  0  0  0  0  0
    4.8944   -3.4021    5.4335 C   0  0  0  0  0  0  0  0  0  0  0  0
    2.5992   -3.9850    5.5118 C   0  0  0  0  0  0  0  0  0  0  0  0
    2.2076    3.2188    1.9295 H   0  0  0  0  0  0  0  0  0  0  0  0
    1.7760    3.0579    3.6206 H   0  0  0  0  0  0  0  0  0  0  0  0
    0.8198    2.2597    2.3707 H   0  0  0  0  0  0  0  0  0  0  0  0
    3.8066    1.6065    2.9034 H   0  0  0  0  0  0  0  0  0  0  0  0
    0.8111   -1.3058    3.4088 H   0  0  0  0  0  0  0  0  0  0  0  0
    0.8568   -0.8791    1.6903 H   0  0  0  0  0  0  0  0  0  0  0  0
    0.2766    0.2631    2.8927 H   0  0  0  0  0  0  0  0  0  0  0  0
    4.9070   -3.0641    3.1764 H   0  0  0  0  0  0  0  0  0  0  0  0
    4.7760   -3.7689    1.1254 H   0  0  0  0  0  0  0  0  0  0  0  0
    1.9121   -3.3416    1.1905 H   0  0  0  0  0  0  0  0  0  0  0  0
    2.1258   -3.7863   -0.9687 H   0  0  0  0  0  0  0  0  0  0  0  0
    1.0332   -5.6267    4.0505 H   0  0  0  0  0  0  0  0  0  0  0  0
    0.3945   -5.2740    2.5340 H   0  0  0  0  0  0  0  0  0  0  0  0
    1.3665   -4.0573    3.2379 H   0  0  0  0  0  0  0  0  0  0  0  0
    4.7585   -5.3371    2.7277 H   0  0  0  0  0  0  0  0  0  0  0  0
    5.4314   -6.5431    0.7733 H   0  0  0  0  0  0  0  0  0  0  0  0
    3.3123   -9.3382    2.0884 H   0  0  0  0  0  0  0  0  0  0  0  0
    0.2989   -8.4941    1.0297 H   0  0  0  0  0  0  0  0  0  0  0  0
   -0.3689  -10.5432    3.2496 H   0  0  0  0  0  0  0  0  0  0  0  0
    0.6812  -10.3559    1.8603 H   0  0  0  0  0  0  0  0  0  0  0  0
    1.9916  -12.6366    4.8822 H   0  0  0  0  0  0  0  0  0  0  0  0
    0.3004  -12.1088    4.8571 H   0  0  0  0  0  0  0  0  0  0  0  0
    1.5866  -10.9651    5.3056 H   0  0  0  0  0  0  0  0  0  0  0  0
    4.7160   -8.7726    5.3328 H   0  0  0  0  0  0  0  0  0  0  0  0
    3.5480   -9.4348    4.2629 H   0  0  0  0  0  0  0  0  0  0  0  0
    3.0245   -8.3838    5.5667 H   0  0  0  0  0  0  0  0  0  0  0  0
    5.2034   -8.5486    2.5621 H   0  0  0  0  0  0  0  0  0  0  0  0
    6.8226   -8.8649    4.7397 H   0  0  0  0  0  0  0  0  0  0  0  0
    8.3465   -8.2780    4.1010 H   0  0  0  0  0  0  0  0  0  0  0  0
    7.3051   -9.2718    3.0991 H   0  0  0  0  0  0  0  0  0  0  0  0
    8.3192   -6.9117    2.4410 H   0  0  0  0  0  0  0  0  0  0  0  0
    7.7325   -6.0369    4.7436 H   0  0  0  0  0  0  0  0  0  0  0  0
    6.6423   -5.0941    3.7752 H   0  0  0  0  0  0  0  0  0  0  0  0
    5.7771   -7.1040    5.8885 H   0  0  0  0  0  0  0  0  0  0  0  0
    5.9405   -5.4832    6.2246 H   0  0  0  0  0  0  0  0  0  0  0  0
    3.6344   -6.1733    5.7552 H   0  0  0  0  0  0  0  0  0  0  0  0
    4.9675   -3.6591    6.4914 H   0  0  0  0  0  0  0  0  0  0  0  0
    4.6064   -2.3510    5.4178 H   0  0  0  0  0  0  0  0  0  0  0  0
    5.9035   -3.4388    5.0253 H   0  0  0  0  0  0  0  0  0  0  0  0
    2.8344   -3.7320    6.5458 H   0  0  0  0  0  0  0  0  0  0  0  0
    1.9530   -4.8452    5.6457 H   0  0  0  0  0  0  0  0  0  0  0  0
    1.9934   -3.1592    5.1478 H   0  0  0  0  0  0  0  0  0  0  0  0
  1  2  1  0
  1 38  1  0
  1 39  1  0
  1 40  1  0
  2  3  2  3
  2 41  1  0
  3  4  1  0
  3  5  1  0
  4 42  1  0
  4 43  1  0
  4 44  1  0
  5  6  2  0
  5  7  1  0
  7  8  1  0
  8 35  1  0
  8  9  1  0
  8 45  1  1
  9 15  1  0
  9 10  1  0
  9 46  1  6
 10 11  1  0
 10 12  1  0
 10 47  1  1
 11 48  1  0
 12 13  1  0
 13 25  1  0
 13 14  1  1
 13 15  1  0
 14 49  1  0
 14 50  1  0
 14 51  1  0
 15 16  1  0
 15 52  1  1
 16 28  1  0
 16 17  1  0
 16 53  1  6
 17 18  1  0
 18 25  1  0
 18 19  1  0
 18 54  1  1
 19 20  1  6
 19 21  1  0
 25 19  1  1
 20 55  1  0
 21 22  1  0
 22 23  1  0
 22 56  1  0
 22 57  1  0
 23 24  1  0
 24 58  1  0
 24 59  1  0
 24 60  1  0
 25 26  1  0
 26 34  1  0
 26 27  1  1
 26 28  1  0
 27 61  1  0
 27 62  1  0
 27 63  1  0
 28 29  1  0
 28 64  1  6
 29 30  1  0
 29 31  1  6
 29 32  1  0
 30 65  1  0
 30 66  1  0
 30 67  1  0
 31 68  1  0
 32 33  1  0
 32 69  1  0
 32 70  1  0
 33 34  1  0
 33 71  1  0
 33 72  1  0
 34 35  1  0
 34 73  1  1
 35 36  1  0
 35 37  1  0
 36 74  1  0
 36 75  1  0
 36 76  1  0
 37 77  1  0
 37 78  1  0
 37 79  1  0
M  END
>  <i_m_ct_stereo_status>  (112) 
1

>  <s_m_source_file>  (112) 
/var/tmp/pbs.5076255.sched01/tmp8yzwbncg/40d_vk9m1l.sdf

>  <i_m_source_file_index>  (112) 
3

>  <i_lp_mmshare_version>  (112) 
48012

>  <i_f3d_flags>  (112) 
0

>  <s_epik_input>  (112) 
W0NIM10vW0NIXT1DKC9bQ0gzXSlDKD1PKU9bQ0BIXShbQ0BIXShbQ0BIXShPMSlbT0hdKVtDQEhdMltDQEBdMShbQ0BdMzQ1KVtDSDNdKUMoW0NIM10pKFtDSDNdKVtDQEhdNltDQF01KFtDSDNdKVtDQEhdKFtDQEBdKFtDSDNdKShbT0hdKVtDSDJdW0NIMl02KVtDQEhdMk9bQ0BASF0zW0NAQF00KFtPSF0pT1tDSDJdT1tDSDNd

>  <s_epik_cmdline>  (112) 
J2VwaWtfcHl0aG9uJywgJy1waHQnLCAnMi4wJywgJy1waCcsICc3LjAnLCAnLXRuJywgJzgnLCAnLW1hJywgJzIwMCcsICctaW1hZScsICc8aW5maWxlLm1hZT4nLCAnLW9tYWUnLCAnPG91dGZpbGUubWFlPic=

>  <r_lp_tautomer_probability>  (112) 
1

>  <r_epik_Ionization_Penalty>  (112) 
5.84453e-06

>  <r_epik_Ionization_Penalty_Charging>  (112) 
0

>  <r_epik_Ionization_Penalty_Neutral>  (112) 
5.84453e-06

>  <r_epik_State_Penalty>  (112) 
-0

>  <r_epik_Charging_Adjusted_Penalty>  (112) 
0

>  <i_epik_Tot_Q>  (112) 
0

>  <i_epik_Tot_abs_Q>  (112) 
0

>  <s_epik_Chemistry_Notes>  (112) 
This compound has an ester and may undergo hydrolysis at high or low pH. This compound contains an acetal/aminal-like group ( X-CH(R)-Y where X, Y are N, S, or O) that may be acid/base labile, releasing an aldehyde.

>  <s_lp_Force_Field>  (112) 
OPLS3e

>  <r_lp_Energy>  (112) 
243.127

>  <b_lp_Chiralities_Consistent>  (112) 
1

>  <s_lp_Variant>  (112) 
28:0-4

>  <s_i_glide_gridfile>  (112) 
pfpi4k_grid

>  <i_i_glide_lignum>  (112) 
3

>  <i_i_glide_rotatable_bonds>  (112) 
9

>  <r_i_docking_score>  (112) 
-2.29978

>  <r_i_glide_ligand_efficiency>  (112) 
-0.0621562

>  <r_i_glide_ligand_efficiency_sa>  (112) 
-0.207118

>  <r_i_glide_ligand_efficiency_ln>  (112) 
-0.498768

>  <r_i_glide_gscore>  (112) 
-2.29978

>  <r_i_glide_lipo>  (112) 
-0.111749

>  <r_i_glide_hbond>  (112) 
-0.0286733

>  <r_i_glide_metal>  (112) 
-0

>  <r_i_glide_rewards>  (112) 
-0.154684

>  <r_i_glide_evdw>  (112) 
-25.6919

>  <r_i_glide_ecoul>  (112) 
-7.01084

>  <r_i_glide_erotb>  (112) 
0.376457

>  <r_i_glide_esite>  (112) 
-0.0449113

>  <r_i_glide_emodel>  (112) 
-32.9666

>  <r_i_glide_energy>  (112) 
-32.7027

>  <r_i_glide_einternal>  (112) 
8.09108

>  <r_i_glide_intrahb_reward>  (112) 
-0

>  <i_i_glide_confnum>  (112) 
2

>  <i_i_glide_posenum>  (112) 
30

>  <r_i_glide_eff_state_penalty>  (112) 
0

>  <ligand_id>  (112) 
28

>  <original_smiles>  (112) 
CC=C(C)C(=O)OC1C2C(O)OC3(C)C2C2OC4C(O)(OCOC)C43C3(C)C2C(C)(O)CCC3C1(C)C

>  <smiles>  (112) 
[H]OC1([H])OC2(C([H])([H])[H])C3([H])C4([H])OC5([H])C(O[H])(OC([H])([H])OC([H])([H])[H])C52C2(C([H])([H])[H])C4([H])C(O[H])(C([H])([H])[H])C([H])([H])C([H])([H])C2([H])C(C([H])([H])[H])(C([H])([H])[H])C([H])(OC(=O)C(=C([H])C([H])([H])[H])C([H])([H])[H])C13[H]

$$$$
28:3:1
     RDKit          3D

 79 84  0  0  1  0  0  0  0  0999 V2000
    3.4673   -1.2839   -3.0205 C   0  0  0  0  0  0  0  0  0  0  0  0
    3.9397   -1.6650   -1.6293 C   0  0  0  0  0  0  0  0  0  0  0  0
    5.1283   -2.2382   -1.3006 C   0  0  0  0  0  0  0  0  0  0  0  0
    6.2020   -2.6222   -2.3109 C   0  0  0  0  0  0  0  0  0  0  0  0
    5.4528   -2.5430    0.1139 C   0  0  0  0  0  0  0  0  0  0  0  0
    6.6166   -2.6127    0.5348 O   0  0  0  0  0  0  0  0  0  0  0  0
    4.3558   -2.7876    0.8834 O   0  0  0  0  0  0  0  0  0  0  0  0
    4.4506   -3.2716    2.2331 C   0  0  2  0  0  0  0  0  0  0  0  0
    5.2067   -4.6929    2.3107 C   0  0  2  0  0  0  0  0  0  0  0  0
    4.9503   -5.7379    1.1952 C   0  0  1  0  0  0  0  0  0  0  0  0
    6.1340   -6.4234    0.8794 O   0  0  0  0  0  0  0  0  0  0  0  0
    3.9741   -6.6120    1.7488 O   0  0  0  0  0  0  0  0  0  0  0  0
    3.1857   -5.8310    2.6504 C   0  0  2  0  0  0  0  0  0  0  0  0
    2.2198   -5.2832    1.5591 C   0  0  0  0  0  0  0  0  0  0  0  0
    4.4691   -5.3404    3.3483 C   0  0  1  0  0  0  0  0  0  0  0  0
    4.8021   -6.2992    4.5176 C   0  0  2  0  0  0  0  0  0  0  0  0
    4.2270   -7.5903    4.1925 O   0  0  0  0  0  0  0  0  0  0  0  0
    2.7961   -7.7122    4.4303 C   0  0  2  0  0  0  0  0  0  0  0  0
    1.5977   -7.6027    3.5649 C   0  0  1  0  0  0  0  0  0  0  0  0
    1.7940   -8.2728    2.3144 O   0  0  0  0  0  0  0  0  0  0  0  0
    0.3016   -7.7076    4.1956 O   0  0  0  0  0  0  0  0  0  0  0  0
   -0.0440   -9.0300    4.4938 C   0  0  0  0  0  0  0  0  0  0  0  0
   -0.2091   -9.8256    3.3575 O   0  0  0  0  0  0  0  0  0  0  0  0
   -1.3286   -9.4558    2.5695 C   0  0  0  0  0  0  0  0  0  0  0  0
    2.3710   -6.3259    3.8247 C   0  0  2  0  0  0  0  0  0  0  0  0
    2.5468   -5.2419    5.0123 C   0  0  1  0  0  0  0  0  0  0  0  0
    1.3666   -5.4663    6.0078 C   0  0  0  0  0  0  0  0  0  0  0  0
    3.9359   -5.7095    5.7047 C   0  0  2  0  0  0  0  0  0  0  0  0
    4.6624   -4.7076    6.6716 C   0  0  1  0  0  0  0  0  0  0  0  0
    4.2614   -4.9142    8.1473 C   0  0  0  0  0  0  0  0  0  0  0  0
    6.0509   -4.9586    6.6655 O   0  0  0  0  0  0  0  0  0  0  0  0
    4.5197   -3.2308    6.2764 C   0  0  0  0  0  0  0  0  0  0  0  0
    3.0750   -2.8873    5.9105 C   0  0  0  0  0  0  0  0  0  0  0  0
    2.5921   -3.6093    4.6112 C   0  0  1  0  0  0  0  0  0  0  0  0
    3.1567   -2.8188    3.2156 C   0  0  0  0  0  0  0  0  0  0  0  0
    3.6154   -1.3658    3.5667 C   0  0  0  0  0  0  0  0  0  0  0  0
    1.8770   -2.4553    2.3842 C   0  0  0  0  0  0  0  0  0  0  0  0
    3.0766   -0.2654   -3.0103 H   0  0  0  0  0  0  0  0  0  0  0  0
    2.6551   -1.9415   -3.3321 H   0  0  0  0  0  0  0  0  0  0  0  0
    4.2463   -1.3174   -3.7798 H   0  0  0  0  0  0  0  0  0  0  0  0
    3.2216   -1.4447   -0.8516 H   0  0  0  0  0  0  0  0  0  0  0  0
    6.6053   -3.6067   -2.0736 H   0  0  0  0  0  0  0  0  0  0  0  0
    7.0323   -1.9212   -2.2808 H   0  0  0  0  0  0  0  0  0  0  0  0
    5.8272   -2.6823   -3.3278 H   0  0  0  0  0  0  0  0  0  0  0  0
    5.2561   -2.6590    2.6425 H   0  0  0  0  0  0  0  0  0  0  0  0
    6.2732   -4.5952    2.5255 H   0  0  0  0  0  0  0  0  0  0  0  0
    4.5827   -5.2961    0.2639 H   0  0  0  0  0  0  0  0  0  0  0  0
    6.5130   -6.7238    1.7019 H   0  0  0  0  0  0  0  0  0  0  0  0
    1.2477   -5.0597    1.9775 H   0  0  0  0  0  0  0  0  0  0  0  0
    2.0005   -6.0725    0.8364 H   0  0  0  0  0  0  0  0  0  0  0  0
    2.5898   -4.4774    0.9367 H   0  0  0  0  0  0  0  0  0  0  0  0
    4.5966   -4.4995    3.9972 H   0  0  0  0  0  0  0  0  0  0  0  0
    5.8670   -6.4101    4.7019 H   0  0  0  0  0  0  0  0  0  0  0  0
    2.5791   -8.0040    5.4582 H   0  0  0  0  0  0  0  0  0  0  0  0
    1.6166   -9.1891    2.4789 H   0  0  0  0  0  0  0  0  0  0  0  0
    0.7224   -9.5111    5.1045 H   0  0  0  0  0  0  0  0  0  0  0  0
   -0.9588   -9.0412    5.0883 H   0  0  0  0  0  0  0  0  0  0  0  0
   -1.3868  -10.1033    1.6949 H   0  0  0  0  0  0  0  0  0  0  0  0
   -1.2540   -8.4275    2.2122 H   0  0  0  0  0  0  0  0  0  0  0  0
   -2.2573   -9.5613    3.1276 H   0  0  0  0  0  0  0  0  0  0  0  0
    1.5035   -4.9576    6.9627 H   0  0  0  0  0  0  0  0  0  0  0  0
    1.2243   -6.5116    6.2845 H   0  0  0  0  0  0  0  0  0  0  0  0
    0.4213   -5.1098    5.5911 H   0  0  0  0  0  0  0  0  0  0  0  0
    3.7564   -6.5481    6.3813 H   0  0  0  0  0  0  0  0  0  0  0  0
    3.2083   -4.7087    8.3250 H   0  0  0  0  0  0  0  0  0  0  0  0
    4.8309   -4.2604    8.8098 H   0  0  0  0  0  0  0  0  0  0  0  0
    4.4509   -5.9391    8.4747 H   0  0  0  0  0  0  0  0  0  0  0  0
    6.2068   -5.8333    7.0072 H   0  0  0  0  0  0  0  0  0  0  0  0
    4.8686   -2.5949    7.0930 H   0  0  0  0  0  0  0  0  0  0  0  0
    5.1921   -2.9990    5.4512 H   0  0  0  0  0  0  0  0  0  0  0  0
    2.4444   -3.1412    6.7535 H   0  0  0  0  0  0  0  0  0  0  0  0
    2.9493   -1.8101    5.8887 H   0  0  0  0  0  0  0  0  0  0  0  0
    1.5318   -3.3504    4.6108 H   0  0  0  0  0  0  0  0  0  0  0  0
    2.8510   -0.7806    4.0812 H   0  0  0  0  0  0  0  0  0  0  0  0
    3.8434   -0.7981    2.6637 H   0  0  0  0  0  0  0  0  0  0  0  0
    4.5155   -1.3301    4.1802 H   0  0  0  0  0  0  0  0  0  0  0  0
    1.4343   -1.5007    2.6677 H   0  0  0  0  0  0  0  0  0  0  0  0
    1.0538   -3.1401    2.5491 H   0  0  0  0  0  0  0  0  0  0  0  0
    2.0404   -2.3734    1.3127 H   0  0  0  0  0  0  0  0  0  0  0  0
  1  2  1  0
  1 38  1  0
  1 39  1  0
  1 40  1  0
  2  3  2  3
  2 41  1  0
  3  4  1  0
  3  5  1  0
  4 42  1  0
  4 43  1  0
  4 44  1  0
  5  6  2  0
  5  7  1  0
  7  8  1  0
  8 35  1  0
  8  9  1  0
  8 45  1  1
  9 15  1  0
  9 10  1  0
  9 46  1  1
 10 11  1  0
 10 12  1  0
 10 47  1  6
 11 48  1  0
 12 13  1  0
 13 25  1  0
 13 14  1  6
 13 15  1  0
 14 49  1  0
 14 50  1  0
 14 51  1  0
 15 16  1  0
 15 52  1  1
 16 28  1  0
 16 17  1  0
 16 53  1  1
 17 18  1  0
 18 25  1  0
 18 19  1  0
 18 54  1  1
 19 20  1  6
 19 21  1  0
 25 19  1  6
 20 55  1  0
 21 22  1  0
 22 23  1  0
 22 56  1  0
 22 57  1  0
 23 24  1  0
 24 58  1  0
 24 59  1  0
 24 60  1  0
 25 26  1  0
 26 34  1  0
 26 27  1  1
 26 28  1  0
 27 61  1  0
 27 62  1  0
 27 63  1  0
 28 29  1  0
 28 64  1  1
 29 30  1  0
 29 31  1  1
 29 32  1  0
 30 65  1  0
 30 66  1  0
 30 67  1  0
 31 68  1  0
 32 33  1  0
 32 69  1  0
 32 70  1  0
 33 34  1  0
 33 71  1  0
 33 72  1  0
 34 35  1  0
 34 73  1  6
 35 36  1  0
 35 37  1  0
 36 74  1  0
 36 75  1  0
 36 76  1  0
 37 77  1  0
 37 78  1  0
 37 79  1  0
M  END
>  <i_m_ct_stereo_status>  (113) 
1

>  <s_m_source_file>  (113) 
/var/tmp/pbs.5076255.sched01/tmp8yzwbncg/40d_vk9m1l.sdf

>  <i_m_source_file_index>  (113) 
3

>  <i_lp_mmshare_version>  (113) 
48012

>  <i_f3d_flags>  (113) 
0

>  <s_epik_input>  (113) 
W0NIM10vW0NIXT1DKC9bQ0gzXSlDKD1PKU9bQ0BIXShbQ0BIXShbQ0BIXShPMSlbT0hdKVtDQEhdMltDQEBdMShbQ0BdMzQ1KVtDSDNdKUMoW0NIM10pKFtDSDNdKVtDQEhdNltDQF01KFtDSDNdKVtDQEhdKFtDQEBdKFtDSDNdKShbT0hdKVtDSDJdW0NIMl02KVtDQEhdMk9bQ0BASF0zW0NAQF00KFtPSF0pT1tDSDJdT1tDSDNd

>  <s_epik_cmdline>  (113) 
J2VwaWtfcHl0aG9uJywgJy1waHQnLCAnMi4wJywgJy1waCcsICc3LjAnLCAnLXRuJywgJzgnLCAnLW1hJywgJzIwMCcsICctaW1hZScsICc8aW5maWxlLm1hZT4nLCAnLW9tYWUnLCAnPG91dGZpbGUubWFlPic=

>  <r_lp_tautomer_probability>  (113) 
1

>  <r_epik_Ionization_Penalty>  (113) 
5.84453e-06

>  <r_epik_Ionization_Penalty_Charging>  (113) 
0

>  <r_epik_Ionization_Penalty_Neutral>  (113) 
5.84453e-06

>  <r_epik_State_Penalty>  (113) 
-0

>  <r_epik_Charging_Adjusted_Penalty>  (113) 
0

>  <i_epik_Tot_Q>  (113) 
0

>  <i_epik_Tot_abs_Q>  (113) 
0

>  <s_epik_Chemistry_Notes>  (113) 
This compound has an ester and may undergo hydrolysis at high or low pH. This compound contains an acetal/aminal-like group ( X-CH(R)-Y where X, Y are N, S, or O) that may be acid/base labile, releasing an aldehyde.

>  <s_lp_Force_Field>  (113) 
OPLS3e

>  <r_lp_Energy>  (113) 
243.127

>  <b_lp_Chiralities_Consistent>  (113) 
1

>  <s_lp_Variant>  (113) 
28:0-4

>  <s_i_glide_gridfile>  (113) 
pfpi4k_grid

>  <i_i_glide_lignum>  (113) 
3

>  <i_i_glide_rotatable_bonds>  (113) 
9

>  <r_i_docking_score>  (113) 
-2.10578

>  <r_i_glide_ligand_efficiency>  (113) 
-0.056913

>  <r_i_glide_ligand_efficiency_sa>  (113) 
-0.189647

>  <r_i_glide_ligand_efficiency_ln>  (113) 
-0.456695

>  <r_i_glide_gscore>  (113) 
-2.10578

>  <r_i_glide_lipo>  (113) 
-0.201915

>  <r_i_glide_hbond>  (113) 
0

>  <r_i_glide_metal>  (113) 
-0

>  <r_i_glide_rewards>  (113) 
-0.619675

>  <r_i_glide_evdw>  (113) 
-25.8371

>  <r_i_glide_ecoul>  (113) 
-1.94993

>  <r_i_glide_erotb>  (113) 
0.376457

>  <r_i_glide_esite>  (113) 
-0.0763018

>  <r_i_glide_emodel>  (113) 
-34.6904

>  <r_i_glide_energy>  (113) 
-27.7871

>  <r_i_glide_einternal>  (113) 
3.86034

>  <r_i_glide_intrahb_reward>  (113) 
-0.5

>  <i_i_glide_confnum>  (113) 
1

>  <i_i_glide_posenum>  (113) 
2

>  <r_i_glide_eff_state_penalty>  (113) 
0

>  <ligand_id>  (113) 
28

>  <original_smiles>  (113) 
CC=C(C)C(=O)OC1C2C(O)OC3(C)C2C2OC4C(O)(OCOC)C43C3(C)C2C(C)(O)CCC3C1(C)C

>  <smiles>  (113) 
[H]OC1([H])OC2(C([H])([H])[H])C3([H])C4([H])OC5([H])C(O[H])(OC([H])([H])OC([H])([H])[H])C52C2(C([H])([H])[H])C4([H])C(O[H])(C([H])([H])[H])C([H])([H])C([H])([H])C2([H])C(C([H])([H])[H])(C([H])([H])[H])C([H])(OC(=O)C(=C([H])C([H])([H])[H])C([H])([H])[H])C13[H]

$$$$
28:3:2
     RDKit          3D

 79 84  0  0  1  0  0  0  0  0999 V2000
   -0.3986    0.7280    2.6636 C   0  0  0  0  0  0  0  0  0  0  0  0
    0.8001   -0.2055    2.7615 C   0  0  0  0  0  0  0  0  0  0  0  0
    2.1041    0.1280    2.6638 C   0  0  0  0  0  0  0  0  0  0  0  0
    2.5995    1.5515    2.4165 C   0  0  0  0  0  0  0  0  0  0  0  0
    3.1777   -0.9045    2.7878 C   0  0  0  0  0  0  0  0  0  0  0  0
    4.3746   -0.6743    2.5794 O   0  0  0  0  0  0  0  0  0  0  0  0
    2.7148   -2.1256    3.1714 O   0  0  0  0  0  0  0  0  0  0  0  0
    3.5745   -3.2636    3.3337 C   0  0  2  0  0  0  0  0  0  0  0  0
    3.8101   -3.9844    1.9103 C   0  0  2  0  0  0  0  0  0  0  0  0
    2.6186   -4.1036    0.9354 C   0  0  1  0  0  0  0  0  0  0  0  0
    3.0753   -3.9314   -0.3748 O   0  0  0  0  0  0  0  0  0  0  0  0
    2.1036   -5.4167    1.1465 O   0  0  0  0  0  0  0  0  0  0  0  0
    2.3731   -5.7530    2.5111 C   0  0  2  0  0  0  0  0  0  0  0  0
    1.1046   -5.0768    3.0946 C   0  0  0  0  0  0  0  0  0  0  0  0
    3.8632   -5.3560    2.3199 C   0  0  1  0  0  0  0  0  0  0  0  0
    4.6727   -6.6090    1.9215 C   0  0  2  0  0  0  0  0  0  0  0  0
    3.7361   -7.5121    1.2663 O   0  0  0  0  0  0  0  0  0  0  0  0
    2.8948   -8.2936    2.1541 C   0  0  2  0  0  0  0  0  0  0  0  0
    1.4958   -8.1613    2.6585 C   0  0  1  0  0  0  0  0  0  0  0  0
    0.5633   -7.8169    1.6465 O   0  0  0  0  0  0  0  0  0  0  0  0
    1.0313   -9.0873    3.6436 O   0  0  0  0  0  0  0  0  0  0  0  0
    0.7286  -10.3645    3.1466 C   0  0  0  0  0  0  0  0  0  0  0  0
    1.8666  -11.1307    2.9503 O   0  0  0  0  0  0  0  0  0  0  0  0
    2.3741  -11.6908    4.1581 C   0  0  0  0  0  0  0  0  0  0  0  0
    2.4943   -7.1252    3.1382 C   0  0  2  0  0  0  0  0  0  0  0  0
    3.6862   -7.0347    4.2367 C   0  0  1  0  0  0  0  0  0  0  0  0
    3.5318   -8.2454    5.1862 C   0  0  0  0  0  0  0  0  0  0  0  0
    5.0180   -7.2602    3.3360 C   0  0  2  0  0  0  0  0  0  0  0  0
    6.4157   -6.9065    3.9524 C   0  0  1  0  0  0  0  0  0  0  0  0
    7.0942   -8.1220    4.6279 C   0  0  0  0  0  0  0  0  0  0  0  0
    7.3175   -6.5794    2.9159 O   0  0  0  0  0  0  0  0  0  0  0  0
    6.3992   -5.6941    4.8969 C   0  0  0  0  0  0  0  0  0  0  0  0
    5.2307   -5.7640    5.8831 C   0  0  0  0  0  0  0  0  0  0  0  0
    3.8373   -5.6465    5.1732 C   0  0  1  0  0  0  0  0  0  0  0  0
    3.4484   -4.0277    4.8232 C   0  0  0  0  0  0  0  0  0  0  0  0
    4.3490   -3.0779    5.6760 C   0  0  0  0  0  0  0  0  0  0  0  0
    2.0796   -3.7509    5.5369 C   0  0  0  0  0  0  0  0  0  0  0  0
   -1.0943    0.5405    3.4853 H   0  0  0  0  0  0  0  0  0  0  0  0
   -0.9292    0.5469    1.7317 H   0  0  0  0  0  0  0  0  0  0  0  0
   -0.1439    1.7872    2.7027 H   0  0  0  0  0  0  0  0  0  0  0  0
    0.5184   -1.2361    2.9276 H   0  0  0  0  0  0  0  0  0  0  0  0
    3.4002    1.5563    1.6776 H   0  0  0  0  0  0  0  0  0  0  0  0
    2.9828    1.9833    3.3393 H   0  0  0  0  0  0  0  0  0  0  0  0
    1.8295    2.2215    2.0301 H   0  0  0  0  0  0  0  0  0  0  0  0
    4.5783   -2.8536    3.4295 H   0  0  0  0  0  0  0  0  0  0  0  0
    4.7208   -3.6530    1.4127 H   0  0  0  0  0  0  0  0  0  0  0  0
    1.8670   -3.3282    1.1259 H   0  0  0  0  0  0  0  0  0  0  0  0
    2.3451   -4.0445   -0.9780 H   0  0  0  0  0  0  0  0  0  0  0  0
    0.7705   -5.5392    4.0172 H   0  0  0  0  0  0  0  0  0  0  0  0
    0.2757   -5.3256    2.4388 H   0  0  0  0  0  0  0  0  0  0  0  0
    1.1022   -3.9943    3.1403 H   0  0  0  0  0  0  0  0  0  0  0  0
    4.5928   -5.1288    3.0730 H   0  0  0  0  0  0  0  0  0  0  0  0
    5.5204   -6.4073    1.2708 H   0  0  0  0  0  0  0  0  0  0  0  0
    3.4078   -9.1962    2.4676 H   0  0  0  0  0  0  0  0  0  0  0  0
    0.4551   -8.5434    1.0498 H   0  0  0  0  0  0  0  0  0  0  0  0
    0.0153  -10.8871    3.7914 H   0  0  0  0  0  0  0  0  0  0  0  0
    0.2412  -10.2792    2.1773 H   0  0  0  0  0  0  0  0  0  0  0  0
    3.2908  -12.2345    3.9032 H   0  0  0  0  0  0  0  0  0  0  0  0
    1.6676  -12.4278    4.5472 H   0  0  0  0  0  0  0  0  0  0  0  0
    2.5913  -10.9310    4.8897 H   0  0  0  0  0  0  0  0  0  0  0  0
    4.3739   -8.3842    5.8540 H   0  0  0  0  0  0  0  0  0  0  0  0
    3.4488   -9.1436    4.6114 H   0  0  0  0  0  0  0  0  0  0  0  0
    2.6493   -8.1108    5.8187 H   0  0  0  0  0  0  0  0  0  0  0  0
    5.1625   -8.3184    3.1349 H   0  0  0  0  0  0  0  0  0  0  0  0
    6.5341   -8.4948    5.4860 H   0  0  0  0  0  0  0  0  0  0  0  0
    8.0962   -7.8717    4.9901 H   0  0  0  0  0  0  0  0  0  0  0  0
    7.2093   -8.9495    3.9294 H   0  0  0  0  0  0  0  0  0  0  0  0
    8.1876   -6.5066    3.2776 H   0  0  0  0  0  0  0  0  0  0  0  0
    7.3449   -5.6261    5.4419 H   0  0  0  0  0  0  0  0  0  0  0  0
    6.3306   -4.7778    4.3127 H   0  0  0  0  0  0  0  0  0  0  0  0
    5.3089   -6.6942    6.4287 H   0  0  0  0  0  0  0  0  0  0  0  0
    5.3813   -5.0635    6.6954 H   0  0  0  0  0  0  0  0  0  0  0  0
    3.1575   -5.8595    5.9998 H   0  0  0  0  0  0  0  0  0  0  0  0
    4.3090   -3.2850    6.7491 H   0  0  0  0  0  0  0  0  0  0  0  0
    4.0237   -2.0385    5.5733 H   0  0  0  0  0  0  0  0  0  0  0  0
    5.3993   -3.0953    5.3839 H   0  0  0  0  0  0  0  0  0  0  0  0
    2.1930   -3.4446    6.5786 H   0  0  0  0  0  0  0  0  0  0  0  0
    1.4563   -4.6324    5.6424 H   0  0  0  0  0  0  0  0  0  0  0  0
    1.4847   -2.9724    5.0688 H   0  0  0  0  0  0  0  0  0  0  0  0
  1  2  1  0
  1 38  1  0
  1 39  1  0
  1 40  1  0
  2  3  2  3
  2 41  1  0
  3  4  1  0
  3  5  1  0
  4 42  1  0
  4 43  1  0
  4 44  1  0
  5  6  2  0
  5  7  1  0
  7  8  1  0
  8 35  1  0
  8  9  1  0
  8 45  1  1
  9 15  1  0
  9 10  1  0
  9 46  1  6
 10 11  1  0
 10 12  1  0
 10 47  1  1
 11 48  1  0
 12 13  1  0
 13 25  1  0
 13 14  1  1
 13 15  1  0
 14 49  1  0
 14 50  1  0
 14 51  1  0
 15 16  1  0
 15 52  1  1
 16 28  1  0
 16 17  1  0
 16 53  1  6
 17 18  1  0
 18 25  1  0
 18 19  1  0
 18 54  1  1
 19 20  1  6
 19 21  1  0
 25 19  1  1
 20 55  1  0
 21 22  1  0
 22 23  1  0
 22 56  1  0
 22 57  1  0
 23 24  1  0
 24 58  1  0
 24 59  1  0
 24 60  1  0
 25 26  1  0
 26 34  1  0
 26 27  1  1
 26 28  1  0
 27 61  1  0
 27 62  1  0
 27 63  1  0
 28 29  1  0
 28 64  1  6
 29 30  1  0
 29 31  1  6
 29 32  1  0
 30 65  1  0
 30 66  1  0
 30 67  1  0
 31 68  1  0
 32 33  1  0
 32 69  1  0
 32 70  1  0
 33 34  1  0
 33 71  1  0
 33 72  1  0
 34 35  1  0
 34 73  1  1
 35 36  1  0
 35 37  1  0
 36 74  1  0
 36 75  1  0
 36 76  1  0
 37 77  1  0
 37 78  1  0
 37 79  1  0
M  END
>  <i_m_ct_stereo_status>  (114) 
1

>  <s_m_source_file>  (114) 
/var/tmp/pbs.5076255.sched01/tmp8yzwbncg/40d_vk9m1l.sdf

>  <i_m_source_file_index>  (114) 
3

>  <i_lp_mmshare_version>  (114) 
48012

>  <i_f3d_flags>  (114) 
0

>  <s_epik_input>  (114) 
W0NIM10vW0NIXT1DKC9bQ0gzXSlDKD1PKU9bQ0BIXShbQ0BIXShbQ0BIXShPMSlbT0hdKVtDQEhdMltDQEBdMShbQ0BdMzQ1KVtDSDNdKUMoW0NIM10pKFtDSDNdKVtDQEhdNltDQF01KFtDSDNdKVtDQEhdKFtDQEBdKFtDSDNdKShbT0hdKVtDSDJdW0NIMl02KVtDQEhdMk9bQ0BASF0zW0NAQF00KFtPSF0pT1tDSDJdT1tDSDNd

>  <s_epik_cmdline>  (114) 
J2VwaWtfcHl0aG9uJywgJy1waHQnLCAnMi4wJywgJy1waCcsICc3LjAnLCAnLXRuJywgJzgnLCAnLW1hJywgJzIwMCcsICctaW1hZScsICc8aW5maWxlLm1hZT4nLCAnLW9tYWUnLCAnPG91dGZpbGUubWFlPic=

>  <r_lp_tautomer_probability>  (114) 
1

>  <r_epik_Ionization_Penalty>  (114) 
5.84453e-06

>  <r_epik_Ionization_Penalty_Charging>  (114) 
0

>  <r_epik_Ionization_Penalty_Neutral>  (114) 
5.84453e-06

>  <r_epik_State_Penalty>  (114) 
-0

>  <r_epik_Charging_Adjusted_Penalty>  (114) 
0

>  <i_epik_Tot_Q>  (114) 
0

>  <i_epik_Tot_abs_Q>  (114) 
0

>  <s_epik_Chemistry_Notes>  (114) 
This compound has an ester and may undergo hydrolysis at high or low pH. This compound contains an acetal/aminal-like group ( X-CH(R)-Y where X, Y are N, S, or O) that may be acid/base labile, releasing an aldehyde.

>  <s_lp_Force_Field>  (114) 
OPLS3e

>  <r_lp_Energy>  (114) 
243.127

>  <b_lp_Chiralities_Consistent>  (114) 
1

>  <s_lp_Variant>  (114) 
28:0-4

>  <s_i_glide_gridfile>  (114) 
pfpi4k_grid

>  <i_i_glide_lignum>  (114) 
3

>  <i_i_glide_rotatable_bonds>  (114) 
9

>  <r_i_docking_score>  (114) 
-2.07671

>  <r_i_glide_ligand_efficiency>  (114) 
-0.0561272

>  <r_i_glide_ligand_efficiency_sa>  (114) 
-0.187028

>  <r_i_glide_ligand_efficiency_ln>  (114) 
-0.450389

>  <r_i_glide_gscore>  (114) 
-2.07671

>  <r_i_glide_lipo>  (114) 
-0.0613175

>  <r_i_glide_hbond>  (114) 
-0.0219551

>  <r_i_glide_metal>  (114) 
-0

>  <r_i_glide_rewards>  (114) 
-0.109838

>  <r_i_glide_evdw>  (114) 
-24.57

>  <r_i_glide_ecoul>  (114) 
-6.57786

>  <r_i_glide_erotb>  (114) 
0.376457

>  <r_i_glide_esite>  (114) 
-0.0448712

>  <r_i_glide_emodel>  (114) 
-33.4583

>  <r_i_glide_energy>  (114) 
-31.1479

>  <r_i_glide_einternal>  (114) 
2.79761

>  <r_i_glide_intrahb_reward>  (114) 
-0

>  <i_i_glide_confnum>  (114) 
2

>  <i_i_glide_posenum>  (114) 
9

>  <r_i_glide_eff_state_penalty>  (114) 
0

>  <ligand_id>  (114) 
28

>  <original_smiles>  (114) 
CC=C(C)C(=O)OC1C2C(O)OC3(C)C2C2OC4C(O)(OCOC)C43C3(C)C2C(C)(O)CCC3C1(C)C

>  <smiles>  (114) 
[H]OC1([H])OC2(C([H])([H])[H])C3([H])C4([H])OC5([H])C(O[H])(OC([H])([H])OC([H])([H])[H])C52C2(C([H])([H])[H])C4([H])C(O[H])(C([H])([H])[H])C([H])([H])C([H])([H])C2([H])C(C([H])([H])[H])(C([H])([H])[H])C([H])(OC(=O)C(=C([H])C([H])([H])[H])C([H])([H])[H])C13[H]

$$$$
29:0:0
     RDKit          3D

 45 49  0  0  1  0  0  0  0  0999 V2000
    2.7411   -3.9221    5.5546 C   0  0  0  0  0  0  0  0  0  0  0  0
    3.1438   -5.2434    4.8882 C   0  0  2  0  0  0  0  0  0  0  0  0
    4.6225   -5.4407    4.6687 C   0  0  0  0  0  0  0  0  0  0  0  0
    5.4704   -5.0101    5.4502 O   0  0  0  0  0  0  0  0  0  0  0  0
    4.8475   -6.1946    3.5603 O   0  0  0  0  0  0  0  0  0  0  0  0
    3.6613   -6.4952    2.8885 C   0  0  2  0  0  0  0  0  0  0  0  0
    3.3468   -7.8850    2.9801 O   0  0  0  0  0  0  0  0  0  0  0  0
    3.7418   -5.9486    1.4070 C   0  0  1  0  0  0  0  0  0  0  0  0
    4.2790   -6.9949    0.3975 C   0  0  0  0  0  0  0  0  0  0  0  0
    2.3109   -5.5187    1.3424 C   0  0  0  0  0  0  0  0  0  0  0  0
    1.4623   -5.9223    0.5545 O   0  0  0  0  0  0  0  0  0  0  0  0
    2.2188   -4.6082    2.4795 C   0  0  0  0  0  0  0  0  0  0  0  0
    3.2294   -3.7722    2.1897 C   0  0  0  0  0  0  0  0  0  0  0  0
    4.3050   -4.4792    1.3504 C   0  0  2  0  0  0  0  0  0  0  0  0
    4.5260   -3.8713   -0.0831 C   0  0  2  0  0  0  0  0  0  0  0  0
    5.8540   -3.3537   -0.0812 O   0  0  0  0  0  0  0  0  0  0  0  0
    6.3951   -2.6591   -1.1348 C   0  0  0  0  0  0  0  0  0  0  0  0
    7.5556   -2.2606   -1.1680 O   0  0  0  0  0  0  0  0  0  0  0  0
    5.4700   -2.3322   -2.2729 C   0  0  2  0  0  0  0  0  0  0  0  0
    4.6670   -1.1536   -2.1265 O   0  0  0  0  0  0  0  0  0  0  0  0
    3.9955   -2.4228   -2.0056 C   0  0  1  0  0  0  0  0  0  0  0  0
    3.0763   -2.8623   -3.1533 C   0  0  0  0  0  0  0  0  0  0  0  0
    3.7037   -3.8443   -3.9365 O   0  0  0  0  0  0  0  0  0  0  0  0
    3.5761   -2.7567   -0.5885 C   0  0  1  0  0  0  0  0  0  0  0  0
    2.2065   -3.0797   -0.5052 O   0  0  0  0  0  0  0  0  0  0  0  0
    2.5022   -5.6539    3.5619 C   0  0  2  0  0  0  0  0  0  0  0  0
    1.3193   -6.4047    3.8521 O   0  0  0  0  0  0  0  0  0  0  0  0
    3.1458   -3.8671    6.5703 H   0  0  0  0  0  0  0  0  0  0  0  0
    1.6541   -3.8337    5.6437 H   0  0  0  0  0  0  0  0  0  0  0  0
    3.1236   -3.0552    5.0149 H   0  0  0  0  0  0  0  0  0  0  0  0
    2.8960   -6.0112    5.6023 H   0  0  0  0  0  0  0  0  0  0  0  0
    2.6010   -8.0545    2.4284 H   0  0  0  0  0  0  0  0  0  0  0  0
    5.3412   -7.1920    0.5555 H   0  0  0  0  0  0  0  0  0  0  0  0
    4.1611   -6.6843   -0.6370 H   0  0  0  0  0  0  0  0  0  0  0  0
    3.7678   -7.9524    0.4851 H   0  0  0  0  0  0  0  0  0  0  0  0
    5.2409   -4.4376    1.9101 H   0  0  0  0  0  0  0  0  0  0  0  0
    3.5794   -3.0071    2.8749 H   0  0  0  0  0  0  0  0  0  0  0  0
    4.5273   -4.6569   -0.8324 H   0  0  0  0  0  0  0  0  0  0  0  0
    5.8071   -2.5326   -3.2739 H   0  0  0  0  0  0  0  0  0  0  0  0
    2.1304   -3.3107   -2.8349 H   0  0  0  0  0  0  0  0  0  0  0  0
    2.8059   -2.0034   -3.7607 H   0  0  0  0  0  0  0  0  0  0  0  0
    3.5350   -4.7039   -3.5235 H   0  0  0  0  0  0  0  0  0  0  0  0
    3.7338   -1.8609    0.0228 H   0  0  0  0  0  0  0  0  0  0  0  0
    1.7155   -2.2703   -0.7174 H   0  0  0  0  0  0  0  0  0  0  0  0
    1.5744   -7.2039    4.2949 H   0  0  0  0  0  0  0  0  0  0  0  0
  1  2  1  0
  1 28  1  0
  1 29  1  0
  1 30  1  0
  2 26  1  0
  2  3  1  0
  2 31  1  1
  3  4  2  0
  3  5  1  0
  5  6  1  0
  6 26  1  0
  6  7  1  6
  6  8  1  0
  7 32  1  0
  8 14  1  0
  8  9  1  6
  8 10  1  0
  9 33  1  0
  9 34  1  0
  9 35  1  0
 10 11  2  0
 10 12  1  0
 12 13  2  0
 12 26  1  0
 13 37  1  0
 13 14  1  0
 14 15  1  0
 14 36  1  1
 15 24  1  0
 15 16  1  0
 15 38  1  6
 16 17  1  0
 17 18  2  0
 17 19  1  0
 19 21  1  0
 19 20  1  0
 19 39  1  6
 20 21  1  0
 21 22  1  6
 21 24  1  0
 22 23  1  0
 22 40  1  0
 22 41  1  0
 23 42  1  0
 24 25  1  0
 24 43  1  1
 25 44  1  0
 26 27  1  1
 27 45  1  0
M  END
>  <i_m_ct_stereo_status>  (115) 
1

>  <s_m_source_file>  (115) 
/var/tmp/pbs.5076255.sched01/tmp8yzwbncg/40d_vk9m1l.sdf

>  <i_m_source_file_index>  (115) 
4

>  <i_lp_mmshare_version>  (115) 
48012

>  <i_f3d_flags>  (115) 
0

>  <s_epik_input>  (115) 
Tz1DKE8xKVtDQEBIXShbQ0gzXSlbQ0BAXTIoW09IXSlbQ0BASF0oQyg9TylbQ0BAXTMoW0NIM10pW0NAQF0xMltPSF0pW0NIXT1DM1tDQEBIXShbQ0BASF00W09IXSlPQyg9TylbQ0BIXShPNSlbQ0BAXTQ1W0NIMl1bT0hd

>  <s_epik_cmdline>  (115) 
J2VwaWtfcHl0aG9uJywgJy1waHQnLCAnMi4wJywgJy1waCcsICc3LjAnLCAnLXRuJywgJzgnLCAnLW1hJywgJzIwMCcsICctaW1hZScsICc8aW5maWxlLm1hZT4nLCAnLW9tYWUnLCAnPG91dGZpbGUubWFlPic=

>  <r_lp_tautomer_probability>  (115) 
1

>  <r_epik_Ionization_Penalty>  (115) 
0.0042461

>  <r_epik_Ionization_Penalty_Charging>  (115) 
0

>  <r_epik_Ionization_Penalty_Neutral>  (115) 
0.0042461

>  <r_epik_State_Penalty>  (115) 
-0

>  <r_epik_Charging_Adjusted_Penalty>  (115) 
0

>  <i_epik_Tot_Q>  (115) 
0

>  <i_epik_Tot_abs_Q>  (115) 
0

>  <s_epik_Chemistry_Notes>  (115) 
This compound has an ester and may undergo hydrolysis at high or low pH.

>  <s_lp_Force_Field>  (115) 
OPLS3e

>  <r_lp_Energy>  (115) 
89.106

>  <b_lp_Chiralities_Consistent>  (115) 
1

>  <s_lp_Variant>  (115) 
29:0-1

>  <s_i_glide_gridfile>  (115) 
pfpi4k_grid

>  <i_i_glide_lignum>  (115) 
4

>  <i_i_glide_rotatable_bonds>  (115) 
6

>  <r_i_docking_score>  (115) 
-4.6576

>  <r_i_glide_ligand_efficiency>  (115) 
-0.172504

>  <r_i_glide_ligand_efficiency_sa>  (115) 
-0.517511

>  <r_i_glide_ligand_efficiency_ln>  (115) 
-1.08421

>  <r_i_glide_gscore>  (115) 
-4.6576

>  <r_i_glide_lipo>  (115) 
-0.333518

>  <r_i_glide_hbond>  (115) 
-0.302416

>  <r_i_glide_metal>  (115) 
-0

>  <r_i_glide_rewards>  (115) 
-0.802372

>  <r_i_glide_evdw>  (115) 
-21.2631

>  <r_i_glide_ecoul>  (115) 
-15.2772

>  <r_i_glide_erotb>  (115) 
0.186009

>  <r_i_glide_esite>  (115) 
-0.0505715

>  <r_i_glide_emodel>  (115) 
-43.2656

>  <r_i_glide_energy>  (115) 
-36.5403

>  <r_i_glide_einternal>  (115) 
10.1712

>  <r_i_glide_intrahb_reward>  (115) 
-0

>  <i_i_glide_confnum>  (115) 
4

>  <i_i_glide_posenum>  (115) 
1

>  <r_i_glide_eff_state_penalty>  (115) 
0

>  <ligand_id>  (115) 
29

>  <original_smiles>  (115) 
CC1C(=O)OC2(O)C3(C)C(=O)C(C=C3C3OC(=O)C4OC4(CO)C3O)C12O

>  <smiles>  (115) 
[H]OC([H])([H])C12OC1([H])C(=O)OC([H])(C1([H])C([H])=C3C(=O)C1(C([H])([H])[H])C1(O[H])OC(=O)C([H])(C([H])([H])[H])C31O[H])C2([H])O[H]

$$$$
29:0:1
     RDKit          3D

 45 49  0  0  1  0  0  0  0  0999 V2000
    2.7393   -3.9023    5.5559 C   0  0  0  0  0  0  0  0  0  0  0  0
    3.1312   -5.2266    4.8912 C   0  0  2  0  0  0  0  0  0  0  0  0
    4.6091   -5.4303    4.6687 C   0  0  0  0  0  0  0  0  0  0  0  0
    5.4596   -5.0116    5.4494 O   0  0  0  0  0  0  0  0  0  0  0  0
    4.8344   -6.1749    3.5602 O   0  0  0  0  0  0  0  0  0  0  0  0
    3.6462   -6.4837    2.8967 C   0  0  2  0  0  0  0  0  0  0  0  0
    3.3468   -7.8721    3.0013 O   0  0  0  0  0  0  0  0  0  0  0  0
    3.7239   -5.9462    1.4114 C   0  0  1  0  0  0  0  0  0  0  0  0
    4.2543   -6.9946    0.4013 C   0  0  0  0  0  0  0  0  0  0  0  0
    2.2977   -5.5113    1.3483 C   0  0  0  0  0  0  0  0  0  0  0  0
    1.4440   -5.8869    0.5430 O   0  0  0  0  0  0  0  0  0  0  0  0
    2.2136   -4.5976    2.4793 C   0  0  0  0  0  0  0  0  0  0  0  0
    3.2252   -3.7611    2.1857 C   0  0  0  0  0  0  0  0  0  0  0  0
    4.2941   -4.4786    1.3496 C   0  0  2  0  0  0  0  0  0  0  0  0
    4.5230   -3.8711   -0.0837 C   0  0  2  0  0  0  0  0  0  0  0  0
    5.8526   -3.3500   -0.0785 O   0  0  0  0  0  0  0  0  0  0  0  0
    6.3932   -2.6585   -1.1320 C   0  0  0  0  0  0  0  0  0  0  0  0
    7.5615   -2.2652   -1.1595 O   0  0  0  0  0  0  0  0  0  0  0  0
    5.4747   -2.3322   -2.2721 C   0  0  2  0  0  0  0  0  0  0  0  0
    4.6709   -1.1532   -2.1315 O   0  0  0  0  0  0  0  0  0  0  0  0
    3.9966   -2.4196   -2.0061 C   0  0  1  0  0  0  0  0  0  0  0  0
    3.0858   -2.8686   -3.1538 C   0  0  0  0  0  0  0  0  0  0  0  0
    3.7354   -3.8532   -3.9253 O   0  0  0  0  0  0  0  0  0  0  0  0
    3.5702   -2.7586   -0.5908 C   0  0  1  0  0  0  0  0  0  0  0  0
    2.2032   -3.0736   -0.5146 O   0  0  0  0  0  0  0  0  0  0  0  0
    2.4898   -5.6327    3.5690 C   0  0  2  0  0  0  0  0  0  0  0  0
    1.2975   -6.3603    3.8782 O   0  0  0  0  0  0  0  0  0  0  0  0
    3.1443   -3.8494    6.5713 H   0  0  0  0  0  0  0  0  0  0  0  0
    1.6532   -3.8069    5.6433 H   0  0  0  0  0  0  0  0  0  0  0  0
    3.1287   -3.0412    5.0130 H   0  0  0  0  0  0  0  0  0  0  0  0
    2.8790   -5.9937    5.6056 H   0  0  0  0  0  0  0  0  0  0  0  0
    3.9874   -8.3472    2.4968 H   0  0  0  0  0  0  0  0  0  0  0  0
    5.3155   -7.1967    0.5540 H   0  0  0  0  0  0  0  0  0  0  0  0
    4.1368   -6.6786   -0.6315 H   0  0  0  0  0  0  0  0  0  0  0  0
    3.7303   -7.9452    0.4846 H   0  0  0  0  0  0  0  0  0  0  0  0
    5.2311   -4.4397    1.9056 H   0  0  0  0  0  0  0  0  0  0  0  0
    3.5801   -2.9979    2.8678 H   0  0  0  0  0  0  0  0  0  0  0  0
    4.5307   -4.6566   -0.8335 H   0  0  0  0  0  0  0  0  0  0  0  0
    5.8137   -2.5376   -3.2739 H   0  0  0  0  0  0  0  0  0  0  0  0
    2.1411   -3.3261   -2.8395 H   0  0  0  0  0  0  0  0  0  0  0  0
    2.8114   -2.0157   -3.7681 H   0  0  0  0  0  0  0  0  0  0  0  0
    3.5580   -4.7102   -3.5213 H   0  0  0  0  0  0  0  0  0  0  0  0
    3.7324   -1.8595    0.0161 H   0  0  0  0  0  0  0  0  0  0  0  0
    1.7079   -2.2633   -0.7208 H   0  0  0  0  0  0  0  0  0  0  0  0
    1.5573   -7.2116    4.2086 H   0  0  0  0  0  0  0  0  0  0  0  0
  1  2  1  0
  1 28  1  0
  1 29  1  0
  1 30  1  0
  2 26  1  0
  2  3  1  0
  2 31  1  1
  3  4  2  0
  3  5  1  0
  5  6  1  0
  6 26  1  0
  6  7  1  6
  6  8  1  0
  7 32  1  0
  8 14  1  0
  8  9  1  6
  8 10  1  0
  9 33  1  0
  9 34  1  0
  9 35  1  0
 10 11  2  0
 10 12  1  0
 12 13  2  0
 12 26  1  0
 13 37  1  0
 13 14  1  0
 14 15  1  0
 14 36  1  1
 15 24  1  0
 15 16  1  0
 15 38  1  6
 16 17  1  0
 17 18  2  0
 17 19  1  0
 19 21  1  0
 19 20  1  0
 19 39  1  6
 20 21  1  0
 21 22  1  6
 21 24  1  0
 22 23  1  0
 22 40  1  0
 22 41  1  0
 23 42  1  0
 24 25  1  0
 24 43  1  1
 25 44  1  0
 26 27  1  1
 27 45  1  0
M  END
>  <i_m_ct_stereo_status>  (116) 
1

>  <s_m_source_file>  (116) 
/var/tmp/pbs.5076255.sched01/tmp8yzwbncg/40d_vk9m1l.sdf

>  <i_m_source_file_index>  (116) 
4

>  <i_lp_mmshare_version>  (116) 
48012

>  <i_f3d_flags>  (116) 
0

>  <s_epik_input>  (116) 
Tz1DKE8xKVtDQEBIXShbQ0gzXSlbQ0BAXTIoW09IXSlbQ0BASF0oQyg9TylbQ0BAXTMoW0NIM10pW0NAQF0xMltPSF0pW0NIXT1DM1tDQEBIXShbQ0BASF00W09IXSlPQyg9TylbQ0BIXShPNSlbQ0BAXTQ1W0NIMl1bT0hd

>  <s_epik_cmdline>  (116) 
J2VwaWtfcHl0aG9uJywgJy1waHQnLCAnMi4wJywgJy1waCcsICc3LjAnLCAnLXRuJywgJzgnLCAnLW1hJywgJzIwMCcsICctaW1hZScsICc8aW5maWxlLm1hZT4nLCAnLW9tYWUnLCAnPG91dGZpbGUubWFlPic=

>  <r_lp_tautomer_probability>  (116) 
1

>  <r_epik_Ionization_Penalty>  (116) 
0.0042461

>  <r_epik_Ionization_Penalty_Charging>  (116) 
0

>  <r_epik_Ionization_Penalty_Neutral>  (116) 
0.0042461

>  <r_epik_State_Penalty>  (116) 
-0

>  <r_epik_Charging_Adjusted_Penalty>  (116) 
0

>  <i_epik_Tot_Q>  (116) 
0

>  <i_epik_Tot_abs_Q>  (116) 
0

>  <s_epik_Chemistry_Notes>  (116) 
This compound has an ester and may undergo hydrolysis at high or low pH.

>  <s_lp_Force_Field>  (116) 
OPLS3e

>  <r_lp_Energy>  (116) 
89.106

>  <b_lp_Chiralities_Consistent>  (116) 
1

>  <s_lp_Variant>  (116) 
29:0-1

>  <s_i_glide_gridfile>  (116) 
pfpi4k_grid

>  <i_i_glide_lignum>  (116) 
4

>  <i_i_glide_rotatable_bonds>  (116) 
6

>  <r_i_docking_score>  (116) 
-4.65304

>  <r_i_glide_ligand_efficiency>  (116) 
-0.172335

>  <r_i_glide_ligand_efficiency_sa>  (116) 
-0.517005

>  <r_i_glide_ligand_efficiency_ln>  (116) 
-1.08315

>  <r_i_glide_gscore>  (116) 
-4.65304

>  <r_i_glide_lipo>  (116) 
-0.333329

>  <r_i_glide_hbond>  (116) 
-0.301026

>  <r_i_glide_metal>  (116) 
-0

>  <r_i_glide_rewards>  (116) 
-0.802372

>  <r_i_glide_evdw>  (116) 
-21.132

>  <r_i_glide_ecoul>  (116) 
-15.2976

>  <r_i_glide_erotb>  (116) 
0.186009

>  <r_i_glide_esite>  (116) 
-0.0510809

>  <r_i_glide_emodel>  (116) 
-43.9272

>  <r_i_glide_energy>  (116) 
-36.4297

>  <r_i_glide_einternal>  (116) 
8.51643

>  <r_i_glide_intrahb_reward>  (116) 
-0

>  <i_i_glide_confnum>  (116) 
4

>  <i_i_glide_posenum>  (116) 
39

>  <r_i_glide_eff_state_penalty>  (116) 
0

>  <ligand_id>  (116) 
29

>  <original_smiles>  (116) 
CC1C(=O)OC2(O)C3(C)C(=O)C(C=C3C3OC(=O)C4OC4(CO)C3O)C12O

>  <smiles>  (116) 
[H]OC([H])([H])C12OC1([H])C(=O)OC([H])(C1([H])C([H])=C3C(=O)C1(C([H])([H])[H])C1(O[H])OC(=O)C([H])(C([H])([H])[H])C31O[H])C2([H])O[H]

$$$$
29:0:2
     RDKit          3D

 45 49  0  0  1  0  0  0  0  0999 V2000
    2.3160   -3.8908    5.4638 C   0  0  0  0  0  0  0  0  0  0  0  0
    2.7531   -5.2217    4.8385 C   0  0  2  0  0  0  0  0  0  0  0  0
    4.2452   -5.4355    4.7327 C   0  0  0  0  0  0  0  0  0  0  0  0
    5.0293   -5.0181    5.5771 O   0  0  0  0  0  0  0  0  0  0  0  0
    4.5485   -6.1975    3.6588 O   0  0  0  0  0  0  0  0  0  0  0  0
    3.4126   -6.4984    2.9009 C   0  0  2  0  0  0  0  0  0  0  0  0
    3.0881   -7.8792    2.9766 O   0  0  0  0  0  0  0  0  0  0  0  0
    3.6269   -5.9621    1.4245 C   0  0  1  0  0  0  0  0  0  0  0  0
    4.2202   -7.0147    0.4556 C   0  0  0  0  0  0  0  0  0  0  0  0
    2.2125   -5.5187    1.2354 C   0  0  0  0  0  0  0  0  0  0  0  0
    1.4158   -5.8766    0.3837 O   0  0  0  0  0  0  0  0  0  0  0  0
    2.0506   -4.6072    2.3631 C   0  0  0  0  0  0  0  0  0  0  0  0
    3.0781   -3.7674    2.1471 C   0  0  0  0  0  0  0  0  0  0  0  0
    4.1989   -4.4975    1.4021 C   0  0  2  0  0  0  0  0  0  0  0  0
    4.5402   -3.8919   -0.0120 C   0  0  2  0  0  0  0  0  0  0  0  0
    5.8773   -3.3698    0.0895 O   0  0  0  0  0  0  0  0  0  0  0  0
    6.4971   -2.6589   -0.9081 C   0  0  0  0  0  0  0  0  0  0  0  0
    7.6541   -2.2577   -0.8413 O   0  0  0  0  0  0  0  0  0  0  0  0
    5.6686   -2.3676   -2.1189 C   0  0  2  0  0  0  0  0  0  0  0  0
    4.8735   -1.1853   -2.0479 O   0  0  0  0  0  0  0  0  0  0  0  0
    4.1694   -2.4373   -1.9717 C   0  0  1  0  0  0  0  0  0  0  0  0
    3.3482   -2.8667   -3.1931 C   0  0  0  0  0  0  0  0  0  0  0  0
    4.0444   -3.8617   -3.9239 O   0  0  0  0  0  0  0  0  0  0  0  0
    3.6307   -2.7757   -0.5947 C   0  0  1  0  0  0  0  0  0  0  0  0
    2.2419   -3.0484   -0.6115 O   0  0  0  0  0  0  0  0  0  0  0  0
    2.2157   -5.6349    3.4737 C   0  0  2  0  0  0  0  0  0  0  0  0
    0.9805   -6.3320    3.6757 O   0  0  0  0  0  0  0  0  0  0  0  0
    2.6371   -3.8340    6.5077 H   0  0  0  0  0  0  0  0  0  0  0  0
    1.2285   -3.7868    5.4660 H   0  0  0  0  0  0  0  0  0  0  0  0
    2.7527   -3.0352    4.9514 H   0  0  0  0  0  0  0  0  0  0  0  0
    2.4398   -5.9800    5.5411 H   0  0  0  0  0  0  0  0  0  0  0  0
    2.8856   -8.0937    3.8757 H   0  0  0  0  0  0  0  0  0  0  0  0
    5.2632   -7.2257    0.6936 H   0  0  0  0  0  0  0  0  0  0  0  0
    4.1839   -6.7090   -0.5890 H   0  0  0  0  0  0  0  0  0  0  0  0
    3.6847   -7.9595    0.5151 H   0  0  0  0  0  0  0  0  0  0  0  0
    5.0894   -4.4570    2.0270 H   0  0  0  0  0  0  0  0  0  0  0  0
    3.3764   -3.0028    2.8519 H   0  0  0  0  0  0  0  0  0  0  0  0
    4.5969   -4.6808   -0.7609 H   0  0  0  0  0  0  0  0  0  0  0  0
    6.1055   -2.5868   -3.0901 H   0  0  0  0  0  0  0  0  0  0  0  0
    2.3846   -3.3120   -2.9461 H   0  0  0  0  0  0  0  0  0  0  0  0
    3.1353   -2.0040   -3.8222 H   0  0  0  0  0  0  0  0  0  0  0  0
    3.8968   -4.6862   -3.4839 H   0  0  0  0  0  0  0  0  0  0  0  0
    3.7544   -1.8881    0.0174 H   0  0  0  0  0  0  0  0  0  0  0  0
    1.7600   -2.2038   -0.7234 H   0  0  0  0  0  0  0  0  0  0  0  0
    1.1436   -7.1622    4.0973 H   0  0  0  0  0  0  0  0  0  0  0  0
  1  2  1  0
  1 28  1  0
  1 29  1  0
  1 30  1  0
  2 26  1  0
  2  3  1  0
  2 31  1  1
  3  4  2  0
  3  5  1  0
  5  6  1  0
  6 26  1  0
  6  7  1  6
  6  8  1  0
  7 32  1  0
  8 14  1  0
  8  9  1  6
  8 10  1  0
  9 33  1  0
  9 34  1  0
  9 35  1  0
 10 11  2  0
 10 12  1  0
 12 13  2  0
 12 26  1  0
 13 37  1  0
 13 14  1  0
 14 15  1  0
 14 36  1  1
 15 24  1  0
 15 16  1  0
 15 38  1  6
 16 17  1  0
 17 18  2  0
 17 19  1  0
 19 21  1  0
 19 20  1  0
 19 39  1  6
 20 21  1  0
 21 22  1  6
 21 24  1  0
 22 23  1  0
 22 40  1  0
 22 41  1  0
 23 42  1  0
 24 25  1  0
 24 43  1  1
 25 44  1  0
 26 27  1  1
 27 45  1  0
M  END
>  <i_m_ct_stereo_status>  (117) 
1

>  <s_m_source_file>  (117) 
/var/tmp/pbs.5076255.sched01/tmp8yzwbncg/40d_vk9m1l.sdf

>  <i_m_source_file_index>  (117) 
4

>  <i_lp_mmshare_version>  (117) 
48012

>  <i_f3d_flags>  (117) 
0

>  <s_epik_input>  (117) 
Tz1DKE8xKVtDQEBIXShbQ0gzXSlbQ0BAXTIoW09IXSlbQ0BASF0oQyg9TylbQ0BAXTMoW0NIM10pW0NAQF0xMltPSF0pW0NIXT1DM1tDQEBIXShbQ0BASF00W09IXSlPQyg9TylbQ0BIXShPNSlbQ0BAXTQ1W0NIMl1bT0hd

>  <s_epik_cmdline>  (117) 
J2VwaWtfcHl0aG9uJywgJy1waHQnLCAnMi4wJywgJy1waCcsICc3LjAnLCAnLXRuJywgJzgnLCAnLW1hJywgJzIwMCcsICctaW1hZScsICc8aW5maWxlLm1hZT4nLCAnLW9tYWUnLCAnPG91dGZpbGUubWFlPic=

>  <r_lp_tautomer_probability>  (117) 
1

>  <r_epik_Ionization_Penalty>  (117) 
0.0042461

>  <r_epik_Ionization_Penalty_Charging>  (117) 
0

>  <r_epik_Ionization_Penalty_Neutral>  (117) 
0.0042461

>  <r_epik_State_Penalty>  (117) 
-0

>  <r_epik_Charging_Adjusted_Penalty>  (117) 
0

>  <i_epik_Tot_Q>  (117) 
0

>  <i_epik_Tot_abs_Q>  (117) 
0

>  <s_epik_Chemistry_Notes>  (117) 
This compound has an ester and may undergo hydrolysis at high or low pH.

>  <s_lp_Force_Field>  (117) 
OPLS3e

>  <r_lp_Energy>  (117) 
89.106

>  <b_lp_Chiralities_Consistent>  (117) 
1

>  <s_lp_Variant>  (117) 
29:0-1

>  <s_i_glide_gridfile>  (117) 
pfpi4k_grid

>  <i_i_glide_lignum>  (117) 
4

>  <i_i_glide_rotatable_bonds>  (117) 
6

>  <r_i_docking_score>  (117) 
-4.57824

>  <r_i_glide_ligand_efficiency>  (117) 
-0.169564

>  <r_i_glide_ligand_efficiency_sa>  (117) 
-0.508693

>  <r_i_glide_ligand_efficiency_ln>  (117) 
-1.06574

>  <r_i_glide_gscore>  (117) 
-4.57824

>  <r_i_glide_lipo>  (117) 
-0.335963

>  <r_i_glide_hbond>  (117) 
-0.299911

>  <r_i_glide_metal>  (117) 
-0

>  <r_i_glide_rewards>  (117) 
-0.802372

>  <r_i_glide_evdw>  (117) 
-21.5156

>  <r_i_glide_ecoul>  (117) 
-14.6289

>  <r_i_glide_erotb>  (117) 
0.186009

>  <r_i_glide_esite>  (117) 
-0.0558846

>  <r_i_glide_emodel>  (117) 
-43.7075

>  <r_i_glide_energy>  (117) 
-36.1445

>  <r_i_glide_einternal>  (117) 
8.4157

>  <r_i_glide_intrahb_reward>  (117) 
-0

>  <i_i_glide_confnum>  (117) 
5

>  <i_i_glide_posenum>  (117) 
10

>  <r_i_glide_eff_state_penalty>  (117) 
0

>  <ligand_id>  (117) 
29

>  <original_smiles>  (117) 
CC1C(=O)OC2(O)C3(C)C(=O)C(C=C3C3OC(=O)C4OC4(CO)C3O)C12O

>  <smiles>  (117) 
[H]OC([H])([H])C12OC1([H])C(=O)OC([H])(C1([H])C([H])=C3C(=O)C1(C([H])([H])[H])C1(O[H])OC(=O)C([H])(C([H])([H])[H])C31O[H])C2([H])O[H]

$$$$
29:1:0
     RDKit          3D

 45 49  0  0  1  0  0  0  0  0999 V2000
    3.5094   -3.3601   -3.7398 C   0  0  0  0  0  0  0  0  0  0  0  0
    3.1694   -2.3720   -2.6276 C   0  0  2  0  0  0  0  0  0  0  0  0
    3.9436   -1.0815   -2.7239 C   0  0  0  0  0  0  0  0  0  0  0  0
    4.1346   -0.5005   -3.7884 O   0  0  0  0  0  0  0  0  0  0  0  0
    4.3743   -0.6835   -1.5174 O   0  0  0  0  0  0  0  0  0  0  0  0
    3.9417   -1.5287   -0.4763 C   0  0  2  0  0  0  0  0  0  0  0  0
    3.0083   -0.8704    0.3720 O   0  0  0  0  0  0  0  0  0  0  0  0
    5.1824   -2.0653    0.3244 C   0  0  2  0  0  0  0  0  0  0  0  0
    6.2387   -1.0021    0.6330 C   0  0  0  0  0  0  0  0  0  0  0  0
    5.5768   -3.1018   -0.6789 C   0  0  0  0  0  0  0  0  0  0  0  0
    6.6420   -3.2048   -1.2916 O   0  0  0  0  0  0  0  0  0  0  0  0
    4.3658   -3.8784   -0.7605 C   0  0  0  0  0  0  0  0  0  0  0  0
    4.2513   -4.2384    0.5399 C   0  0  0  0  0  0  0  0  0  0  0  0
    4.7978   -3.1082    1.4296 C   0  0  2  0  0  0  0  0  0  0  0  0
    3.8585   -2.6313    2.5836 C   0  0  2  0  0  0  0  0  0  0  0  0
    4.2582   -1.3157    3.0040 O   0  0  0  0  0  0  0  0  0  0  0  0
    3.6486   -0.6407    4.0383 C   0  0  0  0  0  0  0  0  0  0  0  0
    3.8889    0.5351    4.3103 O   0  0  0  0  0  0  0  0  0  0  0  0
    2.6983   -1.4479    4.8780 C   0  0  2  0  0  0  0  0  0  0  0  0
    3.3095   -2.2065    5.9241 O   0  0  0  0  0  0  0  0  0  0  0  0
    2.8144   -2.9527    4.8119 C   0  0  1  0  0  0  0  0  0  0  0  0
    1.5600   -3.7853    5.0232 C   0  0  0  0  0  0  0  0  0  0  0  0
    0.7579   -3.7335    3.8615 O   0  0  0  0  0  0  0  0  0  0  0  0
    3.8627   -3.5152    3.8588 C   0  0  1  0  0  0  0  0  0  0  0  0
    3.7132   -4.8958    3.5973 O   0  0  0  0  0  0  0  0  0  0  0  0
    3.3368   -2.8064   -1.1595 C   0  0  2  0  0  0  0  0  0  0  0  0
    2.0496   -3.1354   -0.6756 O   0  0  0  0  0  0  0  0  0  0  0  0
    3.2805   -2.9190   -4.7180 H   0  0  0  0  0  0  0  0  0  0  0  0
    2.9004   -4.2570   -3.6681 H   0  0  0  0  0  0  0  0  0  0  0  0
    4.5764   -3.6283   -3.7384 H   0  0  0  0  0  0  0  0  0  0  0  0
    2.1441   -2.0714   -2.7897 H   0  0  0  0  0  0  0  0  0  0  0  0
    2.1543   -0.8758   -0.0449 H   0  0  0  0  0  0  0  0  0  0  0  0
    5.8272   -0.1870    1.2198 H   0  0  0  0  0  0  0  0  0  0  0  0
    6.6151   -0.5634   -0.2858 H   0  0  0  0  0  0  0  0  0  0  0  0
    7.0872   -1.4184    1.1738 H   0  0  0  0  0  0  0  0  0  0  0  0
    5.7184   -3.4594    1.8982 H   0  0  0  0  0  0  0  0  0  0  0  0
    3.3258   -4.6595    0.9106 H   0  0  0  0  0  0  0  0  0  0  0  0
    2.8294   -2.5829    2.2074 H   0  0  0  0  0  0  0  0  0  0  0  0
    1.7453   -0.9986    5.1385 H   0  0  0  0  0  0  0  0  0  0  0  0
    1.8033   -4.8172    5.2780 H   0  0  0  0  0  0  0  0  0  0  0  0
    0.9816   -3.3828    5.8584 H   0  0  0  0  0  0  0  0  0  0  0  0
    0.5489   -2.8289    3.6738 H   0  0  0  0  0  0  0  0  0  0  0  0
    4.8222   -3.3999    4.3572 H   0  0  0  0  0  0  0  0  0  0  0  0
    2.8448   -5.0477    3.2525 H   0  0  0  0  0  0  0  0  0  0  0  0
    1.4792   -2.3872   -0.8548 H   0  0  0  0  0  0  0  0  0  0  0  0
  1  2  1  0
  1 28  1  0
  1 29  1  0
  1 30  1  0
  2 26  1  0
  2  3  1  0
  2 31  1  1
  3  4  2  0
  3  5  1  0
  5  6  1  0
  6 26  1  0
  6  7  1  1
  6  8  1  0
  7 32  1  0
  8 14  1  0
  8  9  1  1
  8 10  1  0
  9 33  1  0
  9 34  1  0
  9 35  1  0
 10 11  2  0
 10 12  1  0
 12 13  2  0
 12 26  1  0
 13 37  1  0
 13 14  1  0
 14 15  1  0
 14 36  1  1
 15 24  1  0
 15 16  1  0
 15 38  1  6
 16 17  1  0
 17 18  2  0
 17 19  1  0
 19 21  1  0
 19 20  1  0
 19 39  1  1
 20 21  1  0
 21 22  1  1
 21 24  1  0
 22 23  1  0
 22 40  1  0
 22 41  1  0
 23 42  1  0
 24 25  1  0
 24 43  1  1
 25 44  1  0
 26 27  1  1
 27 45  1  0
M  END
>  <i_m_ct_stereo_status>  (118) 
1

>  <s_m_source_file>  (118) 
/var/tmp/pbs.5076255.sched01/tmp8yzwbncg/40d_vk9m1l.sdf

>  <i_m_source_file_index>  (118) 
5

>  <i_lp_mmshare_version>  (118) 
48012

>  <i_f3d_flags>  (118) 
0

>  <s_epik_input>  (118) 
Tz1DKE8xKVtDQEBIXShbQ0gzXSlbQ0BAXTIoW09IXSlbQ0BASF0oQyg9TylbQ0BAXTMoW0NIM10pW0NAQF0xMltPSF0pW0NIXT1DM1tDQEBIXShbQ0BASF00W09IXSlPQyg9TylbQ0BIXShPNSlbQ0BAXTQ1W0NIMl1bT0hd

>  <s_epik_cmdline>  (118) 
J2VwaWtfcHl0aG9uJywgJy1waHQnLCAnMi4wJywgJy1waCcsICc3LjAnLCAnLXRuJywgJzgnLCAnLW1hJywgJzIwMCcsICctaW1hZScsICc8aW5maWxlLm1hZT4nLCAnLW9tYWUnLCAnPG91dGZpbGUubWFlPic=

>  <r_lp_tautomer_probability>  (118) 
1

>  <r_epik_Ionization_Penalty>  (118) 
0.0042461

>  <r_epik_Ionization_Penalty_Charging>  (118) 
0

>  <r_epik_Ionization_Penalty_Neutral>  (118) 
0.0042461

>  <r_epik_State_Penalty>  (118) 
-0

>  <r_epik_Charging_Adjusted_Penalty>  (118) 
0

>  <i_epik_Tot_Q>  (118) 
0

>  <i_epik_Tot_abs_Q>  (118) 
0

>  <s_epik_Chemistry_Notes>  (118) 
This compound has an ester and may undergo hydrolysis at high or low pH.

>  <s_lp_Force_Field>  (118) 
OPLS3e

>  <r_lp_Energy>  (118) 
93.172

>  <b_lp_Chiralities_Consistent>  (118) 
1

>  <s_lp_Variant>  (118) 
29:0-2

>  <s_i_glide_gridfile>  (118) 
pfpi4k_grid

>  <i_i_glide_lignum>  (118) 
5

>  <i_i_glide_rotatable_bonds>  (118) 
6

>  <r_i_docking_score>  (118) 
-3.64891

>  <r_i_glide_ligand_efficiency>  (118) 
-0.135145

>  <r_i_glide_ligand_efficiency_sa>  (118) 
-0.405435

>  <r_i_glide_ligand_efficiency_ln>  (118) 
-0.849407

>  <r_i_glide_gscore>  (118) 
-3.64891

>  <r_i_glide_lipo>  (118) 
-0.349751

>  <r_i_glide_hbond>  (118) 
0

>  <r_i_glide_metal>  (118) 
-0

>  <r_i_glide_rewards>  (118) 
-0.860566

>  <r_i_glide_evdw>  (118) 
-18.6354

>  <r_i_glide_ecoul>  (118) 
-10.8342

>  <r_i_glide_erotb>  (118) 
0.186009

>  <r_i_glide_esite>  (118) 
-0.0676984

>  <r_i_glide_emodel>  (118) 
-37.233

>  <r_i_glide_energy>  (118) 
-29.4697

>  <r_i_glide_einternal>  (118) 
0.753715

>  <r_i_glide_intrahb_reward>  (118) 
-0

>  <i_i_glide_confnum>  (118) 
1

>  <i_i_glide_posenum>  (118) 
15

>  <r_i_glide_eff_state_penalty>  (118) 
0

>  <ligand_id>  (118) 
29

>  <original_smiles>  (118) 
CC1C(=O)OC2(O)C3(C)C(=O)C(C=C3C3OC(=O)C4OC4(CO)C3O)C12O

>  <smiles>  (118) 
[H]OC([H])([H])C12OC1([H])C(=O)OC([H])(C1([H])C([H])=C3C(=O)C1(C([H])([H])[H])C1(O[H])OC(=O)C([H])(C([H])([H])[H])C31O[H])C2([H])O[H]

$$$$
29:1:1
     RDKit          3D

 45 49  0  0  1  0  0  0  0  0999 V2000
    0.6281   -8.0514    2.7391 C   0  0  0  0  0  0  0  0  0  0  0  0
    1.7362   -7.7681    1.7237 C   0  0  2  0  0  0  0  0  0  0  0  0
    3.0057   -8.5432    1.9683 C   0  0  0  0  0  0  0  0  0  0  0  0
    3.0141   -9.7291    2.2751 O   0  0  0  0  0  0  0  0  0  0  0  0
    4.0914   -7.7816    1.7554 O   0  0  0  0  0  0  0  0  0  0  0  0
    3.7670   -6.4766    1.3619 C   0  0  2  0  0  0  0  0  0  0  0  0
    4.2029   -6.2362    0.0365 O   0  0  0  0  0  0  0  0  0  0  0  0
    4.3674   -5.4426    2.3932 C   0  0  2  0  0  0  0  0  0  0  0  0
    5.8019   -5.7377    2.8587 C   0  0  0  0  0  0  0  0  0  0  0  0
    3.3039   -5.6297    3.4357 C   0  0  0  0  0  0  0  0  0  0  0  0
    3.4346   -5.9506    4.6184 O   0  0  0  0  0  0  0  0  0  0  0  0
    2.1207   -5.3236    2.6737 C   0  0  0  0  0  0  0  0  0  0  0  0
    2.4317   -4.0666    2.2944 C   0  0  0  0  0  0  0  0  0  0  0  0
    3.9522   -3.9607    2.0822 C   0  0  2  0  0  0  0  0  0  0  0  0
    4.4093   -3.3579    0.7114 C   0  0  2  0  0  0  0  0  0  0  0  0
    5.8264   -3.5818    0.5573 O   0  0  0  0  0  0  0  0  0  0  0  0
    6.5484   -3.0972   -0.5123 C   0  0  0  0  0  0  0  0  0  0  0  0
    7.7417   -3.3382   -0.7075 O   0  0  0  0  0  0  0  0  0  0  0  0
    5.8031   -2.1668   -1.4269 C   0  0  2  0  0  0  0  0  0  0  0  0
    5.8064   -0.8033   -1.0164 O   0  0  0  0  0  0  0  0  0  0  0  0
    4.5694   -1.5083   -0.8983 C   0  0  1  0  0  0  0  0  0  0  0  0
    3.4723   -1.1679   -1.9047 C   0  0  0  0  0  0  0  0  0  0  0  0
    3.0297   -2.3573   -2.5377 O   0  0  0  0  0  0  0  0  0  0  0  0
    4.1628   -1.8411    0.5244 C   0  0  1  0  0  0  0  0  0  0  0  0
    2.8893   -1.3615    0.9001 O   0  0  0  0  0  0  0  0  0  0  0  0
    2.2062   -6.3262    1.5034 C   0  0  2  0  0  0  0  0  0  0  0  0
    1.5482   -5.8518    0.3205 O   0  0  0  0  0  0  0  0  0  0  0  0
    0.3473   -9.1072    2.6965 H   0  0  0  0  0  0  0  0  0  0  0  0
   -0.2749   -7.4812    2.5161 H   0  0  0  0  0  0  0  0  0  0  0  0
    0.9455   -7.8436    3.7635 H   0  0  0  0  0  0  0  0  0  0  0  0
    1.3880   -8.1529    0.7777 H   0  0  0  0  0  0  0  0  0  0  0  0
    3.6892   -6.7521   -0.5611 H   0  0  0  0  0  0  0  0  0  0  0  0
    6.4932   -5.7609    2.0220 H   0  0  0  0  0  0  0  0  0  0  0  0
    5.8732   -6.7010    3.3608 H   0  0  0  0  0  0  0  0  0  0  0  0
    6.1602   -4.9953    3.5683 H   0  0  0  0  0  0  0  0  0  0  0  0
    4.3535   -3.3103    2.8600 H   0  0  0  0  0  0  0  0  0  0  0  0
    1.8478   -3.5962    1.5219 H   0  0  0  0  0  0  0  0  0  0  0  0
    3.8866   -3.8629   -0.1033 H   0  0  0  0  0  0  0  0  0  0  0  0
    5.9113   -2.3216   -2.5026 H   0  0  0  0  0  0  0  0  0  0  0  0
    2.6310   -0.6500   -1.4573 H   0  0  0  0  0  0  0  0  0  0  0  0
    3.8821   -0.4896   -2.6657 H   0  0  0  0  0  0  0  0  0  0  0  0
    2.3455   -2.7137   -1.9890 H   0  0  0  0  0  0  0  0  0  0  0  0
    4.8616   -1.3101    1.1692 H   0  0  0  0  0  0  0  0  0  0  0  0
    2.2782   -1.4043    0.1730 H   0  0  0  0  0  0  0  0  0  0  0  0
    2.1966   -5.6940   -0.3548 H   0  0  0  0  0  0  0  0  0  0  0  0
  1  2  1  0
  1 28  1  0
  1 29  1  0
  1 30  1  0
  2 26  1  0
  2  3  1  0
  2 31  1  6
  3  4  2  0
  3  5  1  0
  5  6  1  0
  6 26  1  0
  6  7  1  6
  6  8  1  0
  7 32  1  0
  8 14  1  0
  8  9  1  1
  8 10  1  0
  9 33  1  0
  9 34  1  0
  9 35  1  0
 10 11  2  0
 10 12  1  0
 12 13  2  0
 12 26  1  0
 13 37  1  0
 13 14  1  0
 14 15  1  0
 14 36  1  1
 15 24  1  0
 15 16  1  0
 15 38  1  6
 16 17  1  0
 17 18  2  0
 17 19  1  0
 19 21  1  0
 19 20  1  0
 19 39  1  6
 20 21  1  0
 21 22  1  6
 21 24  1  0
 22 23  1  0
 22 40  1  0
 22 41  1  0
 23 42  1  0
 24 25  1  0
 24 43  1  1
 25 44  1  0
 26 27  1  6
 27 45  1  0
M  END
>  <i_m_ct_stereo_status>  (119) 
1

>  <s_m_source_file>  (119) 
/var/tmp/pbs.5076255.sched01/tmp8yzwbncg/40d_vk9m1l.sdf

>  <i_m_source_file_index>  (119) 
5

>  <i_lp_mmshare_version>  (119) 
48012

>  <i_f3d_flags>  (119) 
0

>  <s_epik_input>  (119) 
Tz1DKE8xKVtDQEBIXShbQ0gzXSlbQ0BAXTIoW09IXSlbQ0BASF0oQyg9TylbQ0BAXTMoW0NIM10pW0NAQF0xMltPSF0pW0NIXT1DM1tDQEBIXShbQ0BASF00W09IXSlPQyg9TylbQ0BIXShPNSlbQ0BAXTQ1W0NIMl1bT0hd

>  <s_epik_cmdline>  (119) 
J2VwaWtfcHl0aG9uJywgJy1waHQnLCAnMi4wJywgJy1waCcsICc3LjAnLCAnLXRuJywgJzgnLCAnLW1hJywgJzIwMCcsICctaW1hZScsICc8aW5maWxlLm1hZT4nLCAnLW9tYWUnLCAnPG91dGZpbGUubWFlPic=

>  <r_lp_tautomer_probability>  (119) 
1

>  <r_epik_Ionization_Penalty>  (119) 
0.0042461

>  <r_epik_Ionization_Penalty_Charging>  (119) 
0

>  <r_epik_Ionization_Penalty_Neutral>  (119) 
0.0042461

>  <r_epik_State_Penalty>  (119) 
-0

>  <r_epik_Charging_Adjusted_Penalty>  (119) 
0

>  <i_epik_Tot_Q>  (119) 
0

>  <i_epik_Tot_abs_Q>  (119) 
0

>  <s_epik_Chemistry_Notes>  (119) 
This compound has an ester and may undergo hydrolysis at high or low pH.

>  <s_lp_Force_Field>  (119) 
OPLS3e

>  <r_lp_Energy>  (119) 
93.172

>  <b_lp_Chiralities_Consistent>  (119) 
1

>  <s_lp_Variant>  (119) 
29:0-2

>  <s_i_glide_gridfile>  (119) 
pfpi4k_grid

>  <i_i_glide_lignum>  (119) 
5

>  <i_i_glide_rotatable_bonds>  (119) 
6

>  <r_i_docking_score>  (119) 
-3.44719

>  <r_i_glide_ligand_efficiency>  (119) 
-0.127674

>  <r_i_glide_ligand_efficiency_sa>  (119) 
-0.383021

>  <r_i_glide_ligand_efficiency_ln>  (119) 
-0.802449

>  <r_i_glide_gscore>  (119) 
-3.44719

>  <r_i_glide_lipo>  (119) 
-0.0373492

>  <r_i_glide_hbond>  (119) 
-0.206493

>  <r_i_glide_metal>  (119) 
-0

>  <r_i_glide_rewards>  (119) 
-0.981979

>  <r_i_glide_evdw>  (119) 
-22.1159

>  <r_i_glide_ecoul>  (119) 
-9.09565

>  <r_i_glide_erotb>  (119) 
0.265727

>  <r_i_glide_esite>  (119) 
-0.0169519

>  <r_i_glide_emodel>  (119) 
-37.2716

>  <r_i_glide_energy>  (119) 
-31.2116

>  <r_i_glide_einternal>  (119) 
2.46832

>  <r_i_glide_intrahb_reward>  (119) 
-0

>  <i_i_glide_confnum>  (119) 
1

>  <i_i_glide_posenum>  (119) 
11

>  <r_i_glide_eff_state_penalty>  (119) 
0

>  <ligand_id>  (119) 
29

>  <original_smiles>  (119) 
CC1C(=O)OC2(O)C3(C)C(=O)C(C=C3C3OC(=O)C4OC4(CO)C3O)C12O

>  <smiles>  (119) 
[H]OC([H])([H])C12OC1([H])C(=O)OC([H])(C1([H])C([H])=C3C(=O)C1(C([H])([H])[H])C1(O[H])OC(=O)C([H])(C([H])([H])[H])C31O[H])C2([H])O[H]

$$$$
29:1:2
     RDKit          3D

 45 49  0  0  1  0  0  0  0  0999 V2000
    3.6246   -3.2504   -3.9227 C   0  0  0  0  0  0  0  0  0  0  0  0
    3.2120   -2.3960   -2.7243 C   0  0  2  0  0  0  0  0  0  0  0  0
    3.8609   -1.0261   -2.7306 C   0  0  0  0  0  0  0  0  0  0  0  0
    3.9487   -0.3393   -3.7442 O   0  0  0  0  0  0  0  0  0  0  0  0
    4.2972   -0.6931   -1.5072 O   0  0  0  0  0  0  0  0  0  0  0  0
    3.9625   -1.6469   -0.5362 C   0  0  2  0  0  0  0  0  0  0  0  0
    3.0160   -1.1207    0.3743 O   0  0  0  0  0  0  0  0  0  0  0  0
    5.2734   -2.1227    0.1970 C   0  0  2  0  0  0  0  0  0  0  0  0
    6.2384   -0.9851    0.5731 C   0  0  0  0  0  0  0  0  0  0  0  0
    5.7383   -3.0253   -0.8998 C   0  0  0  0  0  0  0  0  0  0  0  0
    6.7898   -2.9737   -1.5331 O   0  0  0  0  0  0  0  0  0  0  0  0
    4.6020   -3.9125   -1.0199 C   0  0  0  0  0  0  0  0  0  0  0  0
    4.5676   -4.3875    0.2408 C   0  0  0  0  0  0  0  0  0  0  0  0
    5.0292   -3.2897    1.2192 C   0  0  2  0  0  0  0  0  0  0  0  0
    4.0814   -3.0058    2.4268 C   0  0  2  0  0  0  0  0  0  0  0  0
    4.4007   -1.7242    2.9889 O   0  0  0  0  0  0  0  0  0  0  0  0
    3.7744   -1.2101    4.0966 C   0  0  0  0  0  0  0  0  0  0  0  0
    3.9447   -0.0620    4.5023 O   0  0  0  0  0  0  0  0  0  0  0  0
    2.8881   -2.1666    4.8523 C   0  0  2  0  0  0  0  0  0  0  0  0
    3.5625   -3.0012    5.8017 O   0  0  0  0  0  0  0  0  0  0  0  0
    3.0883   -3.6423    4.6103 C   0  0  1  0  0  0  0  0  0  0  0  0
    1.8986   -4.5822    4.7479 C   0  0  0  0  0  0  0  0  0  0  0  0
    1.1695   -4.6216    3.5394 O   0  0  0  0  0  0  0  0  0  0  0  0
    4.1616   -4.0233    3.5962 C   0  0  1  0  0  0  0  0  0  0  0  0
    4.0859   -5.3674    3.1792 O   0  0  0  0  0  0  0  0  0  0  0  0
    3.4520   -2.9220   -1.2987 C   0  0  2  0  0  0  0  0  0  0  0  0
    2.2090   -3.4216   -0.8268 O   0  0  0  0  0  0  0  0  0  0  0  0
    3.3228   -2.7597   -4.8485 H   0  0  0  0  0  0  0  0  0  0  0  0
    3.1354   -4.2228   -3.9128 H   0  0  0  0  0  0  0  0  0  0  0  0
    4.7067   -3.3880   -3.9548 H   0  0  0  0  0  0  0  0  0  0  0  0
    2.1548   -2.1736   -2.8468 H   0  0  0  0  0  0  0  0  0  0  0  0
    2.1653   -1.0456   -0.0596 H   0  0  0  0  0  0  0  0  0  0  0  0
    5.7692   -0.2658    1.2387 H   0  0  0  0  0  0  0  0  0  0  0  0
    6.5642   -0.4295   -0.3039 H   0  0  0  0  0  0  0  0  0  0  0  0
    7.1358   -1.3625    1.0641 H   0  0  0  0  0  0  0  0  0  0  0  0
    5.9946   -3.5758    1.6390 H   0  0  0  0  0  0  0  0  0  0  0  0
    3.7042   -4.9283    0.6007 H   0  0  0  0  0  0  0  0  0  0  0  0
    3.0469   -2.9852    2.0742 H   0  0  0  0  0  0  0  0  0  0  0  0
    1.9124   -1.8116    5.1755 H   0  0  0  0  0  0  0  0  0  0  0  0
    2.2145   -5.5823    5.0365 H   0  0  0  0  0  0  0  0  0  0  0  0
    1.2216   -4.2186    5.5250 H   0  0  0  0  0  0  0  0  0  0  0  0
    1.7469   -5.0033    2.8939 H   0  0  0  0  0  0  0  0  0  0  0  0
    5.1211   -3.9082    4.1031 H   0  0  0  0  0  0  0  0  0  0  0  0
    4.8987   -5.5827    2.7488 H   0  0  0  0  0  0  0  0  0  0  0  0
    1.5536   -2.7735   -1.0601 H   0  0  0  0  0  0  0  0  0  0  0  0
  1  2  1  0
  1 28  1  0
  1 29  1  0
  1 30  1  0
  2 26  1  0
  2  3  1  0
  2 31  1  6
  3  4  2  0
  3  5  1  0
  5  6  1  0
  6 26  1  0
  6  7  1  1
  6  8  1  0
  7 32  1  0
  8 14  1  0
  8  9  1  1
  8 10  1  0
  9 33  1  0
  9 34  1  0
  9 35  1  0
 10 11  2  0
 10 12  1  0
 12 13  2  0
 12 26  1  0
 13 37  1  0
 13 14  1  0
 14 15  1  0
 14 36  1  1
 15 24  1  0
 15 16  1  0
 15 38  1  6
 16 17  1  0
 17 18  2  0
 17 19  1  0
 19 21  1  0
 19 20  1  0
 19 39  1  1
 20 21  1  0
 21 22  1  1
 21 24  1  0
 22 23  1  0
 22 40  1  0
 22 41  1  0
 23 42  1  0
 24 25  1  0
 24 43  1  1
 25 44  1  0
 26 27  1  1
 27 45  1  0
M  END
>  <i_m_ct_stereo_status>  (120) 
1

>  <s_m_source_file>  (120) 
/var/tmp/pbs.5076255.sched01/tmp8yzwbncg/40d_vk9m1l.sdf

>  <i_m_source_file_index>  (120) 
5

>  <i_lp_mmshare_version>  (120) 
48012

>  <i_f3d_flags>  (120) 
0

>  <s_epik_input>  (120) 
Tz1DKE8xKVtDQEBIXShbQ0gzXSlbQ0BAXTIoW09IXSlbQ0BASF0oQyg9TylbQ0BAXTMoW0NIM10pW0NAQF0xMltPSF0pW0NIXT1DM1tDQEBIXShbQ0BASF00W09IXSlPQyg9TylbQ0BIXShPNSlbQ0BAXTQ1W0NIMl1bT0hd

>  <s_epik_cmdline>  (120) 
J2VwaWtfcHl0aG9uJywgJy1waHQnLCAnMi4wJywgJy1waCcsICc3LjAnLCAnLXRuJywgJzgnLCAnLW1hJywgJzIwMCcsICctaW1hZScsICc8aW5maWxlLm1hZT4nLCAnLW9tYWUnLCAnPG91dGZpbGUubWFlPic=

>  <r_lp_tautomer_probability>  (120) 
1

>  <r_epik_Ionization_Penalty>  (120) 
0.0042461

>  <r_epik_Ionization_Penalty_Charging>  (120) 
0

>  <r_epik_Ionization_Penalty_Neutral>  (120) 
0.0042461

>  <r_epik_State_Penalty>  (120) 
-0

>  <r_epik_Charging_Adjusted_Penalty>  (120) 
0

>  <i_epik_Tot_Q>  (120) 
0

>  <i_epik_Tot_abs_Q>  (120) 
0

>  <s_epik_Chemistry_Notes>  (120) 
This compound has an ester and may undergo hydrolysis at high or low pH.

>  <s_lp_Force_Field>  (120) 
OPLS3e

>  <r_lp_Energy>  (120) 
93.172

>  <b_lp_Chiralities_Consistent>  (120) 
1

>  <s_lp_Variant>  (120) 
29:0-2

>  <s_i_glide_gridfile>  (120) 
pfpi4k_grid

>  <i_i_glide_lignum>  (120) 
5

>  <i_i_glide_rotatable_bonds>  (120) 
6

>  <r_i_docking_score>  (120) 
-3.2328

>  <r_i_glide_ligand_efficiency>  (120) 
-0.119733

>  <r_i_glide_ligand_efficiency_sa>  (120) 
-0.3592

>  <r_i_glide_ligand_efficiency_ln>  (120) 
-0.752543

>  <r_i_glide_gscore>  (120) 
-3.2328

>  <r_i_glide_lipo>  (120) 
-0.252511

>  <r_i_glide_hbond>  (120) 
0

>  <r_i_glide_metal>  (120) 
-0

>  <r_i_glide_rewards>  (120) 
-0.853852

>  <r_i_glide_evdw>  (120) 
-25.5975

>  <r_i_glide_ecoul>  (120) 
-6.46717

>  <r_i_glide_erotb>  (120) 
0.186009

>  <r_i_glide_esite>  (120) 
-0.0625018

>  <r_i_glide_emodel>  (120) 
-38.9026

>  <r_i_glide_energy>  (120) 
-32.0646

>  <r_i_glide_einternal>  (120) 
0.992304

>  <r_i_glide_intrahb_reward>  (120) 
-0

>  <i_i_glide_confnum>  (120) 
4

>  <i_i_glide_posenum>  (120) 
13

>  <r_i_glide_eff_state_penalty>  (120) 
0

>  <ligand_id>  (120) 
29

>  <original_smiles>  (120) 
CC1C(=O)OC2(O)C3(C)C(=O)C(C=C3C3OC(=O)C4OC4(CO)C3O)C12O

>  <smiles>  (120) 
[H]OC([H])([H])C12OC1([H])C(=O)OC([H])(C1([H])C([H])=C3C(=O)C1(C([H])([H])[H])C1(O[H])OC(=O)C([H])(C([H])([H])[H])C31O[H])C2([H])O[H]

$$$$
30:0:0
     RDKit          3D

 17 18  0  0  1  0  0  0  0  0999 V2000
   -2.0205   -8.0433    3.1298 C   0  0  0  0  0  0  0  0  0  0  0  0
   -1.2495   -7.0564    2.4739 O   0  0  0  0  0  0  0  0  0  0  0  0
    0.0789   -7.3484    2.2309 C   0  0  0  0  0  0  0  0  0  0  0  0
    0.7457   -6.3598    1.5941 N   0  0  0  0  0  0  0  0  0  0  0  0
    2.0719   -6.5673    1.3447 C   0  0  0  0  0  0  0  0  0  0  0  0
    2.8276   -7.6576    1.6540 N   0  0  0  0  0  0  0  0  0  0  0  0
    2.1228   -8.6033    2.2531 N   0  0  0  0  0  0  0  0  0  0  0  0
    2.5814   -9.8127    2.6754 C   0  0  0  0  0  0  0  0  0  0  0  0
    4.2269  -10.2709    2.4782 Cl  0  0  0  0  0  0  0  0  0  0  0  0
    1.6007  -10.5070    3.2635 N   0  0  0  0  0  0  0  0  0  0  0  0
    0.4491   -9.7177    3.2138 C   0  0  0  0  0  0  0  0  0  0  0  0
    0.7794   -8.5406    2.5817 C   0  0  0  0  0  0  0  0  0  0  0  0
   -3.0386   -7.7110    3.2814 H   0  0  0  0  0  0  0  0  0  0  0  0
   -1.6255   -8.2245    4.1315 H   0  0  0  0  0  0  0  0  0  0  0  0
   -2.0624   -8.9462    2.5151 H   0  0  0  0  0  0  0  0  0  0  0  0
    2.5796   -5.7625    0.8304 H   0  0  0  0  0  0  0  0  0  0  0  0
   -0.4964  -10.0464    3.6362 H   0  0  0  0  0  0  0  0  0  0  0  0
  1  2  1  0
  1 13  1  0
  1 14  1  0
  1 15  1  0
  2  3  1  0
  3 12  1  0
  3  4  2  0
  4  5  1  0
  5  6  2  0
  5 16  1  0
  6  7  1  0
  7 12  1  0
  7  8  1  0
  8  9  1  0
  8 10  2  0
 10 11  1  0
 11 12  2  0
 11 17  1  0
M  END
>  <i_m_ct_stereo_status>  (121) 
1

>  <s_m_source_file>  (121) 
/var/tmp/pbs.5076255.sched01/tmp8yzwbncg/40d_vk9m1l.sdf

>  <i_m_source_file_index>  (121) 
6

>  <i_lp_mmshare_version>  (121) 
48012

>  <i_f3d_flags>  (121) 
0

>  <s_epik_input>  (121) 
bjFbY0hdbmMoT1tDSDNdKWMobjEyKVtjSF1uYzJDbA==

>  <s_epik_cmdline>  (121) 
J2VwaWtfcHl0aG9uJywgJy1waHQnLCAnMi4wJywgJy1waCcsICc3LjAnLCAnLXRuJywgJzgnLCAnLW1hJywgJzIwMCcsICctaW1hZScsICc8aW5maWxlLm1hZT4nLCAnLW9tYWUnLCAnPG91dGZpbGUubWFlPic=

>  <r_epik_Ionization_Penalty>  (121) 
0.00206586

>  <r_epik_Ionization_Penalty_Charging>  (121) 
0

>  <r_epik_Ionization_Penalty_Neutral>  (121) 
0.00206586

>  <r_epik_State_Penalty>  (121) 
0.00141425

>  <r_epik_Charging_Adjusted_Penalty>  (121) 
0.00141425

>  <i_epik_Tot_Q>  (121) 
0

>  <i_epik_Tot_abs_Q>  (121) 
0

>  <s_lp_Force_Field>  (121) 
OPLS3e

>  <r_lp_Energy>  (121) 
14.117

>  <b_lp_Chiralities_Consistent>  (121) 
1

>  <s_lp_Variant>  (121) 
30:0-1

>  <s_i_glide_gridfile>  (121) 
pfpi4k_grid

>  <i_i_glide_lignum>  (121) 
6

>  <i_i_glide_rotatable_bonds>  (121) 
1

>  <r_i_docking_score>  (121) 
-3.93613

>  <r_i_glide_ligand_efficiency>  (121) 
-0.328011

>  <r_i_glide_ligand_efficiency_sa>  (121) 
-0.750958

>  <r_i_glide_ligand_efficiency_ln>  (121) 
-1.12948

>  <r_i_glide_gscore>  (121) 
-3.93613

>  <r_i_glide_lipo>  (121) 
0

>  <r_i_glide_hbond>  (121) 
-0.299257

>  <r_i_glide_metal>  (121) 
-0

>  <r_i_glide_rewards>  (121) 
-2.15057

>  <r_i_glide_evdw>  (121) 
-16.804

>  <r_i_glide_ecoul>  (121) 
-4.05269

>  <r_i_glide_erotb>  (121) 
0

>  <r_i_glide_esite>  (121) 
-0.0382009

>  <r_i_glide_emodel>  (121) 
-23.0366

>  <r_i_glide_energy>  (121) 
-20.8567

>  <r_i_glide_einternal>  (121) 
7.49965

>  <r_i_glide_intrahb_reward>  (121) 
-0

>  <i_i_glide_confnum>  (121) 
2

>  <i_i_glide_posenum>  (121) 
1

>  <r_i_glide_eff_state_penalty>  (121) 
0

>  <ligand_id>  (121) 
30

>  <original_smiles>  (121) 
COc1ncnn2c(Cl)ncc12

>  <smiles>  (121) 
[H]c1nc(OC([H])([H])[H])c2c([H])nc(Cl)n2n1

$$$$
30:0:1
     RDKit          3D

 17 18  0  0  1  0  0  0  0  0999 V2000
   -2.5357    2.3127    7.3341 C   0  0  0  0  0  0  0  0  0  0  0  0
   -2.5710    0.9516    6.9151 O   0  0  0  0  0  0  0  0  0  0  0  0
   -1.7414    0.5713    5.8821 C   0  0  0  0  0  0  0  0  0  0  0  0
   -1.1188   -0.6201    6.0425 N   0  0  0  0  0  0  0  0  0  0  0  0
   -0.2699   -1.0241    5.0488 C   0  0  0  0  0  0  0  0  0  0  0  0
    0.0259   -0.3898    3.8818 N   0  0  0  0  0  0  0  0  0  0  0  0
   -0.6417    0.7519    3.7556 N   0  0  0  0  0  0  0  0  0  0  0  0
   -0.5994    1.6029    2.6943 C   0  0  0  0  0  0  0  0  0  0  0  0
    0.4163    1.2849    1.3454 Cl  0  0  0  0  0  0  0  0  0  0  0  0
   -1.4289    2.6355    2.8980 N   0  0  0  0  0  0  0  0  0  0  0  0
   -2.0331    2.4542    4.1455 C   0  0  0  0  0  0  0  0  0  0  0  0
   -1.5190    1.2927    4.6770 C   0  0  0  0  0  0  0  0  0  0  0  0
   -3.2562    2.4632    8.1447 H   0  0  0  0  0  0  0  0  0  0  0  0
   -2.8453    3.0032    6.5635 H   0  0  0  0  0  0  0  0  0  0  0  0
   -1.5304    2.5769    7.6750 H   0  0  0  0  0  0  0  0  0  0  0  0
    0.2427   -1.9587    5.2302 H   0  0  0  0  0  0  0  0  0  0  0  0
   -2.7875    3.1196    4.5392 H   0  0  0  0  0  0  0  0  0  0  0  0
  1  2  1  0
  1 13  1  0
  1 14  1  0
  1 15  1  0
  2  3  1  0
  3 12  1  0
  3  4  2  0
  4  5  1  0
  5  6  2  0
  5 16  1  0
  6  7  1  0
  7 12  1  0
  7  8  1  0
  8  9  1  0
  8 10  2  0
 10 11  1  0
 11 12  2  0
 11 17  1  0
M  END
>  <i_m_ct_stereo_status>  (122) 
1

>  <s_m_source_file>  (122) 
/var/tmp/pbs.5076255.sched01/tmp8yzwbncg/40d_vk9m1l.sdf

>  <i_m_source_file_index>  (122) 
6

>  <i_lp_mmshare_version>  (122) 
48012

>  <i_f3d_flags>  (122) 
0

>  <s_epik_input>  (122) 
bjFbY0hdbmMoT1tDSDNdKWMobjEyKVtjSF1uYzJDbA==

>  <s_epik_cmdline>  (122) 
J2VwaWtfcHl0aG9uJywgJy1waHQnLCAnMi4wJywgJy1waCcsICc3LjAnLCAnLXRuJywgJzgnLCAnLW1hJywgJzIwMCcsICctaW1hZScsICc8aW5maWxlLm1hZT4nLCAnLW9tYWUnLCAnPG91dGZpbGUubWFlPic=

>  <r_epik_Ionization_Penalty>  (122) 
0.00206586

>  <r_epik_Ionization_Penalty_Charging>  (122) 
0

>  <r_epik_Ionization_Penalty_Neutral>  (122) 
0.00206586

>  <r_epik_State_Penalty>  (122) 
0.00141425

>  <r_epik_Charging_Adjusted_Penalty>  (122) 
0.00141425

>  <i_epik_Tot_Q>  (122) 
0

>  <i_epik_Tot_abs_Q>  (122) 
0

>  <s_lp_Force_Field>  (122) 
OPLS3e

>  <r_lp_Energy>  (122) 
14.117

>  <b_lp_Chiralities_Consistent>  (122) 
1

>  <s_lp_Variant>  (122) 
30:0-1

>  <s_i_glide_gridfile>  (122) 
pfpi4k_grid

>  <i_i_glide_lignum>  (122) 
6

>  <i_i_glide_rotatable_bonds>  (122) 
1

>  <r_i_docking_score>  (122) 
-3.80786

>  <r_i_glide_ligand_efficiency>  (122) 
-0.317322

>  <r_i_glide_ligand_efficiency_sa>  (122) 
-0.726486

>  <r_i_glide_ligand_efficiency_ln>  (122) 
-1.09267

>  <r_i_glide_gscore>  (122) 
-3.80786

>  <r_i_glide_lipo>  (122) 
-0.0431179

>  <r_i_glide_hbond>  (122) 
-0.194249

>  <r_i_glide_metal>  (122) 
-0

>  <r_i_glide_rewards>  (122) 
-2.15057

>  <r_i_glide_evdw>  (122) 
-15.2393

>  <r_i_glide_ecoul>  (122) 
-3.72783

>  <r_i_glide_erotb>  (122) 
0

>  <r_i_glide_esite>  (122) 
-0.0987843

>  <r_i_glide_emodel>  (122) 
-20.7736

>  <r_i_glide_energy>  (122) 
-18.9671

>  <r_i_glide_einternal>  (122) 
7.5783

>  <r_i_glide_intrahb_reward>  (122) 
-0

>  <i_i_glide_confnum>  (122) 
2

>  <i_i_glide_posenum>  (122) 
31

>  <r_i_glide_eff_state_penalty>  (122) 
0

>  <ligand_id>  (122) 
30

>  <original_smiles>  (122) 
COc1ncnn2c(Cl)ncc12

>  <smiles>  (122) 
[H]c1nc(OC([H])([H])[H])c2c([H])nc(Cl)n2n1

$$$$
30:0:2
     RDKit          3D

 17 18  0  0  1  0  0  0  0  0999 V2000
    1.6740    1.3985    1.7406 C   0  0  0  0  0  0  0  0  0  0  0  0
    0.6832    1.0135    2.6901 O   0  0  0  0  0  0  0  0  0  0  0  0
    0.8092   -0.2138    3.3040 C   0  0  0  0  0  0  0  0  0  0  0  0
    1.8530   -1.0319    3.0030 N   0  0  0  0  0  0  0  0  0  0  0  0
    1.9127   -2.2376    3.6447 C   0  0  0  0  0  0  0  0  0  0  0  0
    1.0517   -2.7503    4.5683 N   0  0  0  0  0  0  0  0  0  0  0  0
    0.0529   -1.9038    4.8212 N   0  0  0  0  0  0  0  0  0  0  0  0
   -0.9859   -2.0878    5.6827 C   0  0  0  0  0  0  0  0  0  0  0  0
   -1.1295   -3.5191    6.6247 Cl  0  0  0  0  0  0  0  0  0  0  0  0
   -1.8078   -1.0204    5.6725 N   0  0  0  0  0  0  0  0  0  0  0  0
   -1.2735   -0.0957    4.7578 C   0  0  0  0  0  0  0  0  0  0  0  0
   -0.1308   -0.6624    4.2524 C   0  0  0  0  0  0  0  0  0  0  0  0
    1.4230    2.3884    1.3626 H   0  0  0  0  0  0  0  0  0  0  0  0
    1.7129    0.7173    0.8894 H   0  0  0  0  0  0  0  0  0  0  0  0
    2.6659    1.4666    2.1888 H   0  0  0  0  0  0  0  0  0  0  0  0
    2.7553   -2.8626    3.3859 H   0  0  0  0  0  0  0  0  0  0  0  0
   -1.7249    0.8646    4.5363 H   0  0  0  0  0  0  0  0  0  0  0  0
  1  2  1  0
  1 13  1  0
  1 14  1  0
  1 15  1  0
  2  3  1  0
  3 12  1  0
  3  4  2  0
  4  5  1  0
  5  6  2  0
  5 16  1  0
  6  7  1  0
  7 12  1  0
  7  8  1  0
  8  9  1  0
  8 10  2  0
 10 11  1  0
 11 12  2  0
 11 17  1  0
M  END
>  <i_m_ct_stereo_status>  (123) 
1

>  <s_m_source_file>  (123) 
/var/tmp/pbs.5076255.sched01/tmp8yzwbncg/40d_vk9m1l.sdf

>  <i_m_source_file_index>  (123) 
6

>  <i_lp_mmshare_version>  (123) 
48012

>  <i_f3d_flags>  (123) 
0

>  <s_epik_input>  (123) 
bjFbY0hdbmMoT1tDSDNdKWMobjEyKVtjSF1uYzJDbA==

>  <s_epik_cmdline>  (123) 
J2VwaWtfcHl0aG9uJywgJy1waHQnLCAnMi4wJywgJy1waCcsICc3LjAnLCAnLXRuJywgJzgnLCAnLW1hJywgJzIwMCcsICctaW1hZScsICc8aW5maWxlLm1hZT4nLCAnLW9tYWUnLCAnPG91dGZpbGUubWFlPic=

>  <r_epik_Ionization_Penalty>  (123) 
0.00206586

>  <r_epik_Ionization_Penalty_Charging>  (123) 
0

>  <r_epik_Ionization_Penalty_Neutral>  (123) 
0.00206586

>  <r_epik_State_Penalty>  (123) 
0.00141425

>  <r_epik_Charging_Adjusted_Penalty>  (123) 
0.00141425

>  <i_epik_Tot_Q>  (123) 
0

>  <i_epik_Tot_abs_Q>  (123) 
0

>  <s_lp_Force_Field>  (123) 
OPLS3e

>  <r_lp_Energy>  (123) 
14.117

>  <b_lp_Chiralities_Consistent>  (123) 
1

>  <s_lp_Variant>  (123) 
30:0-1

>  <s_i_glide_gridfile>  (123) 
pfpi4k_grid

>  <i_i_glide_lignum>  (123) 
6

>  <i_i_glide_rotatable_bonds>  (123) 
1

>  <r_i_docking_score>  (123) 
-3.24665

>  <r_i_glide_ligand_efficiency>  (123) 
-0.270554

>  <r_i_glide_ligand_efficiency_sa>  (123) 
-0.619414

>  <r_i_glide_ligand_efficiency_ln>  (123) 
-0.931631

>  <r_i_glide_gscore>  (123) 
-3.24665

>  <r_i_glide_lipo>  (123) 
0

>  <r_i_glide_hbond>  (123) 
-0.0270099

>  <r_i_glide_metal>  (123) 
-0

>  <r_i_glide_rewards>  (123) 
-2.16316

>  <r_i_glide_evdw>  (123) 
-13.8838

>  <r_i_glide_ecoul>  (123) 
-2.13501

>  <r_i_glide_erotb>  (123) 
0

>  <r_i_glide_esite>  (123) 
-0.0420329

>  <r_i_glide_emodel>  (123) 
-20.9496

>  <r_i_glide_energy>  (123) 
-16.0188

>  <r_i_glide_einternal>  (123) 
0.000266894

>  <r_i_glide_intrahb_reward>  (123) 
-0

>  <i_i_glide_confnum>  (123) 
2

>  <i_i_glide_posenum>  (123) 
5

>  <r_i_glide_eff_state_penalty>  (123) 
0

>  <ligand_id>  (123) 
30

>  <original_smiles>  (123) 
COc1ncnn2c(Cl)ncc12

>  <smiles>  (123) 
[H]c1nc(OC([H])([H])[H])c2c([H])nc(Cl)n2n1

$$$$
31:0:0
     RDKit          3D

 56 59  0  0  1  0  0  0  0  0999 V2000
    4.3206   -3.0850   -2.1866 C   0  0  0  0  0  0  0  0  0  0  0  0
    3.9066   -3.5375   -0.7609 C   0  0  0  0  0  0  0  0  0  0  0  0
    2.3750   -3.7418   -0.7969 C   0  0  0  0  0  0  0  0  0  0  0  0
    4.6248   -4.8766   -0.4398 C   0  0  0  0  0  0  0  0  0  0  0  0
    4.5070   -5.3246    1.0261 C   0  0  0  0  0  0  0  0  0  0  0  0
    4.8703   -4.2040    2.0240 C   0  0  1  0  0  0  0  0  0  0  0  0
    6.3282   -3.8456    1.7562 C   0  0  0  0  0  0  0  0  0  0  0  0
    6.7399   -2.8405    0.9586 C   0  0  0  0  0  0  0  0  0  0  0  0
    5.7560   -2.0396    0.2205 C   0  0  0  0  0  0  0  0  0  0  0  0
    6.0698   -1.0613   -0.4601 O   0  0  0  0  0  0  0  0  0  0  0  0
    4.2753   -2.4567    0.3171 C   0  0  2  0  0  0  0  0  0  0  0  0
    3.9413   -2.9722    1.7629 C   0  0  2  0  0  0  0  0  0  0  0  0
    3.7691   -1.8865    2.9258 C   0  0  2  0  0  0  0  0  0  0  0  0
    2.4515   -1.1450    2.5486 C   0  0  0  0  0  0  0  0  0  0  0  0
    4.9346   -0.8525    3.0301 C   0  0  0  0  0  0  0  0  0  0  0  0
    4.8183    0.1343    4.2115 C   0  0  0  0  0  0  0  0  0  0  0  0
    4.6637   -0.5725    5.5664 C   0  0  0  0  0  0  0  0  0  0  0  0
    3.5079   -1.6033    5.5929 C   0  0  0  0  0  0  0  0  0  0  0  0
    3.5519   -2.3645    6.9509 C   0  0  0  0  0  0  0  0  0  0  0  0
    2.1376   -0.8765    5.6195 C   0  0  0  0  0  0  0  0  0  0  0  0
    3.6336   -2.5774    4.3460 C   0  0  2  0  0  0  0  0  0  0  0  0
    4.7532   -3.6381    4.4694 C   0  0  0  0  0  0  0  0  0  0  0  0
    5.6781   -3.5973    5.2789 O   0  0  0  0  0  0  0  0  0  0  0  0
    4.6706   -4.7537    3.4467 C   0  0  0  0  0  0  0  0  0  0  0  0
    3.9504   -3.7834   -2.9386 H   0  0  0  0  0  0  0  0  0  0  0  0
    5.4046   -3.0476   -2.3129 H   0  0  0  0  0  0  0  0  0  0  0  0
    3.9216   -2.0974   -2.4253 H   0  0  0  0  0  0  0  0  0  0  0  0
    1.9970   -4.2881    0.0641 H   0  0  0  0  0  0  0  0  0  0  0  0
    2.0528   -4.2801   -1.6820 H   0  0  0  0  0  0  0  0  0  0  0  0
    1.8673   -2.7838   -0.8506 H   0  0  0  0  0  0  0  0  0  0  0  0
    4.2368   -5.6674   -1.0690 H   0  0  0  0  0  0  0  0  0  0  0  0
    5.6809   -4.8052   -0.7099 H   0  0  0  0  0  0  0  0  0  0  0  0
    3.4971   -5.6873    1.2183 H   0  0  0  0  0  0  0  0  0  0  0  0
    5.1623   -6.1839    1.1793 H   0  0  0  0  0  0  0  0  0  0  0  0
    7.0507   -4.4557    2.2821 H   0  0  0  0  0  0  0  0  0  0  0  0
    7.7854   -2.6097    0.8322 H   0  0  0  0  0  0  0  0  0  0  0  0
    3.6947   -1.5620    0.0949 H   0  0  0  0  0  0  0  0  0  0  0  0
    2.9446   -3.4091    1.7388 H   0  0  0  0  0  0  0  0  0  0  0  0
    2.4045   -0.1248    2.9222 H   0  0  0  0  0  0  0  0  0  0  0  0
    1.5767   -1.6851    2.9148 H   0  0  0  0  0  0  0  0  0  0  0  0
    2.3094   -1.0404    1.4751 H   0  0  0  0  0  0  0  0  0  0  0  0
    5.8812   -1.3781    3.1420 H   0  0  0  0  0  0  0  0  0  0  0  0
    5.0080   -0.2658    2.1165 H   0  0  0  0  0  0  0  0  0  0  0  0
    5.7151    0.7542    4.2425 H   0  0  0  0  0  0  0  0  0  0  0  0
    3.9966    0.8297    4.0533 H   0  0  0  0  0  0  0  0  0  0  0  0
    5.6076   -1.0620    5.8087 H   0  0  0  0  0  0  0  0  0  0  0  0
    4.5155    0.1718    6.3503 H   0  0  0  0  0  0  0  0  0  0  0  0
    2.9007   -3.2384    6.9410 H   0  0  0  0  0  0  0  0  0  0  0  0
    3.2374   -1.7327    7.7827 H   0  0  0  0  0  0  0  0  0  0  0  0
    4.5545   -2.6933    7.2215 H   0  0  0  0  0  0  0  0  0  0  0  0
    1.3308   -1.5427    5.3135 H   0  0  0  0  0  0  0  0  0  0  0  0
    2.1099    0.0041    4.9846 H   0  0  0  0  0  0  0  0  0  0  0  0
    1.8833   -0.5026    6.6110 H   0  0  0  0  0  0  0  0  0  0  0  0
    2.7149   -3.1656    4.3275 H   0  0  0  0  0  0  0  0  0  0  0  0
    3.6837   -5.2122    3.5326 H   0  0  0  0  0  0  0  0  0  0  0  0
    5.4039   -5.5259    3.6788 H   0  0  0  0  0  0  0  0  0  0  0  0
  1  2  1  0
  1 25  1  0
  1 26  1  0
  1 27  1  0
  2 11  1  0
  2  3  1  0
  2  4  1  0
  3 28  1  0
  3 29  1  0
  3 30  1  0
  4  5  1  0
  4 31  1  0
  4 32  1  0
  6  5  1  6
  5 33  1  0
  5 34  1  0
  6 12  1  0
  6 24  1  0
  6  7  1  0
  7  8  2  0
  7 35  1  0
  8  9  1  0
  8 36  1  0
  9 10  2  0
  9 11  1  0
 11 12  1  0
 11 37  1  6
 12 13  1  0
 12 38  1  6
 13 21  1  0
 13 14  1  6
 13 15  1  0
 14 39  1  0
 14 40  1  0
 14 41  1  0
 15 16  1  0
 15 42  1  0
 15 43  1  0
 16 17  1  0
 16 44  1  0
 16 45  1  0
 17 18  1  0
 17 46  1  0
 17 47  1  0
 18 19  1  0
 18 20  1  0
 18 21  1  0
 19 48  1  0
 19 49  1  0
 19 50  1  0
 20 51  1  0
 20 52  1  0
 20 53  1  0
 21 22  1  0
 21 54  1  6
 22 23  2  0
 22 24  1  0
 24 55  1  0
 24 56  1  0
M  END
>  <i_m_ct_stereo_status>  (124) 
1

>  <s_m_source_file>  (124) 
/var/tmp/pbs.5076255.sched01/tmp8yzwbncg/40d_vk9m1l.sdf

>  <i_m_source_file_index>  (124) 
7

>  <i_lp_mmshare_version>  (124) 
48012

>  <i_f3d_flags>  (124) 
0

>  <s_epik_input>  (124) 
W0NIMl0xW0NIMl1DKFtDSDNdKShbQ0gzXSlbQ0BIXShDKD1PKVtDSF09W0NIXTIpW0NAQEhdKFtDQEBdMTIzKVtDQEBdNChbQ0gzXSlbQ0BASF0oQyg9TylbQ0gyXTMpQyhbQ0gzXSkoW0NIM10pW0NIMl1bQ0gyXVtDSDJdNA==

>  <s_epik_cmdline>  (124) 
J2VwaWtfcHl0aG9uJywgJy1waHQnLCAnMi4wJywgJy1waCcsICc3LjAnLCAnLXRuJywgJzgnLCAnLW1hJywgJzIwMCcsICctaW1hZScsICc8aW5maWxlLm1hZT4nLCAnLW9tYWUnLCAnPG91dGZpbGUubWFlPic=

>  <r_lp_tautomer_probability>  (124) 
1

>  <r_epik_Ionization_Penalty>  (124) 
1.36426e-13

>  <r_epik_Ionization_Penalty_Charging>  (124) 
0

>  <r_epik_Ionization_Penalty_Neutral>  (124) 
1.36426e-13

>  <r_epik_State_Penalty>  (124) 
-0

>  <r_epik_Charging_Adjusted_Penalty>  (124) 
0

>  <i_epik_Tot_Q>  (124) 
0

>  <i_epik_Tot_abs_Q>  (124) 
0

>  <s_lp_Force_Field>  (124) 
OPLS3e

>  <r_lp_Energy>  (124) 
56.5421

>  <b_lp_Chiralities_Consistent>  (124) 
1

>  <s_lp_Variant>  (124) 
31:0-1

>  <s_i_glide_gridfile>  (124) 
pfpi4k_grid

>  <i_i_glide_lignum>  (124) 
7

>  <i_i_glide_rotatable_bonds>  (124) 
0

>  <r_i_docking_score>  (124) 
-2.84248

>  <r_i_glide_ligand_efficiency>  (124) 
-0.118437

>  <r_i_glide_ligand_efficiency_sa>  (124) 
-0.34163

>  <r_i_glide_ligand_efficiency_ln>  (124) 
-0.680336

>  <r_i_glide_gscore>  (124) 
-2.84248

>  <r_i_glide_lipo>  (124) 
-0.403824

>  <r_i_glide_hbond>  (124) 
-0.0576822

>  <r_i_glide_metal>  (124) 
-0

>  <r_i_glide_rewards>  (124) 
-1.23936

>  <r_i_glide_evdw>  (124) 
-16.8663

>  <r_i_glide_ecoul>  (124) 
-1.98868

>  <r_i_glide_erotb>  (124) 
0

>  <r_i_glide_esite>  (124) 
0

>  <r_i_glide_emodel>  (124) 
-22.4925

>  <r_i_glide_energy>  (124) 
-18.8549

>  <r_i_glide_einternal>  (124) 
0

>  <r_i_glide_intrahb_reward>  (124) 
-0

>  <i_i_glide_confnum>  (124) 
2

>  <i_i_glide_posenum>  (124) 
6

>  <r_i_glide_eff_state_penalty>  (124) 
0

>  <ligand_id>  (124) 
31

>  <original_smiles>  (124) 
CC1(C)CCC23C=CC(=O)C1C2C1(C)CCCC(C)(C)C1C(=O)C3

>  <smiles>  (124) 
[H]C1=C([H])C23C([H])([H])C(=O)C4([H])C(C([H])([H])[H])(C([H])([H])[H])C([H])([H])C([H])([H])C([H])([H])C4(C([H])([H])[H])C2([H])C([H])(C1=O)C(C([H])([H])[H])(C([H])([H])[H])C([H])([H])C3([H])[H]

$$$$
31:0:1
     RDKit          3D

 56 59  0  0  1  0  0  0  0  0999 V2000
    4.8364   -1.9416   -2.4370 C   0  0  0  0  0  0  0  0  0  0  0  0
    4.3156   -2.9068   -1.3443 C   0  0  0  0  0  0  0  0  0  0  0  0
    2.8235   -3.1454   -1.6574 C   0  0  0  0  0  0  0  0  0  0  0  0
    5.0914   -4.2364   -1.4704 C   0  0  0  0  0  0  0  0  0  0  0  0
    4.8912   -5.2051   -0.2805 C   0  0  0  0  0  0  0  0  0  0  0  0
    5.0853   -4.5421    1.1050 C   0  0  1  0  0  0  0  0  0  0  0  0
    6.5342   -4.0602    1.1967 C   0  0  0  0  0  0  0  0  0  0  0  0
    6.9358   -2.8229    0.8432 C   0  0  0  0  0  0  0  0  0  0  0  0
    5.9604   -1.8465    0.3323 C   0  0  0  0  0  0  0  0  0  0  0  0
    6.2531   -0.6770    0.0857 O   0  0  0  0  0  0  0  0  0  0  0  0
    4.5112   -2.3127    0.0968 C   0  0  2  0  0  0  0  0  0  0  0  0
    4.0873   -3.3424    1.2040 C   0  0  2  0  0  0  0  0  0  0  0  0
    3.7252   -2.7765    2.6563 C   0  0  2  0  0  0  0  0  0  0  0  0
    2.3989   -1.9889    2.4316 C   0  0  0  0  0  0  0  0  0  0  0  0
    4.7975   -1.8231    3.2699 C   0  0  0  0  0  0  0  0  0  0  0  0
    4.4994   -1.3587    4.7111 C   0  0  0  0  0  0  0  0  0  0  0  0
    4.2671   -2.5287    5.6779 C   0  0  0  0  0  0  0  0  0  0  0  0
    3.1936   -3.5294    5.1859 C   0  0  0  0  0  0  0  0  0  0  0  0
    3.1640   -4.7441    6.1587 C   0  0  0  0  0  0  0  0  0  0  0  0
    1.7761   -2.9087    5.3212 C   0  0  0  0  0  0  0  0  0  0  0  0
    3.5055   -3.9577    3.6909 C   0  0  2  0  0  0  0  0  0  0  0  0
    4.6837   -4.9494    3.5422 C   0  0  0  0  0  0  0  0  0  0  0  0
    5.5332   -5.1749    4.4024 O   0  0  0  0  0  0  0  0  0  0  0  0
    4.7777   -5.6002    2.1777 C   0  0  0  0  0  0  0  0  0  0  0  0
    4.6051   -2.3091   -3.4363 H   0  0  0  0  0  0  0  0  0  0  0  0
    5.9203   -1.8455   -2.3867 H   0  0  0  0  0  0  0  0  0  0  0  0
    4.4022   -0.9448   -2.3381 H   0  0  0  0  0  0  0  0  0  0  0  0
    2.3979   -3.9686   -1.0895 H   0  0  0  0  0  0  0  0  0  0  0  0
    2.6640   -3.3838   -2.7071 H   0  0  0  0  0  0  0  0  0  0  0  0
    2.2393   -2.2581   -1.4416 H   0  0  0  0  0  0  0  0  0  0  0  0
    4.8168   -4.7239   -2.4037 H   0  0  0  0  0  0  0  0  0  0  0  0
    6.1557   -4.0233   -1.5731 H   0  0  0  0  0  0  0  0  0  0  0  0
    3.8971   -5.6476   -0.3405 H   0  0  0  0  0  0  0  0  0  0  0  0
    5.5860   -6.0377   -0.3774 H   0  0  0  0  0  0  0  0  0  0  0  0
    7.2585   -4.7781    1.5617 H   0  0  0  0  0  0  0  0  0  0  0  0
    7.9690   -2.5230    0.9006 H   0  0  0  0  0  0  0  0  0  0  0  0
    3.8969   -1.4181    0.1605 H   0  0  0  0  0  0  0  0  0  0  0  0
    3.1331   -3.7685    0.8974 H   0  0  0  0  0  0  0  0  0  0  0  0
    2.2426   -1.1873    3.1486 H   0  0  0  0  0  0  0  0  0  0  0  0
    1.5338   -2.6543    2.4689 H   0  0  0  0  0  0  0  0  0  0  0  0
    2.3514   -1.4919    1.4645 H   0  0  0  0  0  0  0  0  0  0  0  0
    5.7665   -2.3220    3.2879 H   0  0  0  0  0  0  0  0  0  0  0  0
    4.9158   -0.9323    2.6543 H   0  0  0  0  0  0  0  0  0  0  0  0
    5.3409   -0.7669    5.0707 H   0  0  0  0  0  0  0  0  0  0  0  0
    3.6478   -0.6815    4.7271 H   0  0  0  0  0  0  0  0  0  0  0  0
    5.2172   -3.0429    5.8255 H   0  0  0  0  0  0  0  0  0  0  0  0
    3.9940   -2.1414    6.6588 H   0  0  0  0  0  0  0  0  0  0  0  0
    2.5813   -5.5707    5.7506 H   0  0  0  0  0  0  0  0  0  0  0  0
    2.7286   -4.4832    7.1234 H   0  0  0  0  0  0  0  0  0  0  0  0
    4.1582   -5.1206    6.3984 H   0  0  0  0  0  0  0  0  0  0  0  0
    1.0509   -3.4344    4.6989 H   0  0  0  0  0  0  0  0  0  0  0  0
    1.7467   -1.8543    5.0623 H   0  0  0  0  0  0  0  0  0  0  0  0
    1.4030   -2.9466    6.3446 H   0  0  0  0  0  0  0  0  0  0  0  0
    2.6386   -4.5245    3.3486 H   0  0  0  0  0  0  0  0  0  0  0  0
    3.8223   -6.0829    1.9632 H   0  0  0  0  0  0  0  0  0  0  0  0
    5.5383   -6.3816    2.1845 H   0  0  0  0  0  0  0  0  0  0  0  0
  1  2  1  0
  1 25  1  0
  1 26  1  0
  1 27  1  0
  2 11  1  0
  2  3  1  0
  2  4  1  0
  3 28  1  0
  3 29  1  0
  3 30  1  0
  4  5  1  0
  4 31  1  0
  4 32  1  0
  6  5  1  6
  5 33  1  0
  5 34  1  0
  6 12  1  0
  6 24  1  0
  6  7  1  0
  7  8  2  0
  7 35  1  0
  8  9  1  0
  8 36  1  0
  9 10  2  0
  9 11  1  0
 11 12  1  0
 11 37  1  6
 12 13  1  0
 12 38  1  6
 13 21  1  0
 13 14  1  6
 13 15  1  0
 14 39  1  0
 14 40  1  0
 14 41  1  0
 15 16  1  0
 15 42  1  0
 15 43  1  0
 16 17  1  0
 16 44  1  0
 16 45  1  0
 17 18  1  0
 17 46  1  0
 17 47  1  0
 18 19  1  0
 18 20  1  0
 18 21  1  0
 19 48  1  0
 19 49  1  0
 19 50  1  0
 20 51  1  0
 20 52  1  0
 20 53  1  0
 21 22  1  0
 21 54  1  6
 22 23  2  0
 22 24  1  0
 24 55  1  0
 24 56  1  0
M  END
>  <i_m_ct_stereo_status>  (125) 
1

>  <s_m_source_file>  (125) 
/var/tmp/pbs.5076255.sched01/tmp8yzwbncg/40d_vk9m1l.sdf

>  <i_m_source_file_index>  (125) 
7

>  <i_lp_mmshare_version>  (125) 
48012

>  <i_f3d_flags>  (125) 
0

>  <s_epik_input>  (125) 
W0NIMl0xW0NIMl1DKFtDSDNdKShbQ0gzXSlbQ0BIXShDKD1PKVtDSF09W0NIXTIpW0NAQEhdKFtDQEBdMTIzKVtDQEBdNChbQ0gzXSlbQ0BASF0oQyg9TylbQ0gyXTMpQyhbQ0gzXSkoW0NIM10pW0NIMl1bQ0gyXVtDSDJdNA==

>  <s_epik_cmdline>  (125) 
J2VwaWtfcHl0aG9uJywgJy1waHQnLCAnMi4wJywgJy1waCcsICc3LjAnLCAnLXRuJywgJzgnLCAnLW1hJywgJzIwMCcsICctaW1hZScsICc8aW5maWxlLm1hZT4nLCAnLW9tYWUnLCAnPG91dGZpbGUubWFlPic=

>  <r_lp_tautomer_probability>  (125) 
1

>  <r_epik_Ionization_Penalty>  (125) 
1.36426e-13

>  <r_epik_Ionization_Penalty_Charging>  (125) 
0

>  <r_epik_Ionization_Penalty_Neutral>  (125) 
1.36426e-13

>  <r_epik_State_Penalty>  (125) 
-0

>  <r_epik_Charging_Adjusted_Penalty>  (125) 
0

>  <i_epik_Tot_Q>  (125) 
0

>  <i_epik_Tot_abs_Q>  (125) 
0

>  <s_lp_Force_Field>  (125) 
OPLS3e

>  <r_lp_Energy>  (125) 
56.5421

>  <b_lp_Chiralities_Consistent>  (125) 
1

>  <s_lp_Variant>  (125) 
31:0-1

>  <s_i_glide_gridfile>  (125) 
pfpi4k_grid

>  <i_i_glide_lignum>  (125) 
7

>  <i_i_glide_rotatable_bonds>  (125) 
0

>  <r_i_docking_score>  (125) 
-2.79316

>  <r_i_glide_ligand_efficiency>  (125) 
-0.116382

>  <r_i_glide_ligand_efficiency_sa>  (125) 
-0.335703

>  <r_i_glide_ligand_efficiency_ln>  (125) 
-0.668531

>  <r_i_glide_gscore>  (125) 
-2.79316

>  <r_i_glide_lipo>  (125) 
-0.375078

>  <r_i_glide_hbond>  (125) 
-0.0129245

>  <r_i_glide_metal>  (125) 
-0

>  <r_i_glide_rewards>  (125) 
-1.2632

>  <r_i_glide_evdw>  (125) 
-20.8646

>  <r_i_glide_ecoul>  (125) 
-0.658143

>  <r_i_glide_erotb>  (125) 
0

>  <r_i_glide_esite>  (125) 
0

>  <r_i_glide_emodel>  (125) 
-25.1411

>  <r_i_glide_energy>  (125) 
-21.5228

>  <r_i_glide_einternal>  (125) 
0

>  <r_i_glide_intrahb_reward>  (125) 
-0

>  <i_i_glide_confnum>  (125) 
1

>  <i_i_glide_posenum>  (125) 
1

>  <r_i_glide_eff_state_penalty>  (125) 
0

>  <ligand_id>  (125) 
31

>  <original_smiles>  (125) 
CC1(C)CCC23C=CC(=O)C1C2C1(C)CCCC(C)(C)C1C(=O)C3

>  <smiles>  (125) 
[H]C1=C([H])C23C([H])([H])C(=O)C4([H])C(C([H])([H])[H])(C([H])([H])[H])C([H])([H])C([H])([H])C([H])([H])C4(C([H])([H])[H])C2([H])C([H])(C1=O)C(C([H])([H])[H])(C([H])([H])[H])C([H])([H])C3([H])[H]

$$$$
32:0:0
     RDKit          3D

 49 53  0  0  1  0  0  0  0  0999 V2000
   -1.2831   -2.2842    6.0313 C   0  0  0  0  0  0  0  0  0  0  0  0
   -0.5795   -1.3691    6.8716 O   0  0  0  0  0  0  0  0  0  0  0  0
   -0.4665   -0.0019    6.4634 C   0  0  2  0  0  0  0  0  0  0  0  0
   -1.8744    0.5679    6.1644 C   0  0  0  0  0  0  0  0  0  0  0  0
   -2.0080    2.0712    6.4101 C   0  0  0  0  0  0  0  0  0  0  0  0
   -0.8450    2.9893    5.8952 C   0  0  2  0  0  0  0  0  0  0  0  0
   -1.3421    3.7651    4.6298 C   0  0  2  0  0  0  0  0  0  0  0  0
   -2.1215    2.9955    3.5108 C   0  0  0  0  0  0  0  0  0  0  0  0
   -1.3493    2.0781    2.5463 C   0  0  0  0  0  0  0  0  0  0  0  0
   -0.6629    0.8459    3.1302 C   0  0  0  0  0  0  0  0  0  0  0  0
    0.4937    1.0554    4.1443 C   0  0  2  0  0  0  0  0  0  0  0  0
    0.6168    0.0373    5.3052 C   0  0  1  0  0  0  0  0  0  0  0  0
    2.0021    0.3237    5.8935 C   0  0  0  0  0  0  0  0  0  0  0  0
    2.0816    1.8069    6.3734 C   0  0  0  0  0  0  0  0  0  0  0  0
    0.7809    2.8063    6.1983 C   0  0  2  0  0  0  0  0  0  0  0  0
    0.3929    2.1916    7.6431 C   0  0  0  0  0  0  0  0  0  0  0  0
    0.0070    0.6833    7.7777 C   0  0  0  0  0  0  0  0  0  0  0  0
    0.9393    2.4728    4.6204 C   0  0  2  0  0  0  0  0  0  0  0  0
    0.7733    3.5603    3.7040 O   0  0  0  0  0  0  0  0  0  0  0  0
   -0.1395    4.5137    4.0865 C   0  0  1  0  0  0  0  0  0  0  0  0
   -0.5027    5.3770    3.0374 O   0  0  0  0  0  0  0  0  0  0  0  0
   -2.3563   -2.1107    6.0551 H   0  0  0  0  0  0  0  0  0  0  0  0
   -1.1108   -3.2906    6.4089 H   0  0  0  0  0  0  0  0  0  0  0  0
   -0.9596   -2.2693    4.9930 H   0  0  0  0  0  0  0  0  0  0  0  0
   -2.2710    0.2755    5.2056 H   0  0  0  0  0  0  0  0  0  0  0  0
   -2.5921    0.1419    6.8552 H   0  0  0  0  0  0  0  0  0  0  0  0
   -2.9619    2.4168    6.0148 H   0  0  0  0  0  0  0  0  0  0  0  0
   -2.1954    2.2283    7.4730 H   0  0  0  0  0  0  0  0  0  0  0  0
   -0.9998    3.8457    6.5569 H   0  0  0  0  0  0  0  0  0  0  0  0
   -2.0365    4.5308    4.9753 H   0  0  0  0  0  0  0  0  0  0  0  0
   -2.9518    2.4219    3.9174 H   0  0  0  0  0  0  0  0  0  0  0  0
   -2.6080    3.7516    2.8925 H   0  0  0  0  0  0  0  0  0  0  0  0
   -2.0646    1.7292    1.7990 H   0  0  0  0  0  0  0  0  0  0  0  0
   -0.6077    2.6334    1.9855 H   0  0  0  0  0  0  0  0  0  0  0  0
   -1.3916    0.1110    3.4468 H   0  0  0  0  0  0  0  0  0  0  0  0
   -0.2200    0.3506    2.2647 H   0  0  0  0  0  0  0  0  0  0  0  0
    1.3307    0.7799    3.4975 H   0  0  0  0  0  0  0  0  0  0  0  0
    0.6836   -0.9417    4.8331 H   0  0  0  0  0  0  0  0  0  0  0  0
    2.2421   -0.3728    6.6960 H   0  0  0  0  0  0  0  0  0  0  0  0
    2.7712    0.1500    5.1405 H   0  0  0  0  0  0  0  0  0  0  0  0
    2.5892    1.7673    7.3417 H   0  0  0  0  0  0  0  0  0  0  0  0
    2.9699    2.2616    5.9311 H   0  0  0  0  0  0  0  0  0  0  0  0
    1.1187    2.4296    8.4244 H   0  0  0  0  0  0  0  0  0  0  0  0
   -0.3504    2.7815    8.1745 H   0  0  0  0  0  0  0  0  0  0  0  0
   -0.7746    0.5977    8.5338 H   0  0  0  0  0  0  0  0  0  0  0  0
    0.8378    0.1341    8.2234 H   0  0  0  0  0  0  0  0  0  0  0  0
    1.9784    2.4903    4.2766 H   0  0  0  0  0  0  0  0  0  0  0  0
    0.3169    5.1356    4.8596 H   0  0  0  0  0  0  0  0  0  0  0  0
   -0.2064    4.9662    2.2140 H   0  0  0  0  0  0  0  0  0  0  0  0
  1  2  1  0
  1 22  1  0
  1 23  1  0
  1 24  1  0
  3  2  1  1
  3 12  1  0
  3 17  1  0
  3  4  1  0
  4  5  1  0
  4 25  1  0
  4 26  1  0
  5  6  1  0
  5 27  1  0
  5 28  1  0
  6 15  1  0
  6  7  1  0
  6 29  1  1
  7 20  1  0
  7  8  1  0
  7 30  1  1
  8  9  1  0
  8 31  1  0
  8 32  1  0
  9 10  1  0
  9 33  1  0
  9 34  1  0
 10 11  1  0
 10 35  1  0
 10 36  1  0
 11 18  1  0
 11 12  1  0
 11 37  1  6
 12 13  1  0
 12 38  1  6
 13 14  1  0
 13 39  1  0
 13 40  1  0
 15 14  1  6
 14 41  1  0
 14 42  1  0
 15 16  1  0
 15 18  1  0
 16 17  1  0
 16 43  1  0
 16 44  1  0
 17 45  1  0
 17 46  1  0
 18 19  1  0
 18 47  1  1
 19 20  1  0
 20 21  1  0
 20 48  1  1
 21 49  1  0
M  END
>  <i_m_ct_stereo_status>  (126) 
1

>  <s_m_source_file>  (126) 
/var/tmp/pbs.5076255.sched01/tmp8yzwbncg/40d_vk9m1l.sdf

>  <i_m_source_file_index>  (126) 
8

>  <i_lp_mmshare_version>  (126) 
48012

>  <i_f3d_flags>  (126) 
0

>  <s_epik_input>  (126) 
W0NIM11PW0NAXShbQ0gyXVtDSDJdMSkoW0NIMl1bQ0gyXTIpW0NASF0oW0NIMl1bQ0gyXTMpW0NASF0oW0NASF00T1tDQEhdNVtPSF0pW0NIMl1bQ0gyXVtDSDJdW0NASF01W0NAQEhdMVtDQF0yMzQ=

>  <s_epik_cmdline>  (126) 
J2VwaWtfcHl0aG9uJywgJy1waHQnLCAnMi4wJywgJy1waCcsICc3LjAnLCAnLXRuJywgJzgnLCAnLW1hJywgJzIwMCcsICctaW1hZScsICc8aW5maWxlLm1hZT4nLCAnLW9tYWUnLCAnPG91dGZpbGUubWFlPic=

>  <r_lp_tautomer_probability>  (126) 
1

>  <r_epik_Ionization_Penalty>  (126) 
2.47861e-08

>  <r_epik_Ionization_Penalty_Charging>  (126) 
0

>  <r_epik_Ionization_Penalty_Neutral>  (126) 
2.47861e-08

>  <r_epik_State_Penalty>  (126) 
-0

>  <r_epik_Charging_Adjusted_Penalty>  (126) 
0

>  <i_epik_Tot_Q>  (126) 
0

>  <i_epik_Tot_abs_Q>  (126) 
0

>  <s_epik_Chemistry_Notes>  (126) 
This compound contains an acetal/aminal-like group ( X-CH(R)-Y where X, Y are N, S, or O) that may be acid/base labile, releasing an aldehyde.

>  <s_lp_Force_Field>  (126) 
OPLS3e

>  <r_lp_Energy>  (126) 
252.914

>  <b_lp_Chiralities_Consistent>  (126) 
1

>  <s_lp_Variant>  (126) 
32:0-1

>  <s_i_glide_gridfile>  (126) 
pfpi4k_grid

>  <i_i_glide_lignum>  (126) 
8

>  <i_i_glide_rotatable_bonds>  (126) 
2

>  <r_i_docking_score>  (126) 
-2.89905

>  <r_i_glide_ligand_efficiency>  (126) 
-0.13805

>  <r_i_glide_ligand_efficiency_sa>  (126) 
-0.38087

>  <r_i_glide_ligand_efficiency_ln>  (126) 
-0.716785

>  <r_i_glide_gscore>  (126) 
-2.89905

>  <r_i_glide_lipo>  (126) 
0

>  <r_i_glide_hbond>  (126) 
-0.00335362

>  <r_i_glide_metal>  (126) 
-0

>  <r_i_glide_rewards>  (126) 
-1.41537

>  <r_i_glide_evdw>  (126) 
-11.2055

>  <r_i_glide_ecoul>  (126) 
-5.59009

>  <r_i_glide_erotb>  (126) 
0

>  <r_i_glide_esite>  (126) 
-0.0815423

>  <r_i_glide_emodel>  (126) 
-18.8472

>  <r_i_glide_energy>  (126) 
-16.7956

>  <r_i_glide_einternal>  (126) 
1.97526

>  <r_i_glide_intrahb_reward>  (126) 
-0

>  <i_i_glide_confnum>  (126) 
2

>  <i_i_glide_posenum>  (126) 
5

>  <r_i_glide_eff_state_penalty>  (126) 
0

>  <ligand_id>  (126) 
32

>  <original_smiles>  (126) 
COC12CCC3C4CCCC5C1CCC3(CC2)C5OC4O

>  <smiles>  (126) 
[H]OC1([H])OC2([H])C3([H])C([H])([H])C([H])([H])C([H])([H])C1([H])C1([H])C([H])([H])C([H])([H])C4(OC([H])([H])[H])C([H])([H])C([H])([H])C21C([H])([H])C([H])([H])C34[H]

$$$$
32:0:1
     RDKit          3D

 49 53  0  0  1  0  0  0  0  0999 V2000
    0.0612   -2.7113    6.5367 C   0  0  0  0  0  0  0  0  0  0  0  0
   -0.9661   -1.7064    6.4303 O   0  0  0  0  0  0  0  0  0  0  0  0
   -0.5921   -0.3260    6.2131 C   0  0  2  0  0  0  0  0  0  0  0  0
   -1.9684    0.3941    6.0538 C   0  0  0  0  0  0  0  0  0  0  0  0
   -1.9617    1.8772    6.4417 C   0  0  0  0  0  0  0  0  0  0  0  0
   -0.7566    2.7520    5.9294 C   0  0  2  0  0  0  0  0  0  0  0  0
   -1.2663    3.7003    4.7968 C   0  0  2  0  0  0  0  0  0  0  0  0
   -2.2204    3.1374    3.6929 C   0  0  0  0  0  0  0  0  0  0  0  0
   -1.6268    2.2635    2.5861 C   0  0  0  0  0  0  0  0  0  0  0  0
   -1.0137    0.9176    2.9767 C   0  0  0  0  0  0  0  0  0  0  0  0
    0.2231    0.9074    3.9099 C   0  0  2  0  0  0  0  0  0  0  0  0
    0.3510   -0.2429    4.9380 C   0  0  1  0  0  0  0  0  0  0  0  0
    1.8155   -0.1313    5.3998 C   0  0  0  0  0  0  0  0  0  0  0  0
    2.0722    1.2759    6.0275 C   0  0  0  0  0  0  0  0  0  0  0  0
    0.8679    2.3979    6.0671 C   0  0  2  0  0  0  0  0  0  0  0  0
    0.5209    1.7104    7.4889 C   0  0  0  0  0  0  0  0  0  0  0  0
    0.0270    0.2337    7.5370 C   0  0  0  0  0  0  0  0  0  0  0  0
    0.8630    2.2158    4.4601 C   0  0  2  0  0  0  0  0  0  0  0  0
    0.7577    3.4126    3.6878 O   0  0  0  0  0  0  0  0  0  0  0  0
   -0.0436    4.3846    4.2112 C   0  0  1  0  0  0  0  0  0  0  0  0
   -0.3991    5.3675    3.2510 O   0  0  0  0  0  0  0  0  0  0  0  0
    0.5220   -2.9218    5.5657 H   0  0  0  0  0  0  0  0  0  0  0  0
   -0.3909   -3.6472    6.8687 H   0  0  0  0  0  0  0  0  0  0  0  0
    0.8429   -2.4355    7.2436 H   0  0  0  0  0  0  0  0  0  0  0  0
   -2.4439    0.2339    5.1011 H   0  0  0  0  0  0  0  0  0  0  0  0
   -2.7192   -0.0122    6.7144 H   0  0  0  0  0  0  0  0  0  0  0  0
   -2.9092    2.3482    6.1670 H   0  0  0  0  0  0  0  0  0  0  0  0
   -2.0481    1.9515    7.5228 H   0  0  0  0  0  0  0  0  0  0  0  0
   -0.7895    3.5576    6.6744 H   0  0  0  0  0  0  0  0  0  0  0  0
   -1.8448    4.4933    5.2678 H   0  0  0  0  0  0  0  0  0  0  0  0
   -3.0762    2.6031    4.1097 H   0  0  0  0  0  0  0  0  0  0  0  0
   -2.6547    3.9939    3.1800 H   0  0  0  0  0  0  0  0  0  0  0  0
   -2.4325    2.0402    1.8830 H   0  0  0  0  0  0  0  0  0  0  0  0
   -0.8826    2.8291    2.0390 H   0  0  0  0  0  0  0  0  0  0  0  0
   -1.7772    0.2072    3.2650 H   0  0  0  0  0  0  0  0  0  0  0  0
   -0.6917    0.4846    2.0307 H   0  0  0  0  0  0  0  0  0  0  0  0
    0.9581    0.6285    3.1541 H   0  0  0  0  0  0  0  0  0  0  0  0
    0.1727   -1.1453    4.3373 H   0  0  0  0  0  0  0  0  0  0  0  0
    2.1024   -0.9059    6.1068 H   0  0  0  0  0  0  0  0  0  0  0  0
    2.4723   -0.2388    4.5351 H   0  0  0  0  0  0  0  0  0  0  0  0
    2.6162    1.0713    6.9502 H   0  0  0  0  0  0  0  0  0  0  0  0
    2.9675    1.7232    5.5865 H   0  0  0  0  0  0  0  0  0  0  0  0
    1.3218    1.8192    8.2192 H   0  0  0  0  0  0  0  0  0  0  0  0
   -0.1147    2.3128    8.1364 H   0  0  0  0  0  0  0  0  0  0  0  0
   -0.7290    0.1687    8.3263 H   0  0  0  0  0  0  0  0  0  0  0  0
    0.8462   -0.3922    7.8893 H   0  0  0  0  0  0  0  0  0  0  0  0
    1.8658    2.1530    4.0160 H   0  0  0  0  0  0  0  0  0  0  0  0
    0.5212    4.8939    4.9963 H   0  0  0  0  0  0  0  0  0  0  0  0
   -0.1896    4.9893    2.3891 H   0  0  0  0  0  0  0  0  0  0  0  0
  1  2  1  0
  1 22  1  0
  1 23  1  0
  1 24  1  0
  3  2  1  1
  3 12  1  0
  3 17  1  0
  3  4  1  0
  4  5  1  0
  4 25  1  0
  4 26  1  0
  5  6  1  0
  5 27  1  0
  5 28  1  0
  6 15  1  0
  6  7  1  0
  6 29  1  1
  7 20  1  0
  7  8  1  0
  7 30  1  1
  8  9  1  0
  8 31  1  0
  8 32  1  0
  9 10  1  0
  9 33  1  0
  9 34  1  0
 10 11  1  0
 10 35  1  0
 10 36  1  0
 11 18  1  0
 11 12  1  0
 11 37  1  6
 12 13  1  0
 12 38  1  6
 13 14  1  0
 13 39  1  0
 13 40  1  0
 15 14  1  6
 14 41  1  0
 14 42  1  0
 15 16  1  0
 15 18  1  0
 16 17  1  0
 16 43  1  0
 16 44  1  0
 17 45  1  0
 17 46  1  0
 18 19  1  0
 18 47  1  6
 19 20  1  0
 20 21  1  0
 20 48  1  1
 21 49  1  0
M  END
>  <i_m_ct_stereo_status>  (127) 
1

>  <s_m_source_file>  (127) 
/var/tmp/pbs.5076255.sched01/tmp8yzwbncg/40d_vk9m1l.sdf

>  <i_m_source_file_index>  (127) 
8

>  <i_lp_mmshare_version>  (127) 
48012

>  <i_f3d_flags>  (127) 
0

>  <s_epik_input>  (127) 
W0NIM11PW0NAXShbQ0gyXVtDSDJdMSkoW0NIMl1bQ0gyXTIpW0NASF0oW0NIMl1bQ0gyXTMpW0NASF0oW0NASF00T1tDQEhdNVtPSF0pW0NIMl1bQ0gyXVtDSDJdW0NASF01W0NAQEhdMVtDQF0yMzQ=

>  <s_epik_cmdline>  (127) 
J2VwaWtfcHl0aG9uJywgJy1waHQnLCAnMi4wJywgJy1waCcsICc3LjAnLCAnLXRuJywgJzgnLCAnLW1hJywgJzIwMCcsICctaW1hZScsICc8aW5maWxlLm1hZT4nLCAnLW9tYWUnLCAnPG91dGZpbGUubWFlPic=

>  <r_lp_tautomer_probability>  (127) 
1

>  <r_epik_Ionization_Penalty>  (127) 
2.47861e-08

>  <r_epik_Ionization_Penalty_Charging>  (127) 
0

>  <r_epik_Ionization_Penalty_Neutral>  (127) 
2.47861e-08

>  <r_epik_State_Penalty>  (127) 
-0

>  <r_epik_Charging_Adjusted_Penalty>  (127) 
0

>  <i_epik_Tot_Q>  (127) 
0

>  <i_epik_Tot_abs_Q>  (127) 
0

>  <s_epik_Chemistry_Notes>  (127) 
This compound contains an acetal/aminal-like group ( X-CH(R)-Y where X, Y are N, S, or O) that may be acid/base labile, releasing an aldehyde.

>  <s_lp_Force_Field>  (127) 
OPLS3e

>  <r_lp_Energy>  (127) 
252.914

>  <b_lp_Chiralities_Consistent>  (127) 
1

>  <s_lp_Variant>  (127) 
32:0-1

>  <s_i_glide_gridfile>  (127) 
pfpi4k_grid

>  <i_i_glide_lignum>  (127) 
8

>  <i_i_glide_rotatable_bonds>  (127) 
2

>  <r_i_docking_score>  (127) 
-2.80644

>  <r_i_glide_ligand_efficiency>  (127) 
-0.13364

>  <r_i_glide_ligand_efficiency_sa>  (127) 
-0.368702

>  <r_i_glide_ligand_efficiency_ln>  (127) 
-0.693886

>  <r_i_glide_gscore>  (127) 
-2.80644

>  <r_i_glide_lipo>  (127) 
0

>  <r_i_glide_hbond>  (127) 
-0.00144493

>  <r_i_glide_metal>  (127) 
-0

>  <r_i_glide_rewards>  (127) 
-1.41537

>  <r_i_glide_evdw>  (127) 
-12.2254

>  <r_i_glide_ecoul>  (127) 
-4.75186

>  <r_i_glide_erotb>  (127) 
0

>  <r_i_glide_esite>  (127) 
-0.0655769

>  <r_i_glide_emodel>  (127) 
-17.057

>  <r_i_glide_energy>  (127) 
-16.9773

>  <r_i_glide_einternal>  (127) 
5.46762

>  <r_i_glide_intrahb_reward>  (127) 
-0

>  <i_i_glide_confnum>  (127) 
2

>  <i_i_glide_posenum>  (127) 
8

>  <r_i_glide_eff_state_penalty>  (127) 
0

>  <ligand_id>  (127) 
32

>  <original_smiles>  (127) 
COC12CCC3C4CCCC5C1CCC3(CC2)C5OC4O

>  <smiles>  (127) 
[H]OC1([H])OC2([H])C3([H])C([H])([H])C([H])([H])C([H])([H])C1([H])C1([H])C([H])([H])C([H])([H])C4(OC([H])([H])[H])C([H])([H])C([H])([H])C21C([H])([H])C([H])([H])C34[H]

$$$$
32:0:2
     RDKit          3D

 49 53  0  0  1  0  0  0  0  0999 V2000
    0.2819    5.8830    3.7222 C   0  0  0  0  0  0  0  0  0  0  0  0
   -0.1135    5.3564    4.9893 O   0  0  0  0  0  0  0  0  0  0  0  0
   -0.0013    3.9439    5.2057 C   0  0  2  0  0  0  0  0  0  0  0  0
    1.4131    3.4597    4.8093 C   0  0  0  0  0  0  0  0  0  0  0  0
    1.8885    2.2243    5.5787 C   0  0  0  0  0  0  0  0  0  0  0  0
    0.8561    1.0535    5.7953 C   0  0  2  0  0  0  0  0  0  0  0  0
    1.2462   -0.1504    4.8656 C   0  0  2  0  0  0  0  0  0  0  0  0
    1.6314    0.1294    3.3732 C   0  0  0  0  0  0  0  0  0  0  0  0
    0.5180    0.4328    2.3548 C   0  0  0  0  0  0  0  0  0  0  0  0
   -0.2803    1.7262    2.5521 C   0  0  0  0  0  0  0  0  0  0  0  0
   -1.1533    1.8844    3.8275 C   0  0  2  0  0  0  0  0  0  0  0  0
   -1.2493    3.2909    4.4755 C   0  0  1  0  0  0  0  0  0  0  0  0
   -2.4143    3.1563    5.4647 C   0  0  0  0  0  0  0  0  0  0  0  0
   -2.1055    2.0250    6.4996 C   0  0  0  0  0  0  0  0  0  0  0  0
   -0.6861    1.1868    6.4122 C   0  0  2  0  0  0  0  0  0  0  0  0
   -0.1603    2.4044    7.3376 C   0  0  0  0  0  0  0  0  0  0  0  0
   -0.0674    3.8518    6.7577 C   0  0  0  0  0  0  0  0  0  0  0  0
   -1.2059    0.7830    4.9300 C   0  0  2  0  0  0  0  0  0  0  0  0
   -1.0097   -0.5732    4.5156 O   0  0  0  0  0  0  0  0  0  0  0  0
    0.1309   -1.1776    4.9880 C   0  0  1  0  0  0  0  0  0  0  0  0
    0.4320   -2.3639    4.2924 O   0  0  0  0  0  0  0  0  0  0  0  0
    1.3620    5.8526    3.5799 H   0  0  0  0  0  0  0  0  0  0  0  0
   -0.0146    6.9293    3.6869 H   0  0  0  0  0  0  0  0  0  0  0  0
   -0.1882    5.3794    2.8774 H   0  0  0  0  0  0  0  0  0  0  0  0
    1.5552    3.3440    3.7460 H   0  0  0  0  0  0  0  0  0  0  0  0
    2.1260    4.2444    5.0645 H   0  0  0  0  0  0  0  0  0  0  0  0
    2.7964    1.8490    5.1121 H   0  0  0  0  0  0  0  0  0  0  0  0
    2.3084    2.5569    6.5283 H   0  0  0  0  0  0  0  0  0  0  0  0
    1.3071    0.5926    6.6796 H   0  0  0  0  0  0  0  0  0  0  0  0
    2.1328   -0.6190    5.2972 H   0  0  0  0  0  0  0  0  0  0  0  0
    2.3773    0.9160    3.2884 H   0  0  0  0  0  0  0  0  0  0  0  0
    2.1535   -0.7541    3.0051 H   0  0  0  0  0  0  0  0  0  0  0  0
    0.9888    0.5031    1.3706 H   0  0  0  0  0  0  0  0  0  0  0  0
   -0.1632   -0.4070    2.2648 H   0  0  0  0  0  0  0  0  0  0  0  0
    0.3443    2.5884    2.3628 H   0  0  0  0  0  0  0  0  0  0  0  0
   -0.9616    1.7680    1.7008 H   0  0  0  0  0  0  0  0  0  0  0  0
   -2.1378    1.7715    3.3661 H   0  0  0  0  0  0  0  0  0  0  0  0
   -1.5843    3.9577    3.6826 H   0  0  0  0  0  0  0  0  0  0  0  0
   -2.6243    4.1020    5.9615 H   0  0  0  0  0  0  0  0  0  0  0  0
   -3.3377    2.9357    4.9282 H   0  0  0  0  0  0  0  0  0  0  0  0
   -2.4140    2.4325    7.4661 H   0  0  0  0  0  0  0  0  0  0  0  0
   -2.9481    1.3339    6.5262 H   0  0  0  0  0  0  0  0  0  0  0  0
   -0.6613    2.4570    8.3070 H   0  0  0  0  0  0  0  0  0  0  0  0
    0.7755    2.1821    7.8468 H   0  0  0  0  0  0  0  0  0  0  0  0
    0.8119    4.3385    7.1827 H   0  0  0  0  0  0  0  0  0  0  0  0
   -0.8874    4.4547    7.1490 H   0  0  0  0  0  0  0  0  0  0  0  0
   -2.2648    0.5088    4.9035 H   0  0  0  0  0  0  0  0  0  0  0  0
   -0.0352   -1.4547    6.0292 H   0  0  0  0  0  0  0  0  0  0  0  0
    0.7306   -2.1171    3.4308 H   0  0  0  0  0  0  0  0  0  0  0  0
  1  2  1  0
  1 22  1  0
  1 23  1  0
  1 24  1  0
  3  2  1  1
  3 12  1  0
  3 17  1  0
  3  4  1  0
  4  5  1  0
  4 25  1  0
  4 26  1  0
  5  6  1  0
  5 27  1  0
  5 28  1  0
  6 15  1  0
  6  7  1  0
  6 29  1  1
  7 20  1  0
  7  8  1  0
  7 30  1  1
  8  9  1  0
  8 31  1  0
  8 32  1  0
  9 10  1  0
  9 33  1  0
  9 34  1  0
 10 11  1  0
 10 35  1  0
 10 36  1  0
 11 18  1  0
 11 12  1  0
 11 37  1  6
 12 13  1  0
 12 38  1  6
 13 14  1  0
 13 39  1  0
 13 40  1  0
 15 14  1  6
 14 41  1  0
 14 42  1  0
 15 16  1  0
 15 18  1  0
 16 17  1  0
 16 43  1  0
 16 44  1  0
 17 45  1  0
 17 46  1  0
 18 19  1  0
 18 47  1  1
 19 20  1  0
 20 21  1  0
 20 48  1  1
 21 49  1  0
M  END
>  <i_m_ct_stereo_status>  (128) 
1

>  <s_m_source_file>  (128) 
/var/tmp/pbs.5076255.sched01/tmp8yzwbncg/40d_vk9m1l.sdf

>  <i_m_source_file_index>  (128) 
8

>  <i_lp_mmshare_version>  (128) 
48012

>  <i_f3d_flags>  (128) 
0

>  <s_epik_input>  (128) 
W0NIM11PW0NAXShbQ0gyXVtDSDJdMSkoW0NIMl1bQ0gyXTIpW0NASF0oW0NIMl1bQ0gyXTMpW0NASF0oW0NASF00T1tDQEhdNVtPSF0pW0NIMl1bQ0gyXVtDSDJdW0NASF01W0NAQEhdMVtDQF0yMzQ=

>  <s_epik_cmdline>  (128) 
J2VwaWtfcHl0aG9uJywgJy1waHQnLCAnMi4wJywgJy1waCcsICc3LjAnLCAnLXRuJywgJzgnLCAnLW1hJywgJzIwMCcsICctaW1hZScsICc8aW5maWxlLm1hZT4nLCAnLW9tYWUnLCAnPG91dGZpbGUubWFlPic=

>  <r_lp_tautomer_probability>  (128) 
1

>  <r_epik_Ionization_Penalty>  (128) 
2.47861e-08

>  <r_epik_Ionization_Penalty_Charging>  (128) 
0

>  <r_epik_Ionization_Penalty_Neutral>  (128) 
2.47861e-08

>  <r_epik_State_Penalty>  (128) 
-0

>  <r_epik_Charging_Adjusted_Penalty>  (128) 
0

>  <i_epik_Tot_Q>  (128) 
0

>  <i_epik_Tot_abs_Q>  (128) 
0

>  <s_epik_Chemistry_Notes>  (128) 
This compound contains an acetal/aminal-like group ( X-CH(R)-Y where X, Y are N, S, or O) that may be acid/base labile, releasing an aldehyde.

>  <s_lp_Force_Field>  (128) 
OPLS3e

>  <r_lp_Energy>  (128) 
252.914

>  <b_lp_Chiralities_Consistent>  (128) 
1

>  <s_lp_Variant>  (128) 
32:0-1

>  <s_i_glide_gridfile>  (128) 
pfpi4k_grid

>  <i_i_glide_lignum>  (128) 
8

>  <i_i_glide_rotatable_bonds>  (128) 
2

>  <r_i_docking_score>  (128) 
-2.39936

>  <r_i_glide_ligand_efficiency>  (128) 
-0.114255

>  <r_i_glide_ligand_efficiency_sa>  (128) 
-0.315221

>  <r_i_glide_ligand_efficiency_ln>  (128) 
-0.593236

>  <r_i_glide_gscore>  (128) 
-2.39936

>  <r_i_glide_lipo>  (128) 
0

>  <r_i_glide_hbond>  (128) 
0

>  <r_i_glide_metal>  (128) 
-0

>  <r_i_glide_rewards>  (128) 
-1.41537

>  <r_i_glide_evdw>  (128) 
-14.9493

>  <r_i_glide_ecoul>  (128) 
-1.49479

>  <r_i_glide_erotb>  (128) 
0

>  <r_i_glide_esite>  (128) 
-0.0123067

>  <r_i_glide_emodel>  (128) 
-19.289

>  <r_i_glide_energy>  (128) 
-16.4441

>  <r_i_glide_einternal>  (128) 
0.0133199

>  <r_i_glide_intrahb_reward>  (128) 
-0

>  <i_i_glide_confnum>  (128) 
2

>  <i_i_glide_posenum>  (128) 
12

>  <r_i_glide_eff_state_penalty>  (128) 
0

>  <ligand_id>  (128) 
32

>  <original_smiles>  (128) 
COC12CCC3C4CCCC5C1CCC3(CC2)C5OC4O

>  <smiles>  (128) 
[H]OC1([H])OC2([H])C3([H])C([H])([H])C([H])([H])C([H])([H])C1([H])C1([H])C([H])([H])C([H])([H])C4(OC([H])([H])[H])C([H])([H])C([H])([H])C21C([H])([H])C([H])([H])C34[H]

$$$$
36:0:0
     RDKit          3D

 44 48  0  0  1  0  0  0  0  0999 V2000
    2.2970   -4.6497    1.8585 C   0  0  0  0  0  0  0  0  0  0  0  0
    3.7739   -4.5422    1.8329 N   0  0  1  0  0  0  0  0  0  0  0  0
    4.4406   -5.8326    2.1136 C   0  0  0  0  0  0  0  0  0  0  0  0
    5.9304   -5.6209    2.3814 C   0  0  0  0  0  0  0  0  0  0  0  0
    6.5519   -4.9045    1.1770 C   0  0  2  0  0  0  0  0  0  0  0  0
    8.0555   -4.8333    1.2699 C   0  0  0  0  0  0  0  0  0  0  0  0
    8.7435   -3.8199    0.7431 C   0  0  0  0  0  0  0  0  0  0  0  0
    8.1228   -2.6493    0.0252 C   0  0  0  0  0  0  0  0  0  0  0  0
    6.6034   -2.6949   -0.1515 C   0  0  1  0  0  0  0  0  0  0  0  0
    6.0321   -1.4038   -0.4068 O   0  0  0  0  0  0  0  0  0  0  0  0
    6.0669   -2.2888   -1.5196 C   0  0  2  0  0  0  0  0  0  0  0  0
    4.6932   -2.3787   -2.0953 C   0  0  0  0  0  0  0  0  0  0  0  0
    4.3436   -1.4253   -3.0721 C   0  0  0  0  0  0  0  0  0  0  0  0
    3.1302   -1.5115   -3.7600 C   0  0  0  0  0  0  0  0  0  0  0  0
    2.8562   -0.5860   -4.7236 O   0  0  0  0  0  0  0  0  0  0  0  0
    2.2248   -2.5454   -3.4660 C   0  0  0  0  0  0  0  0  0  0  0  0
    2.5301   -3.4437   -2.4328 C   0  0  0  0  0  0  0  0  0  0  0  0
    3.7543   -3.3747   -1.7483 C   0  0  0  0  0  0  0  0  0  0  0  0
    4.0399   -4.4043   -0.6798 C   0  0  0  0  0  0  0  0  0  0  0  0
    4.3336   -3.7555    0.6880 C   0  0  2  0  0  0  0  0  0  0  0  0
    5.8547   -3.5293    0.9201 C   0  0  1  0  0  0  0  0  0  0  0  0
    5.9079   -2.7629    2.1088 O   0  0  0  0  0  0  0  0  0  0  0  0
    1.9291   -5.3697    1.1266 H   0  0  0  0  0  0  0  0  0  0  0  0
    1.8349   -3.6807    1.6674 H   0  0  0  0  0  0  0  0  0  0  0  0
    1.9459   -4.9841    2.8338 H   0  0  0  0  0  0  0  0  0  0  0  0
    3.9888   -6.2945    2.9891 H   0  0  0  0  0  0  0  0  0  0  0  0
    4.2808   -6.5283    1.2903 H   0  0  0  0  0  0  0  0  0  0  0  0
    6.0858   -5.0634    3.3093 H   0  0  0  0  0  0  0  0  0  0  0  0
    6.3922   -6.5925    2.5380 H   0  0  0  0  0  0  0  0  0  0  0  0
    6.4038   -5.5519    0.3191 H   0  0  0  0  0  0  0  0  0  0  0  0
    8.5649   -5.6568    1.7545 H   0  0  0  0  0  0  0  0  0  0  0  0
    9.8123   -3.7964    0.8126 H   0  0  0  0  0  0  0  0  0  0  0  0
    8.4105   -1.7369    0.5481 H   0  0  0  0  0  0  0  0  0  0  0  0
    8.5883   -2.5963   -0.9608 H   0  0  0  0  0  0  0  0  0  0  0  0
    6.7843   -2.0227   -2.3006 H   0  0  0  0  0  0  0  0  0  0  0  0
    5.0100   -0.6237   -3.3315 H   0  0  0  0  0  0  0  0  0  0  0  0
    2.1677   -0.8828   -5.3094 H   0  0  0  0  0  0  0  0  0  0  0  0
    1.2977   -2.6439   -3.9964 H   0  0  0  0  0  0  0  0  0  0  0  0
    1.8078   -4.2216   -2.2167 H   0  0  0  0  0  0  0  0  0  0  0  0
    3.1854   -5.0713   -0.6223 H   0  0  0  0  0  0  0  0  0  0  0  0
    4.8648   -5.0254   -1.0216 H   0  0  0  0  0  0  0  0  0  0  0  0
    3.8290   -2.7883    0.7182 H   0  0  0  0  0  0  0  0  0  0  0  0
    5.5991   -1.8901    1.9146 H   0  0  0  0  0  0  0  0  0  0  0  0
    4.0058   -3.9772    2.6401 H   0  0  0  0  0  0  0  0  0  0  0  0
  1  2  1  0
  1 23  1  0
  1 24  1  0
  1 25  1  0
  2 20  1  0
  2  3  1  0
  2 44  1  1
  3  4  1  0
  3 26  1  0
  3 27  1  0
  4  5  1  0
  4 28  1  0
  4 29  1  0
  5 21  1  0
  5  6  1  0
  5 30  1  6
  6  7  2  0
  6 31  1  0
  7  8  1  0
  7 32  1  0
  8  9  1  0
  8 33  1  0
  8 34  1  0
  9 11  1  0
  9 21  1  0
  9 10  1  1
 10 11  1  0
 11 12  1  0
 11 35  1  6
 12 18  2  0
 12 13  1  0
 13 14  2  0
 13 36  1  0
 14 15  1  0
 14 16  1  0
 15 37  1  0
 16 17  2  0
 16 38  1  0
 17 18  1  0
 17 39  1  0
 18 19  1  0
 19 20  1  0
 19 40  1  0
 19 41  1  0
 20 21  1  0
 20 42  1  6
 21 22  1  1
 22 43  1  0
M  CHG  1   2   1
M  END
>  <i_m_ct_stereo_status>  (129) 
1

>  <s_m_source_file>  (129) 
/var/tmp/pbs.5076255.sched01/tmp8yzwbncg/40d_vk9m1l.sdf

>  <i_m_source_file_index>  (129) 
12

>  <i_lp_mmshare_version>  (129) 
48012

>  <i_f3d_flags>  (129) 
1

>  <s_epik_input>  (129) 
W0NIM11OMVtDSDJdW0NIMl1bQ0BIXShbQ0hdPVtDSF1bQ0gyXTIpW0NAXTMoW09IXSlbQ0BIXTFbQ0gyXWMoYzRbQ0BIXShbQ0BdMjM1KU81KVtjSF1bY0hdYyhbY0hdNClbT0hd

>  <s_epik_cmdline>  (129) 
J2VwaWtfcHl0aG9uJywgJy1waHQnLCAnMi4wJywgJy1waCcsICc3LjAnLCAnLXRuJywgJzgnLCAnLW1hJywgJzIwMCcsICctaW1hZScsICc8aW5maWxlLm1hZT4nLCAnLW9tYWUnLCAnPG91dGZpbGUubWFlPic=

>  <r_lp_tautomer_probability>  (129) 
1

>  <r_epik_Ionization_Penalty>  (129) 
0.0374127

>  <r_epik_Ionization_Penalty_Charging>  (129) 
0.0352852

>  <r_epik_Ionization_Penalty_Neutral>  (129) 
0.00212754

>  <r_epik_State_Penalty>  (129) 
0.0294076

>  <r_epik_Charging_Adjusted_Penalty>  (129) 
0.0646928

>  <i_epik_Tot_Q>  (129) 
1

>  <i_epik_Tot_abs_Q>  (129) 
1

>  <s_lp_Force_Field>  (129) 
OPLS3e

>  <r_lp_Energy>  (129) 
41.3839

>  <b_lp_Chiralities_Consistent>  (129) 
1

>  <s_lp_Variant>  (129) 
36:0-1

>  <s_i_glide_gridfile>  (129) 
pfpi4k_grid

>  <i_i_glide_lignum>  (129) 
12

>  <i_i_glide_rotatable_bonds>  (129) 
2

>  <r_i_docking_score>  (129) 
-4.63472

>  <r_i_glide_ligand_efficiency>  (129) 
-0.210669

>  <r_i_glide_ligand_efficiency_sa>  (129) 
-0.590303

>  <r_i_glide_ligand_efficiency_ln>  (129) 
-1.13289

>  <r_i_glide_gscore>  (129) 
-4.63472

>  <r_i_glide_lipo>  (129) 
-1.13992

>  <r_i_glide_hbond>  (129) 
-0.31752

>  <r_i_glide_metal>  (129) 
-0

>  <r_i_glide_rewards>  (129) 
-1.3611

>  <r_i_glide_evdw>  (129) 
-21.0831

>  <r_i_glide_ecoul>  (129) 
-5.08016

>  <r_i_glide_erotb>  (129) 
0

>  <r_i_glide_esite>  (129) 
0

>  <r_i_glide_emodel>  (129) 
-33.4462

>  <r_i_glide_energy>  (129) 
-26.1633

>  <r_i_glide_einternal>  (129) 
0.53316

>  <r_i_glide_intrahb_reward>  (129) 
-0

>  <i_i_glide_confnum>  (129) 
2

>  <i_i_glide_posenum>  (129) 
27

>  <r_i_glide_eff_state_penalty>  (129) 
0

>  <ligand_id>  (129) 
36

>  <original_smiles>  (129) 
CN1CCC2C=CCC34OC3c3cc(O)ccc3CC1C24O

>  <smiles>  (129) 
[H]Oc1c([H])c([H])c2c(c1[H])C1([H])OC13C([H])([H])C([H])=C([H])C1([H])C([H])([H])C([H])([H])[N+]([H])(C([H])([H])[H])C([H])(C2([H])[H])C13O[H]

$$$$
36:0:1
     RDKit          3D

 44 48  0  0  1  0  0  0  0  0999 V2000
    2.3080   -2.4805   -2.3221 C   0  0  0  0  0  0  0  0  0  0  0  0
    3.3186   -3.2607   -1.5792 N   0  0  1  0  0  0  0  0  0  0  0  0
    4.6842   -2.9973   -2.0831 C   0  0  0  0  0  0  0  0  0  0  0  0
    5.6597   -4.0263   -1.5182 C   0  0  0  0  0  0  0  0  0  0  0  0
    5.6336   -3.9981    0.0167 C   0  0  2  0  0  0  0  0  0  0  0  0
    6.7152   -4.8493    0.6425 C   0  0  0  0  0  0  0  0  0  0  0  0
    6.5576   -5.4458    1.8304 C   0  0  0  0  0  0  0  0  0  0  0  0
    5.2852   -5.3504    2.6453 C   0  0  0  0  0  0  0  0  0  0  0  0
    4.1708   -4.4490    2.0828 C   0  0  1  0  0  0  0  0  0  0  0  0
    2.8688   -4.7513    2.6181 O   0  0  0  0  0  0  0  0  0  0  0  0
    3.4557   -3.5471    3.0872 C   0  0  2  0  0  0  0  0  0  0  0  0
    2.4894   -2.4252    2.8912 C   0  0  0  0  0  0  0  0  0  0  0  0
    1.5622   -2.1798    3.9309 C   0  0  0  0  0  0  0  0  0  0  0  0
    0.6662   -1.0958    3.8688 C   0  0  0  0  0  0  0  0  0  0  0  0
   -0.2303   -0.8757    4.8732 O   0  0  0  0  0  0  0  0  0  0  0  0
    0.7017   -0.2347    2.7665 C   0  0  0  0  0  0  0  0  0  0  0  0
    1.6206   -0.4674    1.7301 C   0  0  0  0  0  0  0  0  0  0  0  0
    2.4864   -1.5807    1.7561 C   0  0  0  0  0  0  0  0  0  0  0  0
    3.3781   -1.8408    0.5478 C   0  0  0  0  0  0  0  0  0  0  0  0
    3.1952   -3.2586   -0.0737 C   0  0  2  0  0  0  0  0  0  0  0  0
    4.1934   -4.3043    0.5406 C   0  0  1  0  0  0  0  0  0  0  0  0
    3.8135   -5.6065    0.0947 O   0  0  0  0  0  0  0  0  0  0  0  0
    2.5056   -1.4105   -2.2622 H   0  0  0  0  0  0  0  0  0  0  0  0
    1.3178   -2.7076   -1.9404 H   0  0  0  0  0  0  0  0  0  0  0  0
    2.3069   -2.7451   -3.3831 H   0  0  0  0  0  0  0  0  0  0  0  0
    4.6892   -3.0822   -3.1701 H   0  0  0  0  0  0  0  0  0  0  0  0
    5.0054   -1.9838   -1.8421 H   0  0  0  0  0  0  0  0  0  0  0  0
    5.4053   -5.0202   -1.8921 H   0  0  0  0  0  0  0  0  0  0  0  0
    6.6593   -3.8055   -1.8959 H   0  0  0  0  0  0  0  0  0  0  0  0
    5.9294   -2.9929    0.3048 H   0  0  0  0  0  0  0  0  0  0  0  0
    7.6574   -4.9232    0.1165 H   0  0  0  0  0  0  0  0  0  0  0  0
    7.3677   -6.0056    2.2707 H   0  0  0  0  0  0  0  0  0  0  0  0
    4.9008   -6.3606    2.7969 H   0  0  0  0  0  0  0  0  0  0  0  0
    5.5648   -4.9729    3.6293 H   0  0  0  0  0  0  0  0  0  0  0  0
    3.7804   -3.5799    4.1245 H   0  0  0  0  0  0  0  0  0  0  0  0
    1.5486   -2.8221    4.7992 H   0  0  0  0  0  0  0  0  0  0  0  0
   -0.7092   -0.0695    4.7500 H   0  0  0  0  0  0  0  0  0  0  0  0
    0.0228    0.5968    2.6781 H   0  0  0  0  0  0  0  0  0  0  0  0
    1.6105    0.1991    0.8791 H   0  0  0  0  0  0  0  0  0  0  0  0
    3.1899   -1.0568   -0.1883 H   0  0  0  0  0  0  0  0  0  0  0  0
    4.4006   -1.6679    0.8765 H   0  0  0  0  0  0  0  0  0  0  0  0
    2.1819   -3.5908    0.1406 H   0  0  0  0  0  0  0  0  0  0  0  0
    3.7563   -5.6560   -0.8472 H   0  0  0  0  0  0  0  0  0  0  0  0
    3.1145   -4.2062   -1.8615 H   0  0  0  0  0  0  0  0  0  0  0  0
  1  2  1  0
  1 23  1  0
  1 24  1  0
  1 25  1  0
  2 20  1  0
  2  3  1  0
  2 44  1  6
  3  4  1  0
  3 26  1  0
  3 27  1  0
  4  5  1  0
  4 28  1  0
  4 29  1  0
  5 21  1  0
  5  6  1  0
  5 30  1  6
  6  7  2  0
  6 31  1  0
  7  8  1  0
  7 32  1  0
  8  9  1  0
  8 33  1  0
  8 34  1  0
  9 11  1  0
  9 21  1  0
  9 10  1  6
 10 11  1  0
 11 12  1  0
 11 35  1  1
 12 18  2  0
 12 13  1  0
 13 14  2  0
 13 36  1  0
 14 15  1  0
 14 16  1  0
 15 37  1  0
 16 17  2  0
 16 38  1  0
 17 18  1  0
 17 39  1  0
 18 19  1  0
 19 20  1  0
 19 40  1  0
 19 41  1  0
 20 21  1  0
 20 42  1  6
 21 22  1  6
 22 43  1  0
M  CHG  1   2   1
M  END
>  <i_m_ct_stereo_status>  (130) 
1

>  <s_m_source_file>  (130) 
/var/tmp/pbs.5076255.sched01/tmp8yzwbncg/40d_vk9m1l.sdf

>  <i_m_source_file_index>  (130) 
12

>  <i_lp_mmshare_version>  (130) 
48012

>  <i_f3d_flags>  (130) 
1

>  <s_epik_input>  (130) 
W0NIM11OMVtDSDJdW0NIMl1bQ0BIXShbQ0hdPVtDSF1bQ0gyXTIpW0NAXTMoW09IXSlbQ0BIXTFbQ0gyXWMoYzRbQ0BIXShbQ0BdMjM1KU81KVtjSF1bY0hdYyhbY0hdNClbT0hd

>  <s_epik_cmdline>  (130) 
J2VwaWtfcHl0aG9uJywgJy1waHQnLCAnMi4wJywgJy1waCcsICc3LjAnLCAnLXRuJywgJzgnLCAnLW1hJywgJzIwMCcsICctaW1hZScsICc8aW5maWxlLm1hZT4nLCAnLW9tYWUnLCAnPG91dGZpbGUubWFlPic=

>  <r_lp_tautomer_probability>  (130) 
1

>  <r_epik_Ionization_Penalty>  (130) 
0.0374127

>  <r_epik_Ionization_Penalty_Charging>  (130) 
0.0352852

>  <r_epik_Ionization_Penalty_Neutral>  (130) 
0.00212754

>  <r_epik_State_Penalty>  (130) 
0.0294076

>  <r_epik_Charging_Adjusted_Penalty>  (130) 
0.0646928

>  <i_epik_Tot_Q>  (130) 
1

>  <i_epik_Tot_abs_Q>  (130) 
1

>  <s_lp_Force_Field>  (130) 
OPLS3e

>  <r_lp_Energy>  (130) 
41.3839

>  <b_lp_Chiralities_Consistent>  (130) 
1

>  <s_lp_Variant>  (130) 
36:0-1

>  <s_i_glide_gridfile>  (130) 
pfpi4k_grid

>  <i_i_glide_lignum>  (130) 
12

>  <i_i_glide_rotatable_bonds>  (130) 
2

>  <r_i_docking_score>  (130) 
-3.47942

>  <r_i_glide_ligand_efficiency>  (130) 
-0.158155

>  <r_i_glide_ligand_efficiency_sa>  (130) 
-0.443158

>  <r_i_glide_ligand_efficiency_ln>  (130) 
-0.850497

>  <r_i_glide_gscore>  (130) 
-3.47942

>  <r_i_glide_lipo>  (130) 
-0.340927

>  <r_i_glide_hbond>  (130) 
0

>  <r_i_glide_metal>  (130) 
-0

>  <r_i_glide_rewards>  (130) 
-1.3611

>  <r_i_glide_evdw>  (130) 
-14.1279

>  <r_i_glide_ecoul>  (130) 
-7.13999

>  <r_i_glide_erotb>  (130) 
0

>  <r_i_glide_esite>  (130) 
0

>  <r_i_glide_emodel>  (130) 
-27.0382

>  <r_i_glide_energy>  (130) 
-21.2679

>  <r_i_glide_einternal>  (130) 
0.0620873

>  <r_i_glide_intrahb_reward>  (130) 
-0

>  <i_i_glide_confnum>  (130) 
1

>  <i_i_glide_posenum>  (130) 
29

>  <r_i_glide_eff_state_penalty>  (130) 
0

>  <ligand_id>  (130) 
36

>  <original_smiles>  (130) 
CN1CCC2C=CCC34OC3c3cc(O)ccc3CC1C24O

>  <smiles>  (130) 
[H]Oc1c([H])c([H])c2c(c1[H])C1([H])OC13C([H])([H])C([H])=C([H])C1([H])C([H])([H])C([H])([H])[N+]([H])(C([H])([H])[H])C([H])(C2([H])[H])C13O[H]

$$$$
36:0:2
     RDKit          3D

 44 48  0  0  1  0  0  0  0  0999 V2000
    3.3270   -2.4770   -1.9719 C   0  0  0  0  0  0  0  0  0  0  0  0
    3.6964   -3.5592   -1.0317 N   0  0  1  0  0  0  0  0  0  0  0  0
    5.1452   -3.8786   -1.0650 C   0  0  0  0  0  0  0  0  0  0  0  0
    5.4338   -5.1753   -0.2979 C   0  0  0  0  0  0  0  0  0  0  0  0
    4.9272   -5.0447    1.1433 C   0  0  2  0  0  0  0  0  0  0  0  0
    5.3482   -6.2011    2.0215 C   0  0  0  0  0  0  0  0  0  0  0  0
    4.6121   -6.6223    3.0567 C   0  0  0  0  0  0  0  0  0  0  0  0
    3.2841   -6.0046    3.4308 C   0  0  0  0  0  0  0  0  0  0  0  0
    2.8388   -4.7852    2.6134 C   0  0  1  0  0  0  0  0  0  0  0  0
    1.4251   -4.5492    2.7085 O   0  0  0  0  0  0  0  0  0  0  0  0
    2.2411   -3.6150    3.4030 C   0  0  2  0  0  0  0  0  0  0  0  0
    1.8782   -2.2248    2.9799 C   0  0  0  0  0  0  0  0  0  0  0  0
    0.8374   -1.5830    3.6904 C   0  0  0  0  0  0  0  0  0  0  0  0
    0.4809   -0.2495    3.4150 C   0  0  0  0  0  0  0  0  0  0  0  0
   -0.5367    0.3407    4.1044 O   0  0  0  0  0  0  0  0  0  0  0  0
    1.1706    0.4637    2.4229 C   0  0  0  0  0  0  0  0  0  0  0  0
    2.1953   -0.1668    1.6939 C   0  0  0  0  0  0  0  0  0  0  0  0
    2.5389   -1.5110    1.9501 C   0  0  0  0  0  0  0  0  0  0  0  0
    3.6110   -2.1596    1.0943 C   0  0  0  0  0  0  0  0  0  0  0  0
    3.1161   -3.4343    0.3513 C   0  0  2  0  0  0  0  0  0  0  0  0
    3.3923   -4.7492    1.1631 C   0  0  1  0  0  0  0  0  0  0  0  0
    2.7160   -5.8094    0.4888 O   0  0  0  0  0  0  0  0  0  0  0  0
    3.8746   -1.5554   -1.7769 H   0  0  0  0  0  0  0  0  0  0  0  0
    2.2559   -2.2710   -1.9314 H   0  0  0  0  0  0  0  0  0  0  0  0
    3.5605   -2.7855   -2.9933 H   0  0  0  0  0  0  0  0  0  0  0  0
    5.4641   -4.0126   -2.0997 H   0  0  0  0  0  0  0  0  0  0  0  0
    5.7324   -3.0536   -0.6593 H   0  0  0  0  0  0  0  0  0  0  0  0
    4.9877   -6.0388   -0.7987 H   0  0  0  0  0  0  0  0  0  0  0  0
    6.5093   -5.3490   -0.2897 H   0  0  0  0  0  0  0  0  0  0  0  0
    5.4662   -4.2093    1.5841 H   0  0  0  0  0  0  0  0  0  0  0  0
    6.3105   -6.6543    1.8191 H   0  0  0  0  0  0  0  0  0  0  0  0
    4.9632   -7.4189    3.6933 H   0  0  0  0  0  0  0  0  0  0  0  0
    2.5172   -6.7784    3.3793 H   0  0  0  0  0  0  0  0  0  0  0  0
    3.3511   -5.7054    4.4795 H   0  0  0  0  0  0  0  0  0  0  0  0
    2.1734   -3.7022    4.4841 H   0  0  0  0  0  0  0  0  0  0  0  0
    0.3047   -2.1165    4.4638 H   0  0  0  0  0  0  0  0  0  0  0  0
   -0.7261    1.2172    3.8031 H   0  0  0  0  0  0  0  0  0  0  0  0
    0.9169    1.4878    2.2003 H   0  0  0  0  0  0  0  0  0  0  0  0
    2.7081    0.3897    0.9227 H   0  0  0  0  0  0  0  0  0  0  0  0
    3.9834   -1.4088    0.3976 H   0  0  0  0  0  0  0  0  0  0  0  0
    4.4548   -2.3674    1.7470 H   0  0  0  0  0  0  0  0  0  0  0  0
    2.0416   -3.3353    0.2035 H   0  0  0  0  0  0  0  0  0  0  0  0
    3.0468   -5.9183   -0.3917 H   0  0  0  0  0  0  0  0  0  0  0  0
    3.2567   -4.3747   -1.4339 H   0  0  0  0  0  0  0  0  0  0  0  0
  1  2  1  0
  1 23  1  0
  1 24  1  0
  1 25  1  0
  2 20  1  0
  2  3  1  0
  2 44  1  6
  3  4  1  0
  3 26  1  0
  3 27  1  0
  4  5  1  0
  4 28  1  0
  4 29  1  0
  5 21  1  0
  5  6  1  0
  5 30  1  1
  6  7  2  0
  6 31  1  0
  7  8  1  0
  7 32  1  0
  8  9  1  0
  8 33  1  0
  8 34  1  0
  9 11  1  0
  9 21  1  0
  9 10  1  6
 10 11  1  0
 11 12  1  0
 11 35  1  1
 12 18  2  0
 12 13  1  0
 13 14  2  0
 13 36  1  0
 14 15  1  0
 14 16  1  0
 15 37  1  0
 16 17  2  0
 16 38  1  0
 17 18  1  0
 17 39  1  0
 18 19  1  0
 19 20  1  0
 19 40  1  0
 19 41  1  0
 20 21  1  0
 20 42  1  6
 21 22  1  6
 22 43  1  0
M  CHG  1   2   1
M  END
>  <i_m_ct_stereo_status>  (131) 
1

>  <s_m_source_file>  (131) 
/var/tmp/pbs.5076255.sched01/tmp8yzwbncg/40d_vk9m1l.sdf

>  <i_m_source_file_index>  (131) 
12

>  <i_lp_mmshare_version>  (131) 
48012

>  <i_f3d_flags>  (131) 
1

>  <s_epik_input>  (131) 
W0NIM11OMVtDSDJdW0NIMl1bQ0BIXShbQ0hdPVtDSF1bQ0gyXTIpW0NAXTMoW09IXSlbQ0BIXTFbQ0gyXWMoYzRbQ0BIXShbQ0BdMjM1KU81KVtjSF1bY0hdYyhbY0hdNClbT0hd

>  <s_epik_cmdline>  (131) 
J2VwaWtfcHl0aG9uJywgJy1waHQnLCAnMi4wJywgJy1waCcsICc3LjAnLCAnLXRuJywgJzgnLCAnLW1hJywgJzIwMCcsICctaW1hZScsICc8aW5maWxlLm1hZT4nLCAnLW9tYWUnLCAnPG91dGZpbGUubWFlPic=

>  <r_lp_tautomer_probability>  (131) 
1

>  <r_epik_Ionization_Penalty>  (131) 
0.0374127

>  <r_epik_Ionization_Penalty_Charging>  (131) 
0.0352852

>  <r_epik_Ionization_Penalty_Neutral>  (131) 
0.00212754

>  <r_epik_State_Penalty>  (131) 
0.0294076

>  <r_epik_Charging_Adjusted_Penalty>  (131) 
0.0646928

>  <i_epik_Tot_Q>  (131) 
1

>  <i_epik_Tot_abs_Q>  (131) 
1

>  <s_lp_Force_Field>  (131) 
OPLS3e

>  <r_lp_Energy>  (131) 
41.3839

>  <b_lp_Chiralities_Consistent>  (131) 
1

>  <s_lp_Variant>  (131) 
36:0-1

>  <s_i_glide_gridfile>  (131) 
pfpi4k_grid

>  <i_i_glide_lignum>  (131) 
12

>  <i_i_glide_rotatable_bonds>  (131) 
2

>  <r_i_docking_score>  (131) 
-3.11043

>  <r_i_glide_ligand_efficiency>  (131) 
-0.141383

>  <r_i_glide_ligand_efficiency_sa>  (131) 
-0.396161

>  <r_i_glide_ligand_efficiency_ln>  (131) 
-0.760301

>  <r_i_glide_gscore>  (131) 
-3.11043

>  <r_i_glide_lipo>  (131) 
-0.111448

>  <r_i_glide_hbond>  (131) 
0

>  <r_i_glide_metal>  (131) 
-0

>  <r_i_glide_rewards>  (131) 
-1.3611

>  <r_i_glide_evdw>  (131) 
-16.8

>  <r_i_glide_ecoul>  (131) 
-5.3192

>  <r_i_glide_erotb>  (131) 
0

>  <r_i_glide_esite>  (131) 
0

>  <r_i_glide_emodel>  (131) 
-27.3818

>  <r_i_glide_energy>  (131) 
-22.1192

>  <r_i_glide_einternal>  (131) 
0.0332554

>  <r_i_glide_intrahb_reward>  (131) 
-0

>  <i_i_glide_confnum>  (131) 
1

>  <i_i_glide_posenum>  (131) 
15

>  <r_i_glide_eff_state_penalty>  (131) 
0

>  <ligand_id>  (131) 
36

>  <original_smiles>  (131) 
CN1CCC2C=CCC34OC3c3cc(O)ccc3CC1C24O

>  <smiles>  (131) 
[H]Oc1c([H])c([H])c2c(c1[H])C1([H])OC13C([H])([H])C([H])=C([H])C1([H])C([H])([H])C([H])([H])[N+]([H])(C([H])([H])[H])C([H])(C2([H])[H])C13O[H]

$$$$
36:1:0
     RDKit          3D

 43 47  0  0  1  0  0  0  0  0999 V2000
    3.0270   -3.8233    2.8249 C   0  0  0  0  0  0  0  0  0  0  0  0
    3.5324   -4.6090    1.7098 N   0  0  0  0  0  0  0  0  0  0  0  0
    4.2208   -5.8356    2.1212 C   0  0  0  0  0  0  0  0  0  0  0  0
    5.6791   -5.6073    2.5327 C   0  0  0  0  0  0  0  0  0  0  0  0
    6.4027   -4.9858    1.3254 C   0  0  2  0  0  0  0  0  0  0  0  0
    7.9056   -4.9523    1.4895 C   0  0  0  0  0  0  0  0  0  0  0  0
    8.6516   -4.0220    0.8957 C   0  0  0  0  0  0  0  0  0  0  0  0
    8.0976   -2.9144    0.0347 C   0  0  0  0  0  0  0  0  0  0  0  0
    6.5810   -2.8725   -0.1602 C   0  0  1  0  0  0  0  0  0  0  0  0
    6.1075   -1.5404   -0.4668 O   0  0  0  0  0  0  0  0  0  0  0  0
    6.0793   -2.4624   -1.5458 C   0  0  2  0  0  0  0  0  0  0  0  0
    4.7071   -2.4698   -2.1204 C   0  0  0  0  0  0  0  0  0  0  0  0
    4.3765   -1.4804   -3.0715 C   0  0  0  0  0  0  0  0  0  0  0  0
    3.1661   -1.5105   -3.7661 C   0  0  0  0  0  0  0  0  0  0  0  0
    2.9378   -0.5788   -4.7298 O   0  0  0  0  0  0  0  0  0  0  0  0
    2.2316   -2.5241   -3.4855 C   0  0  0  0  0  0  0  0  0  0  0  0
    2.4927   -3.4408   -2.4596 C   0  0  0  0  0  0  0  0  0  0  0  0
    3.7392   -3.4360   -1.7933 C   0  0  0  0  0  0  0  0  0  0  0  0
    4.0090   -4.4691   -0.7220 C   0  0  0  0  0  0  0  0  0  0  0  0
    4.2372   -3.8240    0.6590 C   0  0  2  0  0  0  0  0  0  0  0  0
    5.7671   -3.6060    0.9446 C   0  0  1  0  0  0  0  0  0  0  0  0
    5.8701   -2.7537    2.0709 O   0  0  0  0  0  0  0  0  0  0  0  0
    2.3686   -4.4263    3.4488 H   0  0  0  0  0  0  0  0  0  0  0  0
    2.4371   -2.9836    2.4594 H   0  0  0  0  0  0  0  0  0  0  0  0
    3.8212   -3.4384    3.4597 H   0  0  0  0  0  0  0  0  0  0  0  0
    3.6838   -6.2907    2.9532 H   0  0  0  0  0  0  0  0  0  0  0  0
    4.1951   -6.5764    1.3205 H   0  0  0  0  0  0  0  0  0  0  0  0
    5.7426   -4.9719    3.4172 H   0  0  0  0  0  0  0  0  0  0  0  0
    6.1347   -6.5573    2.8168 H   0  0  0  0  0  0  0  0  0  0  0  0
    6.2683   -5.6785    0.4994 H   0  0  0  0  0  0  0  0  0  0  0  0
    8.3538   -5.7247    2.1014 H   0  0  0  0  0  0  0  0  0  0  0  0
    9.7229   -4.0151    1.0352 H   0  0  0  0  0  0  0  0  0  0  0  0
    8.4375   -1.9587    0.4427 H   0  0  0  0  0  0  0  0  0  0  0  0
    8.5586   -3.0214   -0.9500 H   0  0  0  0  0  0  0  0  0  0  0  0
    6.8116   -2.2581   -2.3229 H   0  0  0  0  0  0  0  0  0  0  0  0
    5.0409   -0.6768   -3.3101 H   0  0  0  0  0  0  0  0  0  0  0  0
    2.2180   -0.8258   -5.2886 H   0  0  0  0  0  0  0  0  0  0  0  0
    1.2995   -2.5748   -4.0157 H   0  0  0  0  0  0  0  0  0  0  0  0
    1.7523   -4.1932   -2.2342 H   0  0  0  0  0  0  0  0  0  0  0  0
    3.1379   -5.1154   -0.6627 H   0  0  0  0  0  0  0  0  0  0  0  0
    4.8334   -5.1043   -1.0380 H   0  0  0  0  0  0  0  0  0  0  0  0
    3.7507   -2.8507    0.5996 H   0  0  0  0  0  0  0  0  0  0  0  0
    5.3695   -3.1544    2.7592 H   0  0  0  0  0  0  0  0  0  0  0  0
  1  2  1  0
  1 23  1  0
  1 24  1  0
  1 25  1  0
  2 20  1  0
  2  3  1  0
  3  4  1  0
  3 26  1  0
  3 27  1  0
  4  5  1  0
  4 28  1  0
  4 29  1  0
  5 21  1  0
  5  6  1  0
  5 30  1  6
  6  7  2  0
  6 31  1  0
  7  8  1  0
  7 32  1  0
  8  9  1  0
  8 33  1  0
  8 34  1  0
  9 11  1  0
  9 21  1  0
  9 10  1  1
 10 11  1  0
 11 12  1  0
 11 35  1  6
 12 18  2  0
 12 13  1  0
 13 14  2  0
 13 36  1  0
 14 15  1  0
 14 16  1  0
 15 37  1  0
 16 17  2  0
 16 38  1  0
 17 18  1  0
 17 39  1  0
 18 19  1  0
 19 20  1  0
 19 40  1  0
 19 41  1  0
 20 21  1  0
 20 42  1  6
 21 22  1  1
 22 43  1  0
M  END
>  <i_m_ct_stereo_status>  (132) 
1

>  <s_m_source_file>  (132) 
/var/tmp/pbs.5076255.sched01/tmp8yzwbncg/40d_vk9m1l.sdf

>  <i_m_source_file_index>  (132) 
13

>  <i_lp_mmshare_version>  (132) 
48012

>  <i_f3d_flags>  (132) 
1

>  <s_epik_input>  (132) 
W0NIM11OMVtDSDJdW0NIMl1bQ0BIXShbQ0hdPVtDSF1bQ0gyXTIpW0NAXTMoW09IXSlbQ0BIXTFbQ0gyXWMoYzRbQ0BIXShbQ0BdMjM1KU81KVtjSF1bY0hdYyhbY0hdNClbT0hd

>  <s_epik_cmdline>  (132) 
J2VwaWtfcHl0aG9uJywgJy1waHQnLCAnMi4wJywgJy1waCcsICc3LjAnLCAnLXRuJywgJzgnLCAnLW1hJywgJzIwMCcsICctaW1hZScsICc8aW5maWxlLm1hZT4nLCAnLW9tYWUnLCAnPG91dGZpbGUubWFlPic=

>  <r_lp_tautomer_probability>  (132) 
1

>  <r_epik_Ionization_Penalty>  (132) 
1.68922

>  <r_epik_Ionization_Penalty_Charging>  (132) 
0

>  <r_epik_Ionization_Penalty_Neutral>  (132) 
1.68922

>  <r_epik_State_Penalty>  (132) 
1.79392

>  <r_epik_Charging_Adjusted_Penalty>  (132) 
1.79392

>  <i_epik_Tot_Q>  (132) 
0

>  <i_epik_Tot_abs_Q>  (132) 
0

>  <s_lp_Force_Field>  (132) 
OPLS3e

>  <r_lp_Energy>  (132) 
37.5968

>  <b_lp_Chiralities_Consistent>  (132) 
1

>  <s_lp_Variant>  (132) 
36:0-2

>  <s_i_glide_gridfile>  (132) 
pfpi4k_grid

>  <i_i_glide_lignum>  (132) 
13

>  <i_i_glide_rotatable_bonds>  (132) 
2

>  <r_i_docking_score>  (132) 
-4.38746

>  <r_i_glide_ligand_efficiency>  (132) 
-0.19943

>  <r_i_glide_ligand_efficiency_sa>  (132) 
-0.558811

>  <r_i_glide_ligand_efficiency_ln>  (132) 
-1.07246

>  <r_i_glide_gscore>  (132) 
-4.38746

>  <r_i_glide_lipo>  (132) 
-1.16483

>  <r_i_glide_hbond>  (132) 
-0.311975

>  <r_i_glide_metal>  (132) 
-0

>  <r_i_glide_rewards>  (132) 
-1.36797

>  <r_i_glide_evdw>  (132) 
-20.8398

>  <r_i_glide_ecoul>  (132) 
-3.33798

>  <r_i_glide_erotb>  (132) 
0

>  <r_i_glide_esite>  (132) 
0

>  <r_i_glide_emodel>  (132) 
-29.319

>  <r_i_glide_energy>  (132) 
-24.1778

>  <r_i_glide_einternal>  (132) 
0.439745

>  <r_i_glide_intrahb_reward>  (132) 
-0

>  <i_i_glide_confnum>  (132) 
1

>  <i_i_glide_posenum>  (132) 
13

>  <r_i_glide_eff_state_penalty>  (132) 
0

>  <ligand_id>  (132) 
36

>  <original_smiles>  (132) 
CN1CCC2C=CCC34OC3c3cc(O)ccc3CC1C24O

>  <smiles>  (132) 
[H]Oc1c([H])c([H])c2c(c1[H])C1([H])OC13C([H])([H])C([H])=C([H])C1([H])C([H])([H])C([H])([H])N(C([H])([H])[H])C([H])(C2([H])[H])C13O[H]

$$$$
36:1:1
     RDKit          3D

 43 47  0  0  1  0  0  0  0  0999 V2000
    2.9089   -3.6321    2.9221 C   0  0  0  0  0  0  0  0  0  0  0  0
    3.3484   -4.4897    1.8280 N   0  0  0  0  0  0  0  0  0  0  0  0
    3.9618   -5.7397    2.2900 C   0  0  0  0  0  0  0  0  0  0  0  0
    5.4297   -5.5931    2.7073 C   0  0  0  0  0  0  0  0  0  0  0  0
    6.2030   -5.0657    1.4909 C   0  0  2  0  0  0  0  0  0  0  0  0
    7.7008   -5.1174    1.6758 C   0  0  0  0  0  0  0  0  0  0  0  0
    8.5185   -4.2580    1.0596 C   0  0  0  0  0  0  0  0  0  0  0  0
    8.0420   -3.1492    0.1476 C   0  0  0  0  0  0  0  0  0  0  0  0
    6.5262   -3.0188   -0.0569 C   0  0  1  0  0  0  0  0  0  0  0  0
    6.1413   -1.6705   -0.3943 O   0  0  0  0  0  0  0  0  0  0  0  0
    6.0622   -2.6088   -1.4567 C   0  0  2  0  0  0  0  0  0  0  0  0
    4.6979   -2.5574   -2.0464 C   0  0  0  0  0  0  0  0  0  0  0  0
    4.4426   -1.5782   -3.0279 C   0  0  0  0  0  0  0  0  0  0  0  0
    3.2320   -1.5530   -3.7358 C   0  0  0  0  0  0  0  0  0  0  0  0
    3.0506   -0.6333   -4.7208 O   0  0  0  0  0  0  0  0  0  0  0  0
    2.2371   -2.4914   -3.4323 C   0  0  0  0  0  0  0  0  0  0  0  0
    2.4317   -3.4032   -2.3808 C   0  0  0  0  0  0  0  0  0  0  0  0
    3.6651   -3.4484   -1.7015 C   0  0  0  0  0  0  0  0  0  0  0  0
    3.8563   -4.4625   -0.5974 C   0  0  0  0  0  0  0  0  0  0  0  0
    4.1164   -3.7911    0.7642 C   0  0  2  0  0  0  0  0  0  0  0  0
    5.6569   -3.6663    1.0608 C   0  0  1  0  0  0  0  0  0  0  0  0
    5.8108   -2.7764    2.1543 O   0  0  0  0  0  0  0  0  0  0  0  0
    2.2111   -4.1635    3.5645 H   0  0  0  0  0  0  0  0  0  0  0  0
    2.3813   -2.7599    2.5374 H   0  0  0  0  0  0  0  0  0  0  0  0
    3.7364   -3.2894    3.5401 H   0  0  0  0  0  0  0  0  0  0  0  0
    3.3940   -6.1282    3.1351 H   0  0  0  0  0  0  0  0  0  0  0  0
    3.8931   -6.5025    1.5140 H   0  0  0  0  0  0  0  0  0  0  0  0
    5.5309   -4.9282    3.5666 H   0  0  0  0  0  0  0  0  0  0  0  0
    5.8202   -6.5601    3.0278 H   0  0  0  0  0  0  0  0  0  0  0  0
    6.0321   -5.7733    0.6833 H   0  0  0  0  0  0  0  0  0  0  0  0
    8.0946   -5.9009    2.3083 H   0  0  0  0  0  0  0  0  0  0  0  0
    9.5841   -4.3397    1.1983 H   0  0  0  0  0  0  0  0  0  0  0  0
    8.4395   -2.2057    0.5246 H   0  0  0  0  0  0  0  0  0  0  0  0
    8.5008   -3.3192   -0.8299 H   0  0  0  0  0  0  0  0  0  0  0  0
    6.8111   -2.4617   -2.2288 H   0  0  0  0  0  0  0  0  0  0  0  0
    5.1815   -0.8371   -3.2506 H   0  0  0  0  0  0  0  0  0  0  0  0
    2.2748   -0.8084   -5.2367 H   0  0  0  0  0  0  0  0  0  0  0  0
    1.3103   -2.5041   -3.9759 H   0  0  0  0  0  0  0  0  0  0  0  0
    1.6408   -4.0910   -2.1376 H   0  0  0  0  0  0  0  0  0  0  0  0
    2.9472   -5.0546   -0.5241 H   0  0  0  0  0  0  0  0  0  0  0  0
    4.6419   -5.1585   -0.8843 H   0  0  0  0  0  0  0  0  0  0  0  0
    3.6995   -2.7865    0.6720 H   0  0  0  0  0  0  0  0  0  0  0  0
    5.4666   -1.9379    1.8811 H   0  0  0  0  0  0  0  0  0  0  0  0
  1  2  1  0
  1 23  1  0
  1 24  1  0
  1 25  1  0
  2 20  1  0
  2  3  1  0
  3  4  1  0
  3 26  1  0
  3 27  1  0
  4  5  1  0
  4 28  1  0
  4 29  1  0
  5 21  1  0
  5  6  1  0
  5 30  1  6
  6  7  2  0
  6 31  1  0
  7  8  1  0
  7 32  1  0
  8  9  1  0
  8 33  1  0
  8 34  1  0
  9 11  1  0
  9 21  1  0
  9 10  1  1
 10 11  1  0
 11 12  1  0
 11 35  1  6
 12 18  2  0
 12 13  1  0
 13 14  2  0
 13 36  1  0
 14 15  1  0
 14 16  1  0
 15 37  1  0
 16 17  2  0
 16 38  1  0
 17 18  1  0
 17 39  1  0
 18 19  1  0
 19 20  1  0
 19 40  1  0
 19 41  1  0
 20 21  1  0
 20 42  1  6
 21 22  1  1
 22 43  1  0
M  END
>  <i_m_ct_stereo_status>  (133) 
1

>  <s_m_source_file>  (133) 
/var/tmp/pbs.5076255.sched01/tmp8yzwbncg/40d_vk9m1l.sdf

>  <i_m_source_file_index>  (133) 
13

>  <i_lp_mmshare_version>  (133) 
48012

>  <i_f3d_flags>  (133) 
1

>  <s_epik_input>  (133) 
W0NIM11OMVtDSDJdW0NIMl1bQ0BIXShbQ0hdPVtDSF1bQ0gyXTIpW0NAXTMoW09IXSlbQ0BIXTFbQ0gyXWMoYzRbQ0BIXShbQ0BdMjM1KU81KVtjSF1bY0hdYyhbY0hdNClbT0hd

>  <s_epik_cmdline>  (133) 
J2VwaWtfcHl0aG9uJywgJy1waHQnLCAnMi4wJywgJy1waCcsICc3LjAnLCAnLXRuJywgJzgnLCAnLW1hJywgJzIwMCcsICctaW1hZScsICc8aW5maWxlLm1hZT4nLCAnLW9tYWUnLCAnPG91dGZpbGUubWFlPic=

>  <r_lp_tautomer_probability>  (133) 
1

>  <r_epik_Ionization_Penalty>  (133) 
1.68922

>  <r_epik_Ionization_Penalty_Charging>  (133) 
0

>  <r_epik_Ionization_Penalty_Neutral>  (133) 
1.68922

>  <r_epik_State_Penalty>  (133) 
1.79392

>  <r_epik_Charging_Adjusted_Penalty>  (133) 
1.79392

>  <i_epik_Tot_Q>  (133) 
0

>  <i_epik_Tot_abs_Q>  (133) 
0

>  <s_lp_Force_Field>  (133) 
OPLS3e

>  <r_lp_Energy>  (133) 
37.5968

>  <b_lp_Chiralities_Consistent>  (133) 
1

>  <s_lp_Variant>  (133) 
36:0-2

>  <s_i_glide_gridfile>  (133) 
pfpi4k_grid

>  <i_i_glide_lignum>  (133) 
13

>  <i_i_glide_rotatable_bonds>  (133) 
2

>  <r_i_docking_score>  (133) 
-4.3131

>  <r_i_glide_ligand_efficiency>  (133) 
-0.19605

>  <r_i_glide_ligand_efficiency_sa>  (133) 
-0.54934

>  <r_i_glide_ligand_efficiency_ln>  (133) 
-1.05428

>  <r_i_glide_gscore>  (133) 
-4.3131

>  <r_i_glide_lipo>  (133) 
-1.17157

>  <r_i_glide_hbond>  (133) 
-0.263548

>  <r_i_glide_metal>  (133) 
-0

>  <r_i_glide_rewards>  (133) 
-1.36797

>  <r_i_glide_evdw>  (133) 
-20.4269

>  <r_i_glide_ecoul>  (133) 
-3.25781

>  <r_i_glide_erotb>  (133) 
0

>  <r_i_glide_esite>  (133) 
0

>  <r_i_glide_emodel>  (133) 
-28.9879

>  <r_i_glide_energy>  (133) 
-23.6847

>  <r_i_glide_einternal>  (133) 
0.221909

>  <r_i_glide_intrahb_reward>  (133) 
-0

>  <i_i_glide_confnum>  (133) 
2

>  <i_i_glide_posenum>  (133) 
5

>  <r_i_glide_eff_state_penalty>  (133) 
0

>  <ligand_id>  (133) 
36

>  <original_smiles>  (133) 
CN1CCC2C=CCC34OC3c3cc(O)ccc3CC1C24O

>  <smiles>  (133) 
[H]Oc1c([H])c([H])c2c(c1[H])C1([H])OC13C([H])([H])C([H])=C([H])C1([H])C([H])([H])C([H])([H])N(C([H])([H])[H])C([H])(C2([H])[H])C13O[H]

$$$$
36:1:2
     RDKit          3D

 43 47  0  0  1  0  0  0  0  0999 V2000
    2.8721   -3.8748    2.8938 C   0  0  0  0  0  0  0  0  0  0  0  0
    3.3389   -4.6754    1.7681 N   0  0  0  0  0  0  0  0  0  0  0  0
    3.9225   -5.9572    2.1836 C   0  0  0  0  0  0  0  0  0  0  0  0
    5.3785   -5.8486    2.6496 C   0  0  0  0  0  0  0  0  0  0  0  0
    6.1959   -5.2611    1.4899 C   0  0  2  0  0  0  0  0  0  0  0  0
    7.6873   -5.3419    1.7159 C   0  0  0  0  0  0  0  0  0  0  0  0
    8.5335   -4.4575    1.1803 C   0  0  0  0  0  0  0  0  0  0  0  0
    8.0966   -3.2933    0.3156 C   0  0  0  0  0  0  0  0  0  0  0  0
    6.5867   -3.1291    0.0722 C   0  0  1  0  0  0  0  0  0  0  0  0
    6.2321   -1.7652   -0.2125 O   0  0  0  0  0  0  0  0  0  0  0  0
    6.1718   -2.6420   -1.3197 C   0  0  2  0  0  0  0  0  0  0  0  0
    4.8232   -2.5349   -1.9470 C   0  0  0  0  0  0  0  0  0  0  0  0
    4.6155   -1.5000   -2.8801 C   0  0  0  0  0  0  0  0  0  0  0  0
    3.4249   -1.4028   -3.6175 C   0  0  0  0  0  0  0  0  0  0  0  0
    3.2604   -0.4132   -4.5412 O   0  0  0  0  0  0  0  0  0  0  0  0
    2.4094   -2.3463   -3.4005 C   0  0  0  0  0  0  0  0  0  0  0  0
    2.5651   -3.3268   -2.4100 C   0  0  0  0  0  0  0  0  0  0  0  0
    3.7722   -3.4318   -1.6885 C   0  0  0  0  0  0  0  0  0  0  0  0
    3.9236   -4.5080   -0.6351 C   0  0  0  0  0  0  0  0  0  0  0  0
    4.1472   -3.9243    0.7732 C   0  0  2  0  0  0  0  0  0  0  0  0
    5.6785   -3.8299    1.1264 C   0  0  1  0  0  0  0  0  0  0  0  0
    5.8134   -3.0161    2.2812 O   0  0  0  0  0  0  0  0  0  0  0  0
    2.1501   -4.4335    3.4876 H   0  0  0  0  0  0  0  0  0  0  0  0
    2.3630   -2.9795    2.5384 H   0  0  0  0  0  0  0  0  0  0  0  0
    3.6827   -3.5714    3.5528 H   0  0  0  0  0  0  0  0  0  0  0  0
    3.3236   -6.3861    2.9838 H   0  0  0  0  0  0  0  0  0  0  0  0
    3.8719   -6.6747    1.3624 H   0  0  0  0  0  0  0  0  0  0  0  0
    5.4544   -5.2359    3.5502 H   0  0  0  0  0  0  0  0  0  0  0  0
    5.7498   -6.8358    2.9288 H   0  0  0  0  0  0  0  0  0  0  0  0
    6.0412   -5.9202    0.6375 H   0  0  0  0  0  0  0  0  0  0  0  0
    8.0565   -6.1673    2.3122 H   0  0  0  0  0  0  0  0  0  0  0  0
    9.5951   -4.5586    1.3443 H   0  0  0  0  0  0  0  0  0  0  0  0
    8.4931   -2.3745    0.7505 H   0  0  0  0  0  0  0  0  0  0  0  0
    8.5804   -3.4152   -0.6535 H   0  0  0  0  0  0  0  0  0  0  0  0
    6.9460   -2.4658   -2.0621 H   0  0  0  0  0  0  0  0  0  0  0  0
    5.3942   -0.7789   -3.0459 H   0  0  0  0  0  0  0  0  0  0  0  0
    3.7720    0.3617   -4.3610 H   0  0  0  0  0  0  0  0  0  0  0  0
    1.4907   -2.2964   -3.9648 H   0  0  0  0  0  0  0  0  0  0  0  0
    1.7602   -4.0267   -2.2299 H   0  0  0  0  0  0  0  0  0  0  0  0
    2.9995   -5.0851   -0.6264 H   0  0  0  0  0  0  0  0  0  0  0  0
    4.7075   -5.2020   -0.9372 H   0  0  0  0  0  0  0  0  0  0  0  0
    3.7480   -2.9101    0.7303 H   0  0  0  0  0  0  0  0  0  0  0  0
    6.7363   -2.9483    2.4778 H   0  0  0  0  0  0  0  0  0  0  0  0
  1  2  1  0
  1 23  1  0
  1 24  1  0
  1 25  1  0
  2 20  1  0
  2  3  1  0
  3  4  1  0
  3 26  1  0
  3 27  1  0
  4  5  1  0
  4 28  1  0
  4 29  1  0
  5 21  1  0
  5  6  1  0
  5 30  1  6
  6  7  2  0
  6 31  1  0
  7  8  1  0
  7 32  1  0
  8  9  1  0
  8 33  1  0
  8 34  1  0
  9 11  1  0
  9 21  1  0
  9 10  1  1
 10 11  1  0
 11 12  1  0
 11 35  1  6
 12 18  2  0
 12 13  1  0
 13 14  2  0
 13 36  1  0
 14 15  1  0
 14 16  1  0
 15 37  1  0
 16 17  2  0
 16 38  1  0
 17 18  1  0
 17 39  1  0
 18 19  1  0
 19 20  1  0
 19 40  1  0
 19 41  1  0
 20 21  1  0
 20 42  1  6
 21 22  1  1
 22 43  1  0
M  END
>  <i_m_ct_stereo_status>  (134) 
1

>  <s_m_source_file>  (134) 
/var/tmp/pbs.5076255.sched01/tmp8yzwbncg/40d_vk9m1l.sdf

>  <i_m_source_file_index>  (134) 
13

>  <i_lp_mmshare_version>  (134) 
48012

>  <i_f3d_flags>  (134) 
1

>  <s_epik_input>  (134) 
W0NIM11OMVtDSDJdW0NIMl1bQ0BIXShbQ0hdPVtDSF1bQ0gyXTIpW0NAXTMoW09IXSlbQ0BIXTFbQ0gyXWMoYzRbQ0BIXShbQ0BdMjM1KU81KVtjSF1bY0hdYyhbY0hdNClbT0hd

>  <s_epik_cmdline>  (134) 
J2VwaWtfcHl0aG9uJywgJy1waHQnLCAnMi4wJywgJy1waCcsICc3LjAnLCAnLXRuJywgJzgnLCAnLW1hJywgJzIwMCcsICctaW1hZScsICc8aW5maWxlLm1hZT4nLCAnLW9tYWUnLCAnPG91dGZpbGUubWFlPic=

>  <r_lp_tautomer_probability>  (134) 
1

>  <r_epik_Ionization_Penalty>  (134) 
1.68922

>  <r_epik_Ionization_Penalty_Charging>  (134) 
0

>  <r_epik_Ionization_Penalty_Neutral>  (134) 
1.68922

>  <r_epik_State_Penalty>  (134) 
1.79392

>  <r_epik_Charging_Adjusted_Penalty>  (134) 
1.79392

>  <i_epik_Tot_Q>  (134) 
0

>  <i_epik_Tot_abs_Q>  (134) 
0

>  <s_lp_Force_Field>  (134) 
OPLS3e

>  <r_lp_Energy>  (134) 
37.5968

>  <b_lp_Chiralities_Consistent>  (134) 
1

>  <s_lp_Variant>  (134) 
36:0-2

>  <s_i_glide_gridfile>  (134) 
pfpi4k_grid

>  <i_i_glide_lignum>  (134) 
13

>  <i_i_glide_rotatable_bonds>  (134) 
2

>  <r_i_docking_score>  (134) 
-3.60212

>  <r_i_glide_ligand_efficiency>  (134) 
-0.163733

>  <r_i_glide_ligand_efficiency_sa>  (134) 
-0.458785

>  <r_i_glide_ligand_efficiency_ln>  (134) 
-0.880489

>  <r_i_glide_gscore>  (134) 
-3.60212

>  <r_i_glide_lipo>  (134) 
-1.15364

>  <r_i_glide_hbond>  (134) 
-0.00680634

>  <r_i_glide_metal>  (134) 
-0

>  <r_i_glide_rewards>  (134) 
-1.36797

>  <r_i_glide_evdw>  (134) 
-21.0136

>  <r_i_glide_ecoul>  (134) 
-0.153451

>  <r_i_glide_erotb>  (134) 
0

>  <r_i_glide_esite>  (134) 
0

>  <r_i_glide_emodel>  (134) 
-24.9685

>  <r_i_glide_energy>  (134) 
-21.167

>  <r_i_glide_einternal>  (134) 
0.694427

>  <r_i_glide_intrahb_reward>  (134) 
-0

>  <i_i_glide_confnum>  (134) 
1

>  <i_i_glide_posenum>  (134) 
19

>  <r_i_glide_eff_state_penalty>  (134) 
0

>  <ligand_id>  (134) 
36

>  <original_smiles>  (134) 
CN1CCC2C=CCC34OC3c3cc(O)ccc3CC1C24O

>  <smiles>  (134) 
[H]Oc1c([H])c([H])c2c(c1[H])C1([H])OC13C([H])([H])C([H])=C([H])C1([H])C([H])([H])C([H])([H])N(C([H])([H])[H])C([H])(C2([H])[H])C13O[H]

$$$$
37:0:0
     RDKit          3D

 50 55  0  0  1  0  0  0  0  0999 V2000
    2.2756   -3.9020    3.9378 C   0  0  0  0  0  0  0  0  0  0  0  0
    1.9040   -3.0395    2.8881 O   0  0  0  0  0  0  0  0  0  0  0  0
    2.8891   -2.0799    2.5252 C   0  0  0  0  0  0  0  0  0  0  0  0
    4.1017   -2.7711    1.8632 C   0  0  2  0  0  0  0  0  0  0  0  0
    5.1893   -1.9453    1.1252 C   0  0  2  0  0  0  0  0  0  0  0  0
    4.9135   -1.2026   -0.1878 C   0  0  2  0  0  0  0  0  0  0  0  0
    3.4603   -1.3442   -0.7003 C   0  0  1  0  0  0  0  0  0  0  0  0
    3.3256   -1.1210   -2.2278 C   0  0  2  0  0  0  0  0  0  0  0  0
    2.4731   -2.2934   -2.7324 C   0  0  0  0  0  0  0  0  0  0  0  0
    3.0699   -3.4142   -1.9273 C   0  0  1  0  0  0  0  0  0  0  0  0
    4.4920   -3.7184   -2.4898 C   0  0  0  0  0  0  0  0  0  0  0  0
    5.4302   -2.4885   -2.3726 C   0  0  1  0  0  0  0  0  0  0  0  0
    4.7147   -1.2132   -2.9198 C   0  0  1  0  0  0  0  0  0  0  0  0
    4.5426   -1.2669   -4.3348 O   0  0  0  0  0  0  0  0  0  0  0  0
    3.9054   -0.1404   -4.9375 C   0  0  0  0  0  0  0  0  0  0  0  0
    5.8434   -2.2371   -0.8827 C   0  0  1  0  0  0  0  0  0  0  0  0
    7.2089   -1.8865   -0.7470 O   0  0  0  0  0  0  0  0  0  0  0  0
    8.1632   -2.9229   -0.9240 C   0  0  0  0  0  0  0  0  0  0  0  0
    5.3943   -3.1787    0.2852 C   0  0  2  0  0  0  0  0  0  0  0  0
    3.9255   -3.5373    0.5341 C   0  0  1  0  0  0  0  0  0  0  0  0
    3.5720   -5.0104    0.6501 C   0  0  0  0  0  0  0  0  0  0  0  0
    3.0038   -2.8177   -0.5040 C   0  0  1  0  0  0  0  0  0  0  0  0
    1.4188   -4.5220    4.2100 H   0  0  0  0  0  0  0  0  0  0  0  0
    2.5510   -3.3250    4.8217 H   0  0  0  0  0  0  0  0  0  0  0  0
    3.1360   -4.5117    3.6292 H   0  0  0  0  0  0  0  0  0  0  0  0
    2.3911   -1.3842    1.8560 H   0  0  0  0  0  0  0  0  0  0  0  0
    3.1802   -1.4728    3.3855 H   0  0  0  0  0  0  0  0  0  0  0  0
    4.6334   -3.3775    2.6125 H   0  0  0  0  0  0  0  0  0  0  0  0
    6.0703   -1.6315    1.6669 H   0  0  0  0  0  0  0  0  0  0  0  0
    5.3279   -0.1975   -0.1920 H   0  0  0  0  0  0  0  0  0  0  0  0
    2.8084   -0.6627   -0.1412 H   0  0  0  0  0  0  0  0  0  0  0  0
    2.8149   -0.1954   -2.4645 H   0  0  0  0  0  0  0  0  0  0  0  0
    1.4221   -2.2601   -2.4538 H   0  0  0  0  0  0  0  0  0  0  0  0
    2.5438   -2.4391   -3.8106 H   0  0  0  0  0  0  0  0  0  0  0  0
    2.3802   -4.2522   -1.9930 H   0  0  0  0  0  0  0  0  0  0  0  0
    4.9359   -4.5784   -1.9817 H   0  0  0  0  0  0  0  0  0  0  0  0
    4.3991   -3.9806   -3.5430 H   0  0  0  0  0  0  0  0  0  0  0  0
    6.3156   -2.6572   -3.0010 H   0  0  0  0  0  0  0  0  0  0  0  0
    5.3150   -0.3361   -2.6588 H   0  0  0  0  0  0  0  0  0  0  0  0
    3.8449   -0.2990   -6.0149 H   0  0  0  0  0  0  0  0  0  0  0  0
    4.4739    0.7668   -4.7512 H   0  0  0  0  0  0  0  0  0  0  0  0
    2.8800    0.0056   -4.5883 H   0  0  0  0  0  0  0  0  0  0  0  0
    9.1444   -2.4635   -0.8163 H   0  0  0  0  0  0  0  0  0  0  0  0
    8.1048   -3.3752   -1.9147 H   0  0  0  0  0  0  0  0  0  0  0  0
    8.0829   -3.6964   -0.1667 H   0  0  0  0  0  0  0  0  0  0  0  0
    6.1380   -3.8537    0.7675 H   0  0  0  0  0  0  0  0  0  0  0  0
    3.7006   -5.5397   -0.2999 H   0  0  0  0  0  0  0  0  0  0  0  0
    2.5503   -5.1597    0.9896 H   0  0  0  0  0  0  0  0  0  0  0  0
    4.2427   -5.4940    1.3666 H   0  0  0  0  0  0  0  0  0  0  0  0
    1.9762   -2.8438   -0.1493 H   0  0  0  0  0  0  0  0  0  0  0  0
  1  2  1  0
  1 23  1  0
  1 24  1  0
  1 25  1  0
  2  3  1  0
  3  4  1  0
  3 26  1  0
  3 27  1  0
  4 20  1  0
  4  5  1  0
  4 28  1  1
  5 19  1  0
  5  6  1  0
  5 29  1  1
  6 16  1  0
  6  7  1  0
  6 30  1  1
  7 22  1  0
  7  8  1  0
  7 31  1  1
  8 13  1  0
  8  9  1  0
  8 32  1  1
  9 10  1  0
  9 33  1  0
  9 34  1  0
 10 22  1  0
 10 11  1  0
 10 35  1  1
 11 12  1  0
 11 36  1  0
 11 37  1  0
 12 13  1  0
 12 16  1  0
 12 38  1  6
 13 14  1  0
 13 39  1  6
 14 15  1  0
 15 40  1  0
 15 41  1  0
 15 42  1  0
 16 17  1  6
 16 19  1  0
 17 18  1  0
 18 43  1  0
 18 44  1  0
 18 45  1  0
 19 20  1  0
 19 46  1  1
 20 21  1  1
 20 22  1  0
 21 47  1  0
 21 48  1  0
 21 49  1  0
 22 50  1  1
M  END
>  <i_m_ct_stereo_status>  (135) 
1

>  <s_m_source_file>  (135) 
/var/tmp/pbs.5076255.sched01/tmp8yzwbncg/40d_vk9m1l.sdf

>  <i_m_source_file_index>  (135) 
14

>  <i_lp_mmshare_version>  (135) 
48012

>  <i_f3d_flags>  (135) 
0

>  <s_epik_input>  (135) 
W0NIM11PW0NAQF0xMltDQEBIXTNbQ0BASF00W0NASF0yW0NAQF0oW0NIM10pKFtDQEBIXTRbQ0gyXU9bQ0gzXSlbQ0BIXTVbQ0BASF0zW0NAQEhdNltDSDJdW0NASF01W0NIMl1bQ0BIXTFbQ0BIXTZPW0NIM10=

>  <s_epik_cmdline>  (135) 
J2VwaWtfcHl0aG9uJywgJy1waHQnLCAnMi4wJywgJy1waCcsICc3LjAnLCAnLXRuJywgJzgnLCAnLW1hJywgJzIwMCcsICctaW1hZScsICc8aW5maWxlLm1hZT4nLCAnLW9tYWUnLCAnPG91dGZpbGUubWFlPic=

>  <r_lp_tautomer_probability>  (135) 
1

>  <r_epik_Ionization_Penalty>  (135) 
1.37499e-10

>  <r_epik_Ionization_Penalty_Charging>  (135) 
0

>  <r_epik_Ionization_Penalty_Neutral>  (135) 
1.37499e-10

>  <r_epik_State_Penalty>  (135) 
-0

>  <r_epik_Charging_Adjusted_Penalty>  (135) 
0

>  <i_epik_Tot_Q>  (135) 
0

>  <i_epik_Tot_abs_Q>  (135) 
0

>  <s_lp_Force_Field>  (135) 
OPLS3e

>  <r_lp_Energy>  (135) 
80.2174

>  <b_lp_Chiralities_Consistent>  (135) 
1

>  <s_lp_Variant>  (135) 
37:0-1

>  <s_i_glide_gridfile>  (135) 
pfpi4k_grid

>  <i_i_glide_lignum>  (135) 
14

>  <i_i_glide_rotatable_bonds>  (135) 
4

>  <r_i_docking_score>  (135) 
-3.51738

>  <r_i_glide_ligand_efficiency>  (135) 
-0.159881

>  <r_i_glide_ligand_efficiency_sa>  (135) 
-0.447992

>  <r_i_glide_ligand_efficiency_ln>  (135) 
-0.859775

>  <r_i_glide_gscore>  (135) 
-3.51738

>  <r_i_glide_lipo>  (135) 
-0.436688

>  <r_i_glide_hbond>  (135) 
-0.375588

>  <r_i_glide_metal>  (135) 
-0

>  <r_i_glide_rewards>  (135) 
-1.33347

>  <r_i_glide_evdw>  (135) 
-17.6553

>  <r_i_glide_ecoul>  (135) 
-4.58575

>  <r_i_glide_erotb>  (135) 
0.198999

>  <r_i_glide_esite>  (135) 
0

>  <r_i_glide_emodel>  (135) 
-24.0193

>  <r_i_glide_energy>  (135) 
-22.241

>  <r_i_glide_einternal>  (135) 
4.59755

>  <r_i_glide_intrahb_reward>  (135) 
-0

>  <i_i_glide_confnum>  (135) 
4

>  <i_i_glide_posenum>  (135) 
1

>  <r_i_glide_eff_state_penalty>  (135) 
0

>  <ligand_id>  (135) 
37

>  <original_smiles>  (135) 
COCC1C2C3C4C5CC6CC(C5OC)C3(OC)C2C1(C)C64

>  <smiles>  (135) 
[H]C([H])([H])OC([H])([H])C1([H])C2([H])C3([H])C4([H])C5([H])C([H])([H])C6([H])C([H])([H])C([H])(C5([H])OC([H])([H])[H])C3(OC([H])([H])[H])C2([H])C1(C([H])([H])[H])C64[H]

$$$$
37:0:1
     RDKit          3D

 50 55  0  0  1  0  0  0  0  0999 V2000
    1.0163   -2.2464    3.8491 C   0  0  0  0  0  0  0  0  0  0  0  0
    2.2144   -2.8505    3.3797 O   0  0  0  0  0  0  0  0  0  0  0  0
    3.1602   -1.8802    2.9456 C   0  0  0  0  0  0  0  0  0  0  0  0
    4.3750   -2.5780    2.3546 C   0  0  2  0  0  0  0  0  0  0  0  0
    5.3885   -1.8141    1.4915 C   0  0  2  0  0  0  0  0  0  0  0  0
    5.0566   -1.2628    0.1021 C   0  0  2  0  0  0  0  0  0  0  0  0
    3.6103   -1.4958   -0.3410 C   0  0  1  0  0  0  0  0  0  0  0  0
    3.4245   -1.4646   -1.8759 C   0  0  2  0  0  0  0  0  0  0  0  0
    2.6137   -2.7239   -2.2241 C   0  0  0  0  0  0  0  0  0  0  0  0
    3.2666   -3.7068   -1.2795 C   0  0  1  0  0  0  0  0  0  0  0  0
    4.6879   -4.0235   -1.8437 C   0  0  0  0  0  0  0  0  0  0  0  0
    5.5879   -2.7582   -1.9229 C   0  0  1  0  0  0  0  0  0  0  0  0
    4.7909   -1.5946   -2.6026 C   0  0  1  0  0  0  0  0  0  0  0  0
    4.6144   -1.8406   -3.9934 O   0  0  0  0  0  0  0  0  0  0  0  0
    3.9865   -0.7822   -4.7166 C   0  0  0  0  0  0  0  0  0  0  0  0
    6.0190   -2.3274   -0.4978 C   0  0  1  0  0  0  0  0  0  0  0  0
    7.3700   -1.8544   -0.4750 O   0  0  0  0  0  0  0  0  0  0  0  0
    8.3926   -2.8598   -0.5631 C   0  0  0  0  0  0  0  0  0  0  0  0
    5.6669   -3.1233    0.7940 C   0  0  2  0  0  0  0  0  0  0  0  0
    4.2043   -3.5201    1.1239 C   0  0  1  0  0  0  0  0  0  0  0  0
    3.9661   -4.9945    1.4370 C   0  0  0  0  0  0  0  0  0  0  0  0
    3.2365   -2.9687    0.0630 C   0  0  1  0  0  0  0  0  0  0  0  0
    0.3264   -3.0352    4.1817 H   0  0  0  0  0  0  0  0  0  0  0  0
    0.5260   -1.6789    3.0649 H   0  0  0  0  0  0  0  0  0  0  0  0
    1.2213   -1.5958    4.6861 H   0  0  0  0  0  0  0  0  0  0  0  0
    2.6729   -1.2237    2.2172 H   0  0  0  0  0  0  0  0  0  0  0  0
    3.4355   -1.2298    3.7803 H   0  0  0  0  0  0  0  0  0  0  0  0
    4.9391   -3.1105    3.1253 H   0  0  0  0  0  0  0  0  0  0  0  0
    6.2833   -1.4144    1.9801 H   0  0  0  0  0  0  0  0  0  0  0  0
    5.4330   -0.2420   -0.0206 H   0  0  0  0  0  0  0  0  0  0  0  0
    2.9217   -0.7958    0.1281 H   0  0  0  0  0  0  0  0  0  0  0  0
    2.8907   -0.5572   -2.1583 H   0  0  0  0  0  0  0  0  0  0  0  0
    1.5493   -2.6700   -2.0089 H   0  0  0  0  0  0  0  0  0  0  0  0
    2.6890   -3.0238   -3.2723 H   0  0  0  0  0  0  0  0  0  0  0  0
    2.6205   -4.5549   -1.1255 H   0  0  0  0  0  0  0  0  0  0  0  0
    5.1853   -4.7973   -1.2613 H   0  0  0  0  0  0  0  0  0  0  0  0
    4.6077   -4.4295   -2.8532 H   0  0  0  0  0  0  0  0  0  0  0  0
    6.4421   -2.9662   -2.5702 H   0  0  0  0  0  0  0  0  0  0  0  0
    5.3880   -0.6826   -2.4900 H   0  0  0  0  0  0  0  0  0  0  0  0
    3.8499   -1.0493   -5.7656 H   0  0  0  0  0  0  0  0  0  0  0  0
    4.6085    0.1184   -4.6952 H   0  0  0  0  0  0  0  0  0  0  0  0
    2.9887   -0.5219   -4.3678 H   0  0  0  0  0  0  0  0  0  0  0  0
    9.3588   -2.3696   -0.5589 H   0  0  0  0  0  0  0  0  0  0  0  0
    8.3242   -3.4524   -1.4679 H   0  0  0  0  0  0  0  0  0  0  0  0
    8.3869   -3.5360    0.2926 H   0  0  0  0  0  0  0  0  0  0  0  0
    6.4318   -3.6868    1.3375 H   0  0  0  0  0  0  0  0  0  0  0  0
    4.1015   -5.6296    0.5658 H   0  0  0  0  0  0  0  0  0  0  0  0
    2.9749   -5.1642    1.8444 H   0  0  0  0  0  0  0  0  0  0  0  0
    4.6871   -5.3520    2.1837 H   0  0  0  0  0  0  0  0  0  0  0  0
    2.2122   -2.9870    0.4371 H   0  0  0  0  0  0  0  0  0  0  0  0
  1  2  1  0
  1 23  1  0
  1 24  1  0
  1 25  1  0
  2  3  1  0
  3  4  1  0
  3 26  1  0
  3 27  1  0
  4 20  1  0
  4  5  1  0
  4 28  1  1
  5 19  1  0
  5  6  1  0
  5 29  1  1
  6 16  1  0
  6  7  1  0
  6 30  1  1
  7 22  1  0
  7  8  1  0
  7 31  1  1
  8 13  1  0
  8  9  1  0
  8 32  1  1
  9 10  1  0
  9 33  1  0
  9 34  1  0
 10 22  1  0
 10 11  1  0
 10 35  1  1
 11 12  1  0
 11 36  1  0
 11 37  1  0
 12 13  1  0
 12 16  1  0
 12 38  1  6
 13 14  1  0
 13 39  1  6
 14 15  1  0
 15 40  1  0
 15 41  1  0
 15 42  1  0
 16 17  1  6
 16 19  1  0
 17 18  1  0
 18 43  1  0
 18 44  1  0
 18 45  1  0
 19 20  1  0
 19 46  1  1
 20 21  1  1
 20 22  1  0
 21 47  1  0
 21 48  1  0
 21 49  1  0
 22 50  1  1
M  END
>  <i_m_ct_stereo_status>  (136) 
1

>  <s_m_source_file>  (136) 
/var/tmp/pbs.5076255.sched01/tmp8yzwbncg/40d_vk9m1l.sdf

>  <i_m_source_file_index>  (136) 
14

>  <i_lp_mmshare_version>  (136) 
48012

>  <i_f3d_flags>  (136) 
0

>  <s_epik_input>  (136) 
W0NIM11PW0NAQF0xMltDQEBIXTNbQ0BASF00W0NASF0yW0NAQF0oW0NIM10pKFtDQEBIXTRbQ0gyXU9bQ0gzXSlbQ0BIXTVbQ0BASF0zW0NAQEhdNltDSDJdW0NASF01W0NIMl1bQ0BIXTFbQ0BIXTZPW0NIM10=

>  <s_epik_cmdline>  (136) 
J2VwaWtfcHl0aG9uJywgJy1waHQnLCAnMi4wJywgJy1waCcsICc3LjAnLCAnLXRuJywgJzgnLCAnLW1hJywgJzIwMCcsICctaW1hZScsICc8aW5maWxlLm1hZT4nLCAnLW9tYWUnLCAnPG91dGZpbGUubWFlPic=

>  <r_lp_tautomer_probability>  (136) 
1

>  <r_epik_Ionization_Penalty>  (136) 
1.37499e-10

>  <r_epik_Ionization_Penalty_Charging>  (136) 
0

>  <r_epik_Ionization_Penalty_Neutral>  (136) 
1.37499e-10

>  <r_epik_State_Penalty>  (136) 
-0

>  <r_epik_Charging_Adjusted_Penalty>  (136) 
0

>  <i_epik_Tot_Q>  (136) 
0

>  <i_epik_Tot_abs_Q>  (136) 
0

>  <s_lp_Force_Field>  (136) 
OPLS3e

>  <r_lp_Energy>  (136) 
80.2174

>  <b_lp_Chiralities_Consistent>  (136) 
1

>  <s_lp_Variant>  (136) 
37:0-1

>  <s_i_glide_gridfile>  (136) 
pfpi4k_grid

>  <i_i_glide_lignum>  (136) 
14

>  <i_i_glide_rotatable_bonds>  (136) 
4

>  <r_i_docking_score>  (136) 
-3.50268

>  <r_i_glide_ligand_efficiency>  (136) 
-0.159213

>  <r_i_glide_ligand_efficiency_sa>  (136) 
-0.44612

>  <r_i_glide_ligand_efficiency_ln>  (136) 
-0.856183

>  <r_i_glide_gscore>  (136) 
-3.50268

>  <r_i_glide_lipo>  (136) 
-0.380612

>  <r_i_glide_hbond>  (136) 
-0.299963

>  <r_i_glide_metal>  (136) 
-0

>  <r_i_glide_rewards>  (136) 
-1.33347

>  <r_i_glide_evdw>  (136) 
-20.3603

>  <r_i_glide_ecoul>  (136) 
-4.46409

>  <r_i_glide_erotb>  (136) 
0.198999

>  <r_i_glide_esite>  (136) 
0

>  <r_i_glide_emodel>  (136) 
-27.5767

>  <r_i_glide_energy>  (136) 
-24.8244

>  <r_i_glide_einternal>  (136) 
2.87543

>  <r_i_glide_intrahb_reward>  (136) 
-0

>  <i_i_glide_confnum>  (136) 
4

>  <i_i_glide_posenum>  (136) 
32

>  <r_i_glide_eff_state_penalty>  (136) 
0

>  <ligand_id>  (136) 
37

>  <original_smiles>  (136) 
COCC1C2C3C4C5CC6CC(C5OC)C3(OC)C2C1(C)C64

>  <smiles>  (136) 
[H]C([H])([H])OC([H])([H])C1([H])C2([H])C3([H])C4([H])C5([H])C([H])([H])C6([H])C([H])([H])C([H])(C5([H])OC([H])([H])[H])C3(OC([H])([H])[H])C2([H])C1(C([H])([H])[H])C64[H]

$$$$
37:0:2
     RDKit          3D

 50 55  0  0  1  0  0  0  0  0999 V2000
    3.1884   -0.1500   -4.7928 C   0  0  0  0  0  0  0  0  0  0  0  0
    4.0120   -0.9303   -3.9527 O   0  0  0  0  0  0  0  0  0  0  0  0
    3.3918   -1.2323   -2.7097 C   0  0  0  0  0  0  0  0  0  0  0  0
    4.4144   -0.9971   -1.5947 C   0  0  2  0  0  0  0  0  0  0  0  0
    5.6780   -1.8456   -1.5347 C   0  0  2  0  0  0  0  0  0  0  0  0
    5.6312   -3.3342   -1.1899 C   0  0  2  0  0  0  0  0  0  0  0  0
    4.2486   -3.8987   -0.8806 C   0  0  1  0  0  0  0  0  0  0  0  0
    4.3308   -5.1747    0.0047 C   0  0  2  0  0  0  0  0  0  0  0  0
    3.2041   -4.9285    1.0105 C   0  0  0  0  0  0  0  0  0  0  0  0
    3.4495   -3.4629    1.3601 C   0  0  1  0  0  0  0  0  0  0  0  0
    4.8038   -3.3474    2.1318 C   0  0  0  0  0  0  0  0  0  0  0  0
    6.0289   -3.8713    1.3246 C   0  0  1  0  0  0  0  0  0  0  0  0
    5.6836   -5.2733    0.7785 C   0  0  1  0  0  0  0  0  0  0  0  0
    5.5611   -6.2689    1.7942 O   0  0  0  0  0  0  0  0  0  0  0  0
    6.7869   -6.6922    2.3728 C   0  0  0  0  0  0  0  0  0  0  0  0
    6.3829   -2.9610    0.1121 C   0  0  1  0  0  0  0  0  0  0  0  0
    7.7820   -2.7253   -0.0313 O   0  0  0  0  0  0  0  0  0  0  0  0
    8.5668   -3.7336   -0.6624 C   0  0  0  0  0  0  0  0  0  0  0  0
    5.6788   -1.5885   -0.0377 C   0  0  2  0  0  0  0  0  0  0  0  0
    4.1453   -1.4425   -0.1439 C   0  0  1  0  0  0  0  0  0  0  0  0
    3.4675   -0.4159    0.7647 C   0  0  0  0  0  0  0  0  0  0  0  0
    3.4587   -2.8400   -0.0423 C   0  0  1  0  0  0  0  0  0  0  0  0
    3.6859    0.0111   -5.7475 H   0  0  0  0  0  0  0  0  0  0  0  0
    3.0142    0.8172   -4.3258 H   0  0  0  0  0  0  0  0  0  0  0  0
    2.2298   -0.6324   -4.9780 H   0  0  0  0  0  0  0  0  0  0  0  0
    2.5096   -0.6232   -2.5017 H   0  0  0  0  0  0  0  0  0  0  0  0
    3.0329   -2.2656   -2.7798 H   0  0  0  0  0  0  0  0  0  0  0  0
    4.7055    0.0522   -1.6022 H   0  0  0  0  0  0  0  0  0  0  0  0
    6.5825   -1.4904   -1.9883 H   0  0  0  0  0  0  0  0  0  0  0  0
    6.1846   -3.8978   -1.9235 H   0  0  0  0  0  0  0  0  0  0  0  0
    3.7246   -4.1257   -1.8099 H   0  0  0  0  0  0  0  0  0  0  0  0
    4.1843   -6.0820   -0.5756 H   0  0  0  0  0  0  0  0  0  0  0  0
    2.2410   -5.0587    0.5178 H   0  0  0  0  0  0  0  0  0  0  0  0
    3.2305   -5.5932    1.8761 H   0  0  0  0  0  0  0  0  0  0  0  0
    2.6342   -3.0619    1.9576 H   0  0  0  0  0  0  0  0  0  0  0  0
    4.9787   -2.3237    2.4598 H   0  0  0  0  0  0  0  0  0  0  0  0
    4.7169   -3.9327    3.0477 H   0  0  0  0  0  0  0  0  0  0  0  0
    6.9018   -3.9208    1.9834 H   0  0  0  0  0  0  0  0  0  0  0  0
    6.4486   -5.6051    0.0794 H   0  0  0  0  0  0  0  0  0  0  0  0
    6.5840   -7.5207    3.0495 H   0  0  0  0  0  0  0  0  0  0  0  0
    7.2517   -5.8982    2.9551 H   0  0  0  0  0  0  0  0  0  0  0  0
    7.4902   -7.0406    1.6154 H   0  0  0  0  0  0  0  0  0  0  0  0
    9.6100   -3.4481   -0.6124 H   0  0  0  0  0  0  0  0  0  0  0  0
    8.3361   -3.8433   -1.7211 H   0  0  0  0  0  0  0  0  0  0  0  0
    8.4759   -4.6994   -0.1675 H   0  0  0  0  0  0  0  0  0  0  0  0
    6.2593   -0.6862    0.2046 H   0  0  0  0  0  0  0  0  0  0  0  0
    3.4927   -0.7027    1.8174 H   0  0  0  0  0  0  0  0  0  0  0  0
    2.4291   -0.2576    0.4886 H   0  0  0  0  0  0  0  0  0  0  0  0
    3.9677    0.5509    0.6973 H   0  0  0  0  0  0  0  0  0  0  0  0
    2.4404   -2.7678   -0.4128 H   0  0  0  0  0  0  0  0  0  0  0  0
  1  2  1  0
  1 23  1  0
  1 24  1  0
  1 25  1  0
  2  3  1  0
  3  4  1  0
  3 26  1  0
  3 27  1  0
  4 20  1  0
  4  5  1  0
  4 28  1  1
  5 19  1  0
  5  6  1  0
  5 29  1  6
  6 16  1  0
  6  7  1  0
  6 30  1  6
  7 22  1  0
  7  8  1  0
  7 31  1  6
  8 13  1  0
  8  9  1  0
  8 32  1  6
  9 10  1  0
  9 33  1  0
  9 34  1  0
 10 22  1  0
 10 11  1  0
 10 35  1  1
 11 12  1  0
 11 36  1  0
 11 37  1  0
 12 13  1  0
 12 16  1  0
 12 38  1  1
 13 14  1  0
 13 39  1  6
 14 15  1  0
 15 40  1  0
 15 41  1  0
 15 42  1  0
 16 17  1  6
 16 19  1  0
 17 18  1  0
 18 43  1  0
 18 44  1  0
 18 45  1  0
 19 20  1  0
 19 46  1  6
 20 21  1  1
 20 22  1  0
 21 47  1  0
 21 48  1  0
 21 49  1  0
 22 50  1  6
M  END
>  <i_m_ct_stereo_status>  (137) 
1

>  <s_m_source_file>  (137) 
/var/tmp/pbs.5076255.sched01/tmp8yzwbncg/40d_vk9m1l.sdf

>  <i_m_source_file_index>  (137) 
14

>  <i_lp_mmshare_version>  (137) 
48012

>  <i_f3d_flags>  (137) 
0

>  <s_epik_input>  (137) 
W0NIM11PW0NAQF0xMltDQEBIXTNbQ0BASF00W0NASF0yW0NAQF0oW0NIM10pKFtDQEBIXTRbQ0gyXU9bQ0gzXSlbQ0BIXTVbQ0BASF0zW0NAQEhdNltDSDJdW0NASF01W0NIMl1bQ0BIXTFbQ0BIXTZPW0NIM10=

>  <s_epik_cmdline>  (137) 
J2VwaWtfcHl0aG9uJywgJy1waHQnLCAnMi4wJywgJy1waCcsICc3LjAnLCAnLXRuJywgJzgnLCAnLW1hJywgJzIwMCcsICctaW1hZScsICc8aW5maWxlLm1hZT4nLCAnLW9tYWUnLCAnPG91dGZpbGUubWFlPic=

>  <r_lp_tautomer_probability>  (137) 
1

>  <r_epik_Ionization_Penalty>  (137) 
1.37499e-10

>  <r_epik_Ionization_Penalty_Charging>  (137) 
0

>  <r_epik_Ionization_Penalty_Neutral>  (137) 
1.37499e-10

>  <r_epik_State_Penalty>  (137) 
-0

>  <r_epik_Charging_Adjusted_Penalty>  (137) 
0

>  <i_epik_Tot_Q>  (137) 
0

>  <i_epik_Tot_abs_Q>  (137) 
0

>  <s_lp_Force_Field>  (137) 
OPLS3e

>  <r_lp_Energy>  (137) 
80.2174

>  <b_lp_Chiralities_Consistent>  (137) 
1

>  <s_lp_Variant>  (137) 
37:0-1

>  <s_i_glide_gridfile>  (137) 
pfpi4k_grid

>  <i_i_glide_lignum>  (137) 
14

>  <i_i_glide_rotatable_bonds>  (137) 
4

>  <r_i_docking_score>  (137) 
-3.28224

>  <r_i_glide_ligand_efficiency>  (137) 
-0.149193

>  <r_i_glide_ligand_efficiency_sa>  (137) 
-0.418044

>  <r_i_glide_ligand_efficiency_ln>  (137) 
-0.8023

>  <r_i_glide_gscore>  (137) 
-3.28224

>  <r_i_glide_lipo>  (137) 
-0.62538

>  <r_i_glide_hbond>  (137) 
0

>  <r_i_glide_metal>  (137) 
-0

>  <r_i_glide_rewards>  (137) 
-1.33347

>  <r_i_glide_evdw>  (137) 
-22.6811

>  <r_i_glide_ecoul>  (137) 
-2.58887

>  <r_i_glide_erotb>  (137) 
0.198999

>  <r_i_glide_esite>  (137) 
0

>  <r_i_glide_emodel>  (137) 
-27.7233

>  <r_i_glide_energy>  (137) 
-25.27

>  <r_i_glide_einternal>  (137) 
4.19172

>  <r_i_glide_intrahb_reward>  (137) 
-0

>  <i_i_glide_confnum>  (137) 
1

>  <i_i_glide_posenum>  (137) 
34

>  <r_i_glide_eff_state_penalty>  (137) 
0

>  <ligand_id>  (137) 
37

>  <original_smiles>  (137) 
COCC1C2C3C4C5CC6CC(C5OC)C3(OC)C2C1(C)C64

>  <smiles>  (137) 
[H]C([H])([H])OC([H])([H])C1([H])C2([H])C3([H])C4([H])C5([H])C([H])([H])C6([H])C([H])([H])C([H])(C5([H])OC([H])([H])[H])C3(OC([H])([H])[H])C2([H])C1(C([H])([H])[H])C64[H]

$$$$
38:0:0
     RDKit          3D

 54 60  0  0  1  0  0  0  0  0999 V2000
    7.6904   -2.9117   -0.6980 C   0  0  0  0  0  0  0  0  0  0  0  0
    6.4689   -3.1015   -0.1643 C   0  0  0  0  0  0  0  0  0  0  0  0
    5.2493   -2.8415   -1.0501 C   0  0  1  0  0  0  0  0  0  0  0  0
    4.0985   -3.8289   -0.9843 C   0  0  0  0  0  0  0  0  0  0  0  0
    3.2450   -2.6709   -0.5682 C   0  0  2  0  0  0  0  0  0  0  0  0
    4.2977   -1.5915   -0.8919 C   0  0  1  0  0  0  0  0  0  0  0  0
    3.4913   -0.8384    0.2247 C   0  0  2  0  0  0  0  0  0  0  0  0
    4.0705   -0.0611    1.2701 O   0  0  0  0  0  0  0  0  0  0  0  0
    4.0670   -0.6986    2.4488 C   0  0  0  0  0  0  0  0  0  0  0  0
    4.0954   -0.1451    3.5401 O   0  0  0  0  0  0  0  0  0  0  0  0
    4.0933   -2.1585    2.0798 C   0  0  2  0  0  0  0  0  0  0  0  0
    4.0289   -3.1971    3.2038 C   0  0  2  0  0  0  0  0  0  0  0  0
    5.4213   -2.9889    3.4684 O   0  0  0  0  0  0  0  0  0  0  0  0
    5.5794   -2.5565    2.0986 C   0  0  1  0  0  0  0  0  0  0  0  0
    6.3145   -3.6012    1.2763 C   0  0  1  0  0  0  0  0  0  0  0  0
    5.9631   -5.1258    1.4454 C   0  0  1  0  0  0  0  0  0  0  0  0
    7.1982   -5.8244    1.5451 O   0  0  0  0  0  0  0  0  0  0  0  0
    4.9638   -5.6099    2.5750 C   0  0  1  0  0  0  0  0  0  0  0  0
    5.6649   -5.7755    3.9583 C   0  0  0  0  0  0  0  0  0  0  0  0
    3.7698   -4.6238    2.7105 C   0  0  0  0  0  0  0  0  0  0  0  0
    2.5254   -4.9808    2.4063 C   0  0  0  0  0  0  0  0  0  0  0  0
    2.1729   -6.3074    1.7795 C   0  0  1  0  0  0  0  0  0  0  0  0
    1.2602   -6.0774    0.7580 O   0  0  0  0  0  0  0  0  0  0  0  0
    0.0483   -6.7911    0.8959 C   0  0  0  0  0  0  0  0  0  0  0  0
    3.3151   -6.9378    1.2856 O   0  0  0  0  0  0  0  0  0  0  0  0
    4.3583   -7.0306    2.2476 C   0  0  1  0  0  0  0  0  0  0  0  0
    5.3225   -8.1258    1.7516 C   0  0  0  0  0  0  0  0  0  0  0  0
    3.1331   -2.1472    0.8734 C   0  0  2  0  0  0  0  0  0  0  0  0
    8.5892   -3.0890   -0.1260 H   0  0  0  0  0  0  0  0  0  0  0  0
    7.8087   -2.5930   -1.7247 H   0  0  0  0  0  0  0  0  0  0  0  0
    5.5792   -2.8268   -2.0884 H   0  0  0  0  0  0  0  0  0  0  0  0
    3.8176   -4.2250   -1.9627 H   0  0  0  0  0  0  0  0  0  0  0  0
    4.0009   -4.5743   -0.2070 H   0  0  0  0  0  0  0  0  0  0  0  0
    2.3380   -2.5805   -1.1590 H   0  0  0  0  0  0  0  0  0  0  0  0
    4.0931   -1.1358   -1.8540 H   0  0  0  0  0  0  0  0  0  0  0  0
    2.6217   -0.3332   -0.1861 H   0  0  0  0  0  0  0  0  0  0  0  0
    3.3872   -2.8836    4.0317 H   0  0  0  0  0  0  0  0  0  0  0  0
    6.1968   -1.6580    2.0675 H   0  0  0  0  0  0  0  0  0  0  0  0
    7.3312   -3.5351    1.6708 H   0  0  0  0  0  0  0  0  0  0  0  0
    5.5920   -5.4995    0.4974 H   0  0  0  0  0  0  0  0  0  0  0  0
    7.5956   -5.6109    2.3804 H   0  0  0  0  0  0  0  0  0  0  0  0
    6.2618   -6.6847    4.0112 H   0  0  0  0  0  0  0  0  0  0  0  0
    4.9263   -5.8517    4.7552 H   0  0  0  0  0  0  0  0  0  0  0  0
    6.3352   -4.9650    4.2282 H   0  0  0  0  0  0  0  0  0  0  0  0
    1.7138   -4.2821    2.5427 H   0  0  0  0  0  0  0  0  0  0  0  0
    1.7471   -6.9312    2.5706 H   0  0  0  0  0  0  0  0  0  0  0  0
   -0.5889   -6.5430    0.0587 H   0  0  0  0  0  0  0  0  0  0  0  0
   -0.4842   -6.5162    1.8028 H   0  0  0  0  0  0  0  0  0  0  0  0
    0.2118   -7.8680    0.8868 H   0  0  0  0  0  0  0  0  0  0  0  0
    3.9175   -7.4292    3.1632 H   0  0  0  0  0  0  0  0  0  0  0  0
    6.1775   -8.2582    2.4120 H   0  0  0  0  0  0  0  0  0  0  0  0
    5.6979   -7.9014    0.7572 H   0  0  0  0  0  0  0  0  0  0  0  0
    4.8113   -9.0878    1.6883 H   0  0  0  0  0  0  0  0  0  0  0  0
    2.0928   -2.1309    1.1933 H   0  0  0  0  0  0  0  0  0  0  0  0
  1  2  2  0
  1 29  1  0
  1 30  1  0
  2 15  1  0
  2  3  1  0
  3  6  1  0
  3  4  1  0
  3 31  1  6
  4  5  1  0
  4 32  1  0
  4 33  1  0
  5 28  1  0
  5  6  1  0
  5 34  1  6
  6  7  1  0
  6 35  1  6
  7 28  1  0
  7  8  1  0
  7 36  1  6
  8  9  1  0
  9 10  2  0
 11  9  1  1
 11 14  1  0
 11 12  1  0
 11 28  1  0
 12 20  1  0
 12 13  1  0
 12 37  1  1
 13 14  1  0
 14 15  1  0
 14 38  1  1
 15 16  1  0
 15 39  1  1
 16 17  1  0
 16 18  1  0
 16 40  1  6
 17 41  1  0
 18 26  1  0
 18 19  1  1
 18 20  1  0
 19 42  1  0
 19 43  1  0
 19 44  1  0
 20 21  2  0
 21 22  1  0
 21 45  1  0
 22 23  1  0
 22 25  1  0
 22 46  1  1
 23 24  1  0
 24 47  1  0
 24 48  1  0
 24 49  1  0
 25 26  1  0
 26 27  1  0
 26 50  1  1
 27 51  1  0
 27 52  1  0
 27 53  1  0
 28 54  1  1
M  END
>  <i_m_ct_stereo_status>  (138) 
1

>  <s_m_source_file>  (138) 
/var/tmp/pbs.5076255.sched01/tmp8yzwbncg/40d_vk9m1l.sdf

>  <i_m_source_file_index>  (138) 
15

>  <i_lp_mmshare_version>  (138) 
48012

>  <i_f3d_flags>  (138) 
0

>  <s_epik_input>  (138) 
W0NIM11PW0NASF0oW0NIXTEpT1tDQEBIXShbQ0gzXSlbQ0BdKFtDSDNdKShDPTFbQ0BASF0yW0NAQF0zNDUpW0NASF0oW09IXSlbQ0BIXShbQ0BASF00TzIpQyg9W0NIMl0pW0NAQEhdNltDQEhdN1tDQEBIXShbQ0gyXTYpW0NAQEhdNVtDQEhdN09DMz1P

>  <s_epik_cmdline>  (138) 
J2VwaWtfcHl0aG9uJywgJy1waHQnLCAnMi4wJywgJy1waCcsICc3LjAnLCAnLXRuJywgJzgnLCAnLW1hJywgJzIwMCcsICctaW1hZScsICc8aW5maWxlLm1hZT4nLCAnLW9tYWUnLCAnPG91dGZpbGUubWFlPic=

>  <r_lp_tautomer_probability>  (138) 
1

>  <r_epik_Ionization_Penalty>  (138) 
1.07416e-07

>  <r_epik_Ionization_Penalty_Charging>  (138) 
0

>  <r_epik_Ionization_Penalty_Neutral>  (138) 
1.07416e-07

>  <r_epik_State_Penalty>  (138) 
-0

>  <r_epik_Charging_Adjusted_Penalty>  (138) 
0

>  <i_epik_Tot_Q>  (138) 
0

>  <i_epik_Tot_abs_Q>  (138) 
0

>  <s_epik_Chemistry_Notes>  (138) 
This compound has an ester and may undergo hydrolysis at high or low pH. This compound contains an acetal/aminal-like group ( X-CH(R)-Y where X, Y are N, S, or O) that may be acid/base labile, releasing an aldehyde.

>  <s_lp_Force_Field>  (138) 
OPLS3e

>  <r_lp_Energy>  (138) 
106.082

>  <b_lp_Chiralities_Consistent>  (138) 
1

>  <s_lp_Variant>  (138) 
38:0-1

>  <s_i_glide_gridfile>  (138) 
pfpi4k_grid

>  <i_i_glide_lignum>  (138) 
15

>  <i_i_glide_rotatable_bonds>  (138) 
2

>  <r_i_docking_score>  (138) 
-3.06107

>  <r_i_glide_ligand_efficiency>  (138) 
-0.109324

>  <r_i_glide_ligand_efficiency_sa>  (138) 
-0.331972

>  <r_i_glide_ligand_efficiency_ln>  (138) 
-0.706585

>  <r_i_glide_gscore>  (138) 
-3.06107

>  <r_i_glide_lipo>  (138) 
-0.358857

>  <r_i_glide_hbond>  (138) 
-0.16

>  <r_i_glide_metal>  (138) 
-0

>  <r_i_glide_rewards>  (138) 
-0.823168

>  <r_i_glide_evdw>  (138) 
-23.1205

>  <r_i_glide_ecoul>  (138) 
-3.63159

>  <r_i_glide_erotb>  (138) 
0

>  <r_i_glide_esite>  (138) 
-0.018286

>  <r_i_glide_emodel>  (138) 
-30.4306

>  <r_i_glide_energy>  (138) 
-26.7521

>  <r_i_glide_einternal>  (138) 
2.12351

>  <r_i_glide_intrahb_reward>  (138) 
-0

>  <i_i_glide_confnum>  (138) 
2

>  <i_i_glide_posenum>  (138) 
1

>  <r_i_glide_eff_state_penalty>  (138) 
0

>  <ligand_id>  (138) 
38

>  <original_smiles>  (138) 
C=C1C2CC3C2C2OC(=O)C4(C5OC4C1C(O)C1(C)C5=CC(OC)OC1C)C32

>  <smiles>  (138) 
[H]OC1([H])C2([H])C(=C([H])[H])C3([H])C([H])([H])C4([H])C3([H])C3([H])OC(=O)C5(C([H])(OC25[H])C2=C([H])C([H])(OC([H])([H])[H])OC([H])(C([H])([H])[H])C21C([H])([H])[H])C34[H]

$$$$
38:0:1
     RDKit          3D

 54 60  0  0  1  0  0  0  0  0999 V2000
    7.6903   -2.9369   -0.5670 C   0  0  0  0  0  0  0  0  0  0  0  0
    6.4567   -3.1177   -0.0541 C   0  0  0  0  0  0  0  0  0  0  0  0
    5.2523   -2.8543   -0.9530 C   0  0  1  0  0  0  0  0  0  0  0  0
    4.0935   -3.8306   -0.8967 C   0  0  0  0  0  0  0  0  0  0  0  0
    3.2417   -2.6704   -0.4936 C   0  0  2  0  0  0  0  0  0  0  0  0
    4.3033   -1.6040   -0.8207 C   0  0  1  0  0  0  0  0  0  0  0  0
    3.4854   -0.8354    0.2782 C   0  0  2  0  0  0  0  0  0  0  0  0
    4.0546   -0.0455    1.3206 O   0  0  0  0  0  0  0  0  0  0  0  0
    4.0305   -0.6688    2.5099 C   0  0  0  0  0  0  0  0  0  0  0  0
    4.0396   -0.1051    3.5933 O   0  0  0  0  0  0  0  0  0  0  0  0
    4.0658   -2.1365    2.1584 C   0  0  2  0  0  0  0  0  0  0  0  0
    3.9960   -3.1635    3.3007 C   0  0  2  0  0  0  0  0  0  0  0  0
    5.4031   -2.9497    3.5641 O   0  0  0  0  0  0  0  0  0  0  0  0
    5.5498   -2.5343    2.1911 C   0  0  1  0  0  0  0  0  0  0  0  0
    6.2795   -3.5982    1.3873 C   0  0  1  0  0  0  0  0  0  0  0  0
    5.9179   -5.1170    1.5786 C   0  0  1  0  0  0  0  0  0  0  0  0
    7.1472   -5.8140    1.7117 O   0  0  0  0  0  0  0  0  0  0  0  0
    4.9066   -5.5852    2.7035 C   0  0  1  0  0  0  0  0  0  0  0  0
    5.5859   -5.7328    4.0986 C   0  0  0  0  0  0  0  0  0  0  0  0
    3.7218   -4.5932    2.8135 C   0  0  0  0  0  0  0  0  0  0  0  0
    2.4794   -4.9435    2.4904 C   0  0  0  0  0  0  0  0  0  0  0  0
    2.1235   -6.2775    1.8745 C   0  0  1  0  0  0  0  0  0  0  0  0
    1.2239   -6.0493    0.8418 O   0  0  0  0  0  0  0  0  0  0  0  0
    0.0470   -6.8289    0.9216 C   0  0  0  0  0  0  0  0  0  0  0  0
    3.2684   -6.9218    1.4049 O   0  0  0  0  0  0  0  0  0  0  0  0
    4.3028   -7.0062    2.3816 C   0  0  1  0  0  0  0  0  0  0  0  0
    5.2709   -8.1091    1.9078 C   0  0  0  0  0  0  0  0  0  0  0  0
    3.1148   -2.1383    0.9423 C   0  0  2  0  0  0  0  0  0  0  0  0
    8.5782   -3.1054    0.0252 H   0  0  0  0  0  0  0  0  0  0  0  0
    7.8250   -2.6282   -1.5930 H   0  0  0  0  0  0  0  0  0  0  0  0
    5.5966   -2.8561   -1.9841 H   0  0  0  0  0  0  0  0  0  0  0  0
    3.8116   -4.2075   -1.8815 H   0  0  0  0  0  0  0  0  0  0  0  0
    3.9832   -4.5811   -0.1230 H   0  0  0  0  0  0  0  0  0  0  0  0
    2.3421   -2.5899   -1.0930 H   0  0  0  0  0  0  0  0  0  0  0  0
    4.1085   -1.1626   -1.7919 H   0  0  0  0  0  0  0  0  0  0  0  0
    2.6230   -0.3345   -0.1578 H   0  0  0  0  0  0  0  0  0  0  0  0
    3.3422   -2.8352    4.1095 H   0  0  0  0  0  0  0  0  0  0  0  0
    6.1732   -1.6350    2.1496 H   0  0  0  0  0  0  0  0  0  0  0  0
    7.2943   -3.5349    1.7745 H   0  0  0  0  0  0  0  0  0  0  0  0
    5.5554   -5.5056    0.6337 H   0  0  0  0  0  0  0  0  0  0  0  0
    7.6411   -5.6903    0.9143 H   0  0  0  0  0  0  0  0  0  0  0  0
    6.1829   -6.6394    4.1677 H   0  0  0  0  0  0  0  0  0  0  0  0
    4.8351   -5.7964    4.8867 H   0  0  0  0  0  0  0  0  0  0  0  0
    6.2594   -4.9227    4.3626 H   0  0  0  0  0  0  0  0  0  0  0  0
    1.6653   -4.2431    2.6101 H   0  0  0  0  0  0  0  0  0  0  0  0
    1.6837   -6.8867    2.6698 H   0  0  0  0  0  0  0  0  0  0  0  0
   -0.5885   -6.5903    0.0729 H   0  0  0  0  0  0  0  0  0  0  0  0
   -0.5261   -6.6105    1.8222 H   0  0  0  0  0  0  0  0  0  0  0  0
    0.2726   -7.8878    0.8892 H   0  0  0  0  0  0  0  0  0  0  0  0
    3.8484   -7.3922    3.2975 H   0  0  0  0  0  0  0  0  0  0  0  0
    6.1132   -8.2338    2.5843 H   0  0  0  0  0  0  0  0  0  0  0  0
    5.6620   -7.9031    0.9139 H   0  0  0  0  0  0  0  0  0  0  0  0
    4.7564   -9.0695    1.8558 H   0  0  0  0  0  0  0  0  0  0  0  0
    2.0657   -2.1087    1.2438 H   0  0  0  0  0  0  0  0  0  0  0  0
  1  2  2  0
  1 29  1  0
  1 30  1  0
  2 15  1  0
  2  3  1  0
  3  6  1  0
  3  4  1  0
  3 31  1  6
  4  5  1  0
  4 32  1  0
  4 33  1  0
  5 28  1  0
  5  6  1  0
  5 34  1  6
  6  7  1  0
  6 35  1  6
  7 28  1  0
  7  8  1  0
  7 36  1  6
  8  9  1  0
  9 10  2  0
 11  9  1  1
 11 14  1  0
 11 12  1  0
 11 28  1  0
 12 20  1  0
 12 13  1  0
 12 37  1  1
 13 14  1  0
 14 15  1  0
 14 38  1  1
 15 16  1  0
 15 39  1  1
 16 17  1  0
 16 18  1  0
 16 40  1  6
 17 41  1  0
 18 26  1  0
 18 19  1  1
 18 20  1  0
 19 42  1  0
 19 43  1  0
 19 44  1  0
 20 21  2  0
 21 22  1  0
 21 45  1  0
 22 23  1  0
 22 25  1  0
 22 46  1  1
 23 24  1  0
 24 47  1  0
 24 48  1  0
 24 49  1  0
 25 26  1  0
 26 27  1  0
 26 50  1  1
 27 51  1  0
 27 52  1  0
 27 53  1  0
 28 54  1  1
M  END
>  <i_m_ct_stereo_status>  (139) 
1

>  <s_m_source_file>  (139) 
/var/tmp/pbs.5076255.sched01/tmp8yzwbncg/40d_vk9m1l.sdf

>  <i_m_source_file_index>  (139) 
15

>  <i_lp_mmshare_version>  (139) 
48012

>  <i_f3d_flags>  (139) 
0

>  <s_epik_input>  (139) 
W0NIM11PW0NASF0oW0NIXTEpT1tDQEBIXShbQ0gzXSlbQ0BdKFtDSDNdKShDPTFbQ0BASF0yW0NAQF0zNDUpW0NASF0oW09IXSlbQ0BIXShbQ0BASF00TzIpQyg9W0NIMl0pW0NAQEhdNltDQEhdN1tDQEBIXShbQ0gyXTYpW0NAQEhdNVtDQEhdN09DMz1P

>  <s_epik_cmdline>  (139) 
J2VwaWtfcHl0aG9uJywgJy1waHQnLCAnMi4wJywgJy1waCcsICc3LjAnLCAnLXRuJywgJzgnLCAnLW1hJywgJzIwMCcsICctaW1hZScsICc8aW5maWxlLm1hZT4nLCAnLW9tYWUnLCAnPG91dGZpbGUubWFlPic=

>  <r_lp_tautomer_probability>  (139) 
1

>  <r_epik_Ionization_Penalty>  (139) 
1.07416e-07

>  <r_epik_Ionization_Penalty_Charging>  (139) 
0

>  <r_epik_Ionization_Penalty_Neutral>  (139) 
1.07416e-07

>  <r_epik_State_Penalty>  (139) 
-0

>  <r_epik_Charging_Adjusted_Penalty>  (139) 
0

>  <i_epik_Tot_Q>  (139) 
0

>  <i_epik_Tot_abs_Q>  (139) 
0

>  <s_epik_Chemistry_Notes>  (139) 
This compound has an ester and may undergo hydrolysis at high or low pH. This compound contains an acetal/aminal-like group ( X-CH(R)-Y where X, Y are N, S, or O) that may be acid/base labile, releasing an aldehyde.

>  <s_lp_Force_Field>  (139) 
OPLS3e

>  <r_lp_Energy>  (139) 
106.082

>  <b_lp_Chiralities_Consistent>  (139) 
1

>  <s_lp_Variant>  (139) 
38:0-1

>  <s_i_glide_gridfile>  (139) 
pfpi4k_grid

>  <i_i_glide_lignum>  (139) 
15

>  <i_i_glide_rotatable_bonds>  (139) 
2

>  <r_i_docking_score>  (139) 
-2.98823

>  <r_i_glide_ligand_efficiency>  (139) 
-0.106723

>  <r_i_glide_ligand_efficiency_sa>  (139) 
-0.324073

>  <r_i_glide_ligand_efficiency_ln>  (139) 
-0.689772

>  <r_i_glide_gscore>  (139) 
-2.98823

>  <r_i_glide_lipo>  (139) 
-0.366801

>  <r_i_glide_hbond>  (139) 
-0.16

>  <r_i_glide_metal>  (139) 
-0

>  <r_i_glide_rewards>  (139) 
-0.820899

>  <r_i_glide_evdw>  (139) 
-22.4939

>  <r_i_glide_ecoul>  (139) 
-3.31356

>  <r_i_glide_erotb>  (139) 
0

>  <r_i_glide_esite>  (139) 
-0.0188081

>  <r_i_glide_emodel>  (139) 
-29.1977

>  <r_i_glide_energy>  (139) 
-25.8074

>  <r_i_glide_einternal>  (139) 
2.35805

>  <r_i_glide_intrahb_reward>  (139) 
-0

>  <i_i_glide_confnum>  (139) 
1

>  <i_i_glide_posenum>  (139) 
22

>  <r_i_glide_eff_state_penalty>  (139) 
0

>  <ligand_id>  (139) 
38

>  <original_smiles>  (139) 
C=C1C2CC3C2C2OC(=O)C4(C5OC4C1C(O)C1(C)C5=CC(OC)OC1C)C32

>  <smiles>  (139) 
[H]OC1([H])C2([H])C(=C([H])[H])C3([H])C([H])([H])C4([H])C3([H])C3([H])OC(=O)C5(C([H])(OC25[H])C2=C([H])C([H])(OC([H])([H])[H])OC([H])(C([H])([H])[H])C21C([H])([H])[H])C34[H]

$$$$
38:0:2
     RDKit          3D

 54 60  0  0  1  0  0  0  0  0999 V2000
    7.3372   -3.0107   -0.4225 C   0  0  0  0  0  0  0  0  0  0  0  0
    6.1480   -3.1848    0.1891 C   0  0  0  0  0  0  0  0  0  0  0  0
    4.8770   -2.8935   -0.6083 C   0  0  1  0  0  0  0  0  0  0  0  0
    3.7259   -3.8698   -0.4720 C   0  0  0  0  0  0  0  0  0  0  0  0
    2.9247   -2.7198    0.0265 C   0  0  2  0  0  0  0  0  0  0  0  0
    3.9503   -1.6358   -0.3787 C   0  0  1  0  0  0  0  0  0  0  0  0
    3.2217   -0.8821    0.7925 C   0  0  2  0  0  0  0  0  0  0  0  0
    3.8880   -0.1228    1.7934 O   0  0  0  0  0  0  0  0  0  0  0  0
    3.9756   -0.7619    2.9708 C   0  0  0  0  0  0  0  0  0  0  0  0
    4.0799   -0.2110    4.0562 O   0  0  0  0  0  0  0  0  0  0  0  0
    3.9599   -2.2207    2.5968 C   0  0  2  0  0  0  0  0  0  0  0  0
    3.9701   -3.2652    3.7215 C   0  0  2  0  0  0  0  0  0  0  0  0
    5.3904   -3.0799    3.8748 O   0  0  0  0  0  0  0  0  0  0  0  0
    5.4366   -2.6413    2.5035 C   0  0  1  0  0  0  0  0  0  0  0  0
    6.0857   -3.6990    1.6297 C   0  0  1  0  0  0  0  0  0  0  0  0
    5.7233   -5.2160    1.8203 C   0  0  1  0  0  0  0  0  0  0  0  0
    6.9525   -5.9247    1.8453 O   0  0  0  0  0  0  0  0  0  0  0  0
    4.8026   -5.6894    3.0137 C   0  0  1  0  0  0  0  0  0  0  0  0
    5.5914   -5.8697    4.3464 C   0  0  0  0  0  0  0  0  0  0  0  0
    3.6385   -4.6852    3.2329 C   0  0  0  0  0  0  0  0  0  0  0  0
    2.3730   -5.0238    3.0104 C   0  0  0  0  0  0  0  0  0  0  0  0
    1.9486   -6.3398    2.3925 C   0  0  1  0  0  0  0  0  0  0  0  0
    0.9660   -6.0779    1.4450 O   0  0  0  0  0  0  0  0  0  0  0  0
    0.3108   -7.2350    0.9588 C   0  0  0  0  0  0  0  0  0  0  0  0
    3.0568   -6.9755    1.8247 O   0  0  0  0  0  0  0  0  0  0  0  0
    4.1554   -7.0977    2.7207 C   0  0  1  0  0  0  0  0  0  0  0  0
    5.0697   -8.2027    2.1512 C   0  0  0  0  0  0  0  0  0  0  0  0
    2.9145   -2.1904    1.4666 C   0  0  2  0  0  0  0  0  0  0  0  0
    8.2689   -3.2134    0.0879 H   0  0  0  0  0  0  0  0  0  0  0  0
    7.3905   -2.6737   -1.4471 H   0  0  0  0  0  0  0  0  0  0  0  0
    5.1374   -2.8868   -1.6683 H   0  0  0  0  0  0  0  0  0  0  0  0
    3.3463   -4.2095   -1.4393 H   0  0  0  0  0  0  0  0  0  0  0  0
    3.6663   -4.6281    0.2959 H   0  0  0  0  0  0  0  0  0  0  0  0
    1.9747   -2.6632   -0.4867 H   0  0  0  0  0  0  0  0  0  0  0  0
    3.6802   -1.1873   -1.3309 H   0  0  0  0  0  0  0  0  0  0  0  0
    2.3123   -0.3707    0.4665 H   0  0  0  0  0  0  0  0  0  0  0  0
    3.3907   -2.9467    4.5863 H   0  0  0  0  0  0  0  0  0  0  0  0
    6.0592   -1.7541    2.4251 H   0  0  0  0  0  0  0  0  0  0  0  0
    7.1294   -3.6628    1.9443 H   0  0  0  0  0  0  0  0  0  0  0  0
    5.2839   -5.5798    0.8993 H   0  0  0  0  0  0  0  0  0  0  0  0
    6.7556   -6.8489    1.8549 H   0  0  0  0  0  0  0  0  0  0  0  0
    6.1782   -6.7866    4.3572 H   0  0  0  0  0  0  0  0  0  0  0  0
    4.9079   -5.9364    5.1926 H   0  0  0  0  0  0  0  0  0  0  0  0
    6.2975   -5.0717    4.5667 H   0  0  0  0  0  0  0  0  0  0  0  0
    1.5781   -4.3184    3.2024 H   0  0  0  0  0  0  0  0  0  0  0  0
    1.5327   -6.9533    3.1926 H   0  0  0  0  0  0  0  0  0  0  0  0
   -0.4169   -6.9425    0.2053 H   0  0  0  0  0  0  0  0  0  0  0  0
   -0.2158   -7.7771    1.7436 H   0  0  0  0  0  0  0  0  0  0  0  0
    1.0216   -7.9002    0.4818 H   0  0  0  0  0  0  0  0  0  0  0  0
    3.7660   -7.4953    3.6613 H   0  0  0  0  0  0  0  0  0  0  0  0
    5.9596   -8.3620    2.7575 H   0  0  0  0  0  0  0  0  0  0  0  0
    5.3749   -7.9905    1.1276 H   0  0  0  0  0  0  0  0  0  0  0  0
    4.5359   -9.1530    2.1249 H   0  0  0  0  0  0  0  0  0  0  0  0
    1.8956   -2.1650    1.8492 H   0  0  0  0  0  0  0  0  0  0  0  0
  1  2  2  0
  1 29  1  0
  1 30  1  0
  2 15  1  0
  2  3  1  0
  3  6  1  0
  3  4  1  0
  3 31  1  6
  4  5  1  0
  4 32  1  0
  4 33  1  0
  5 28  1  0
  5  6  1  0
  5 34  1  6
  6  7  1  0
  6 35  1  6
  7 28  1  0
  7  8  1  0
  7 36  1  6
  8  9  1  0
  9 10  2  0
 11  9  1  1
 11 14  1  0
 11 12  1  0
 11 28  1  0
 12 20  1  0
 12 13  1  0
 12 37  1  1
 13 14  1  0
 14 15  1  0
 14 38  1  1
 15 16  1  0
 15 39  1  1
 16 17  1  0
 16 18  1  0
 16 40  1  6
 17 41  1  0
 18 26  1  0
 18 19  1  1
 18 20  1  0
 19 42  1  0
 19 43  1  0
 19 44  1  0
 20 21  2  0
 21 22  1  0
 21 45  1  0
 22 23  1  0
 22 25  1  0
 22 46  1  1
 23 24  1  0
 24 47  1  0
 24 48  1  0
 24 49  1  0
 25 26  1  0
 26 27  1  0
 26 50  1  1
 27 51  1  0
 27 52  1  0
 27 53  1  0
 28 54  1  1
M  END
>  <i_m_ct_stereo_status>  (140) 
1

>  <s_m_source_file>  (140) 
/var/tmp/pbs.5076255.sched01/tmp8yzwbncg/40d_vk9m1l.sdf

>  <i_m_source_file_index>  (140) 
15

>  <i_lp_mmshare_version>  (140) 
48012

>  <i_f3d_flags>  (140) 
0

>  <s_epik_input>  (140) 
W0NIM11PW0NASF0oW0NIXTEpT1tDQEBIXShbQ0gzXSlbQ0BdKFtDSDNdKShDPTFbQ0BASF0yW0NAQF0zNDUpW0NASF0oW09IXSlbQ0BIXShbQ0BASF00TzIpQyg9W0NIMl0pW0NAQEhdNltDQEhdN1tDQEBIXShbQ0gyXTYpW0NAQEhdNVtDQEhdN09DMz1P

>  <s_epik_cmdline>  (140) 
J2VwaWtfcHl0aG9uJywgJy1waHQnLCAnMi4wJywgJy1waCcsICc3LjAnLCAnLXRuJywgJzgnLCAnLW1hJywgJzIwMCcsICctaW1hZScsICc8aW5maWxlLm1hZT4nLCAnLW9tYWUnLCAnPG91dGZpbGUubWFlPic=

>  <r_lp_tautomer_probability>  (140) 
1

>  <r_epik_Ionization_Penalty>  (140) 
1.07416e-07

>  <r_epik_Ionization_Penalty_Charging>  (140) 
0

>  <r_epik_Ionization_Penalty_Neutral>  (140) 
1.07416e-07

>  <r_epik_State_Penalty>  (140) 
-0

>  <r_epik_Charging_Adjusted_Penalty>  (140) 
0

>  <i_epik_Tot_Q>  (140) 
0

>  <i_epik_Tot_abs_Q>  (140) 
0

>  <s_epik_Chemistry_Notes>  (140) 
This compound has an ester and may undergo hydrolysis at high or low pH. This compound contains an acetal/aminal-like group ( X-CH(R)-Y where X, Y are N, S, or O) that may be acid/base labile, releasing an aldehyde.

>  <s_lp_Force_Field>  (140) 
OPLS3e

>  <r_lp_Energy>  (140) 
106.082

>  <b_lp_Chiralities_Consistent>  (140) 
1

>  <s_lp_Variant>  (140) 
38:0-1

>  <s_i_glide_gridfile>  (140) 
pfpi4k_grid

>  <i_i_glide_lignum>  (140) 
15

>  <i_i_glide_rotatable_bonds>  (140) 
2

>  <r_i_docking_score>  (140) 
-2.92014

>  <r_i_glide_ligand_efficiency>  (140) 
-0.104291

>  <r_i_glide_ligand_efficiency_sa>  (140) 
-0.316688

>  <r_i_glide_ligand_efficiency_ln>  (140) 
-0.674053

>  <r_i_glide_gscore>  (140) 
-2.92014

>  <r_i_glide_lipo>  (140) 
-0.327267

>  <r_i_glide_hbond>  (140) 
-0.16

>  <r_i_glide_metal>  (140) 
-0

>  <r_i_glide_rewards>  (140) 
-0.802587

>  <r_i_glide_evdw>  (140) 
-19.8553

>  <r_i_glide_ecoul>  (140) 
-4.13248

>  <r_i_glide_erotb>  (140) 
0

>  <r_i_glide_esite>  (140) 
-0.0176448

>  <r_i_glide_emodel>  (140) 
-28.3653

>  <r_i_glide_energy>  (140) 
-23.9878

>  <r_i_glide_einternal>  (140) 
0.339902

>  <r_i_glide_intrahb_reward>  (140) 
-0

>  <i_i_glide_confnum>  (140) 
1

>  <i_i_glide_posenum>  (140) 
14

>  <r_i_glide_eff_state_penalty>  (140) 
0

>  <ligand_id>  (140) 
38

>  <original_smiles>  (140) 
C=C1C2CC3C2C2OC(=O)C4(C5OC4C1C(O)C1(C)C5=CC(OC)OC1C)C32

>  <smiles>  (140) 
[H]OC1([H])C2([H])C(=C([H])[H])C3([H])C([H])([H])C4([H])C3([H])C3([H])OC(=O)C5(C([H])(OC25[H])C2=C([H])C([H])(OC([H])([H])[H])OC([H])(C([H])([H])[H])C21C([H])([H])[H])C34[H]

$$$$
39:0:0
     RDKit          3D

 13 14  0  0  1  0  0  0  0  0999 V2000
    2.8967   -2.7201   -3.5331 C   0  0  0  0  0  0  0  0  0  0  0  0
    2.4440   -3.0559   -2.2849 C   0  0  0  0  0  0  0  0  0  0  0  0
    3.3863   -3.4511   -1.3906 N   0  0  0  0  0  0  0  0  0  0  0  0
    3.1968   -3.8372   -0.1023 N   0  0  0  0  0  0  0  0  0  0  0  0
    4.4361   -4.1048    0.2885 C   0  0  0  0  0  0  0  0  0  0  0  0
    5.4186   -3.9205   -0.6407 N   0  0  0  0  0  0  0  0  0  0  0  0
    4.7489   -3.5120   -1.7139 C   0  0  0  0  0  0  0  0  0  0  0  0
    5.1059   -3.1427   -3.0476 C   0  0  0  0  0  0  0  0  0  0  0  0
    4.2144   -2.7598   -3.9200 N   0  0  0  0  0  0  0  0  0  0  0  0
    2.2007   -2.4001   -4.2981 H   0  0  0  0  0  0  0  0  0  0  0  0
    1.4104   -3.0185   -1.9633 H   0  0  0  0  0  0  0  0  0  0  0  0
    4.6461   -4.4404    1.2914 H   0  0  0  0  0  0  0  0  0  0  0  0
    6.1555   -3.1820   -3.3275 H   0  0  0  0  0  0  0  0  0  0  0  0
  1  9  1  0
  1  2  2  0
  1 10  1  0
  2  3  1  0
  2 11  1  0
  3  7  1  0
  3  4  1  0
  4  5  2  0
  5  6  1  0
  5 12  1  0
  6  7  2  0
  7  8  1  0
  8  9  2  0
  8 13  1  0
M  END
>  <i_m_ct_stereo_status>  (141) 
1

>  <s_m_source_file>  (141) 
/var/tmp/pbs.5076255.sched01/tmp8yzwbncg/40d_vk9m1l.sdf

>  <i_m_source_file_index>  (141) 
16

>  <i_lp_mmshare_version>  (141) 
48012

>  <i_f3d_flags>  (141) 
0

>  <s_epik_input>  (141) 
W2NIXTFbY0hdbltjSF1jKG4xMiluW2NIXW4y

>  <s_epik_cmdline>  (141) 
J2VwaWtfcHl0aG9uJywgJy1waHQnLCAnMi4wJywgJy1waCcsICc3LjAnLCAnLXRuJywgJzgnLCAnLW1hJywgJzIwMCcsICctaW1hZScsICc8aW5maWxlLm1hZT4nLCAnLW9tYWUnLCAnPG91dGZpbGUubWFlPic=

>  <r_lp_tautomer_probability>  (141) 
1

>  <r_epik_Ionization_Penalty>  (141) 
1.29873e-06

>  <r_epik_Ionization_Penalty_Charging>  (141) 
0

>  <r_epik_Ionization_Penalty_Neutral>  (141) 
1.29873e-06

>  <r_epik_State_Penalty>  (141) 
-0

>  <r_epik_Charging_Adjusted_Penalty>  (141) 
0

>  <i_epik_Tot_Q>  (141) 
0

>  <i_epik_Tot_abs_Q>  (141) 
0

>  <s_lp_Force_Field>  (141) 
OPLS3e

>  <r_lp_Energy>  (141) 
13.1408

>  <b_lp_Chiralities_Consistent>  (141) 
1

>  <s_lp_Variant>  (141) 
39:0-1

>  <s_i_glide_gridfile>  (141) 
pfpi4k_grid

>  <i_i_glide_lignum>  (141) 
16

>  <i_i_glide_rotatable_bonds>  (141) 
0

>  <r_i_docking_score>  (141) 
-4.33306

>  <r_i_glide_ligand_efficiency>  (141) 
-0.481451

>  <r_i_glide_ligand_efficiency_sa>  (141) 
-1.00146

>  <r_i_glide_ligand_efficiency_ln>  (141) 
-1.35526

>  <r_i_glide_gscore>  (141) 
-4.33306

>  <r_i_glide_lipo>  (141) 
-0.473223

>  <r_i_glide_hbond>  (141) 
-0.137165

>  <r_i_glide_metal>  (141) 
-0

>  <r_i_glide_rewards>  (141) 
-2.37571

>  <r_i_glide_evdw>  (141) 
-16.2792

>  <r_i_glide_ecoul>  (141) 
-3.55336

>  <r_i_glide_erotb>  (141) 
0

>  <r_i_glide_esite>  (141) 
0

>  <r_i_glide_emodel>  (141) 
-25.2999

>  <r_i_glide_energy>  (141) 
-19.8325

>  <r_i_glide_einternal>  (141) 
0

>  <r_i_glide_intrahb_reward>  (141) 
-0

>  <i_i_glide_confnum>  (141) 
2

>  <i_i_glide_posenum>  (141) 
19

>  <r_i_glide_eff_state_penalty>  (141) 
0

>  <ligand_id>  (141) 
39

>  <original_smiles>  (141) 
c1cn2ncnc2cn1

>  <smiles>  (141) 
[H]c1nc2c([H])nc([H])c([H])n2n1

$$$$
39:0:1
     RDKit          3D

 13 14  0  0  1  0  0  0  0  0999 V2000
    3.0992   -2.1054   -3.6428 C   0  0  0  0  0  0  0  0  0  0  0  0
    2.5963   -3.0558   -2.7942 C   0  0  0  0  0  0  0  0  0  0  0  0
    2.9965   -2.9740   -1.5002 N   0  0  0  0  0  0  0  0  0  0  0  0
    2.6436   -3.7866   -0.4666 N   0  0  0  0  0  0  0  0  0  0  0  0
    3.3158   -3.2519    0.5457 C   0  0  0  0  0  0  0  0  0  0  0  0
    4.0832   -2.1626    0.2574 N   0  0  0  0  0  0  0  0  0  0  0  0
    3.8745   -1.9794   -1.0442 C   0  0  0  0  0  0  0  0  0  0  0  0
    4.3357   -1.0465   -2.0178 C   0  0  0  0  0  0  0  0  0  0  0  0
    3.9705   -1.1110   -3.2695 N   0  0  0  0  0  0  0  0  0  0  0  0
    2.8287   -2.1022   -4.6925 H   0  0  0  0  0  0  0  0  0  0  0  0
    1.9138   -3.8525   -3.0750 H   0  0  0  0  0  0  0  0  0  0  0  0
    3.2534   -3.6692    1.5410 H   0  0  0  0  0  0  0  0  0  0  0  0
    5.0112   -0.2606   -1.6954 H   0  0  0  0  0  0  0  0  0  0  0  0
  1  9  1  0
  1  2  2  0
  1 10  1  0
  2  3  1  0
  2 11  1  0
  3  7  1  0
  3  4  1  0
  4  5  2  0
  5  6  1  0
  5 12  1  0
  6  7  2  0
  7  8  1  0
  8  9  2  0
  8 13  1  0
M  END
>  <i_m_ct_stereo_status>  (142) 
1

>  <s_m_source_file>  (142) 
/var/tmp/pbs.5076255.sched01/tmp8yzwbncg/40d_vk9m1l.sdf

>  <i_m_source_file_index>  (142) 
16

>  <i_lp_mmshare_version>  (142) 
48012

>  <i_f3d_flags>  (142) 
0

>  <s_epik_input>  (142) 
W2NIXTFbY0hdbltjSF1jKG4xMiluW2NIXW4y

>  <s_epik_cmdline>  (142) 
J2VwaWtfcHl0aG9uJywgJy1waHQnLCAnMi4wJywgJy1waCcsICc3LjAnLCAnLXRuJywgJzgnLCAnLW1hJywgJzIwMCcsICctaW1hZScsICc8aW5maWxlLm1hZT4nLCAnLW9tYWUnLCAnPG91dGZpbGUubWFlPic=

>  <r_lp_tautomer_probability>  (142) 
1

>  <r_epik_Ionization_Penalty>  (142) 
1.29873e-06

>  <r_epik_Ionization_Penalty_Charging>  (142) 
0

>  <r_epik_Ionization_Penalty_Neutral>  (142) 
1.29873e-06

>  <r_epik_State_Penalty>  (142) 
-0

>  <r_epik_Charging_Adjusted_Penalty>  (142) 
0

>  <i_epik_Tot_Q>  (142) 
0

>  <i_epik_Tot_abs_Q>  (142) 
0

>  <s_lp_Force_Field>  (142) 
OPLS3e

>  <r_lp_Energy>  (142) 
13.1408

>  <b_lp_Chiralities_Consistent>  (142) 
1

>  <s_lp_Variant>  (142) 
39:0-1

>  <s_i_glide_gridfile>  (142) 
pfpi4k_grid

>  <i_i_glide_lignum>  (142) 
16

>  <i_i_glide_rotatable_bonds>  (142) 
0

>  <r_i_docking_score>  (142) 
-3.7909

>  <r_i_glide_ligand_efficiency>  (142) 
-0.421211

>  <r_i_glide_ligand_efficiency_sa>  (142) 
-0.876154

>  <r_i_glide_ligand_efficiency_ln>  (142) 
-1.18568

>  <r_i_glide_gscore>  (142) 
-3.7909

>  <r_i_glide_lipo>  (142) 
-0.289298

>  <r_i_glide_hbond>  (142) 
0

>  <r_i_glide_metal>  (142) 
-0

>  <r_i_glide_rewards>  (142) 
-2.25

>  <r_i_glide_evdw>  (142) 
-16.228

>  <r_i_glide_ecoul>  (142) 
-2.51424

>  <r_i_glide_erotb>  (142) 
0

>  <r_i_glide_esite>  (142) 
-0.0630665

>  <r_i_glide_emodel>  (142) 
-23.5254

>  <r_i_glide_energy>  (142) 
-18.7422

>  <r_i_glide_einternal>  (142) 
0

>  <r_i_glide_intrahb_reward>  (142) 
-0

>  <i_i_glide_confnum>  (142) 
2

>  <i_i_glide_posenum>  (142) 
15

>  <r_i_glide_eff_state_penalty>  (142) 
0

>  <ligand_id>  (142) 
39

>  <original_smiles>  (142) 
c1cn2ncnc2cn1

>  <smiles>  (142) 
[H]c1nc2c([H])nc([H])c([H])n2n1

$$$$
39:0:2
     RDKit          3D

 13 14  0  0  1  0  0  0  0  0999 V2000
    0.4181   -6.8514    5.9281 C   0  0  0  0  0  0  0  0  0  0  0  0
   -0.0517   -6.3565    4.7387 C   0  0  0  0  0  0  0  0  0  0  0  0
   -0.3844   -7.2820    3.8022 N   0  0  0  0  0  0  0  0  0  0  0  0
   -0.8696   -7.0454    2.5545 N   0  0  0  0  0  0  0  0  0  0  0  0
   -1.0123   -8.2769    2.0810 C   0  0  0  0  0  0  0  0  0  0  0  0
   -0.6648   -9.2906    2.9167 N   0  0  0  0  0  0  0  0  0  0  0  0
   -0.2661   -8.6610    4.0189 C   0  0  0  0  0  0  0  0  0  0  0  0
    0.2268   -9.0619    5.2939 C   0  0  0  0  0  0  0  0  0  0  0  0
    0.5539   -8.1883    6.2091 N   0  0  0  0  0  0  0  0  0  0  0  0
    0.7091   -6.1856    6.7342 H   0  0  0  0  0  0  0  0  0  0  0  0
   -0.1613   -5.3050    4.5030 H   0  0  0  0  0  0  0  0  0  0  0  0
   -1.3811   -8.4592    1.0813 H   0  0  0  0  0  0  0  0  0  0  0  0
    0.3278  -10.1249    5.4940 H   0  0  0  0  0  0  0  0  0  0  0  0
  1  9  1  0
  1  2  2  0
  1 10  1  0
  2  3  1  0
  2 11  1  0
  3  7  1  0
  3  4  1  0
  4  5  2  0
  5  6  1  0
  5 12  1  0
  6  7  2  0
  7  8  1  0
  8  9  2  0
  8 13  1  0
M  END
>  <i_m_ct_stereo_status>  (143) 
1

>  <s_m_source_file>  (143) 
/var/tmp/pbs.5076255.sched01/tmp8yzwbncg/40d_vk9m1l.sdf

>  <i_m_source_file_index>  (143) 
16

>  <i_lp_mmshare_version>  (143) 
48012

>  <i_f3d_flags>  (143) 
0

>  <s_epik_input>  (143) 
W2NIXTFbY0hdbltjSF1jKG4xMiluW2NIXW4y

>  <s_epik_cmdline>  (143) 
J2VwaWtfcHl0aG9uJywgJy1waHQnLCAnMi4wJywgJy1waCcsICc3LjAnLCAnLXRuJywgJzgnLCAnLW1hJywgJzIwMCcsICctaW1hZScsICc8aW5maWxlLm1hZT4nLCAnLW9tYWUnLCAnPG91dGZpbGUubWFlPic=

>  <r_lp_tautomer_probability>  (143) 
1

>  <r_epik_Ionization_Penalty>  (143) 
1.29873e-06

>  <r_epik_Ionization_Penalty_Charging>  (143) 
0

>  <r_epik_Ionization_Penalty_Neutral>  (143) 
1.29873e-06

>  <r_epik_State_Penalty>  (143) 
-0

>  <r_epik_Charging_Adjusted_Penalty>  (143) 
0

>  <i_epik_Tot_Q>  (143) 
0

>  <i_epik_Tot_abs_Q>  (143) 
0

>  <s_lp_Force_Field>  (143) 
OPLS3e

>  <r_lp_Energy>  (143) 
13.1408

>  <b_lp_Chiralities_Consistent>  (143) 
1

>  <s_lp_Variant>  (143) 
39:0-1

>  <s_i_glide_gridfile>  (143) 
pfpi4k_grid

>  <i_i_glide_lignum>  (143) 
16

>  <i_i_glide_rotatable_bonds>  (143) 
0

>  <r_i_docking_score>  (143) 
-3.7359

>  <r_i_glide_ligand_efficiency>  (143) 
-0.4151

>  <r_i_glide_ligand_efficiency_sa>  (143) 
-0.863444

>  <r_i_glide_ligand_efficiency_ln>  (143) 
-1.16848

>  <r_i_glide_gscore>  (143) 
-3.7359

>  <r_i_glide_lipo>  (143) 
0

>  <r_i_glide_hbond>  (143) 
-0.16

>  <r_i_glide_metal>  (143) 
-0

>  <r_i_glide_rewards>  (143) 
-2.25

>  <r_i_glide_evdw>  (143) 
-12.3807

>  <r_i_glide_ecoul>  (143) 
-3.64478

>  <r_i_glide_erotb>  (143) 
0

>  <r_i_glide_esite>  (143) 
-0.16015

>  <r_i_glide_emodel>  (143) 
-20.7395

>  <r_i_glide_energy>  (143) 
-16.0255

>  <r_i_glide_einternal>  (143) 
0

>  <r_i_glide_intrahb_reward>  (143) 
-0

>  <i_i_glide_confnum>  (143) 
1

>  <i_i_glide_posenum>  (143) 
2

>  <r_i_glide_eff_state_penalty>  (143) 
0

>  <ligand_id>  (143) 
39

>  <original_smiles>  (143) 
c1cn2ncnc2cn1

>  <smiles>  (143) 
[H]c1nc2c([H])nc([H])c([H])n2n1

$$$$
40:0:0
     RDKit          3D

 70 74  0  0  1  0  0  0  0  0999 V2000
    2.3015   -3.1502   -3.7720 C   0  0  0  0  0  0  0  0  0  0  0  0
    3.6960   -2.5714   -3.5400 C   0  0  0  0  0  0  0  0  0  0  0  0
    4.7937   -3.6500   -3.6483 C   0  0  0  0  0  0  0  0  0  0  0  0
    3.7628   -1.7647   -2.2280 C   0  0  0  0  0  0  0  0  0  0  0  0
    3.6978   -2.6204   -0.9442 C   0  0  0  0  0  0  0  0  0  0  0  0
    3.7908   -1.8753    0.4035 C   0  0  2  0  0  0  0  0  0  0  0  0
    4.9951   -0.8882    0.4463 C   0  0  0  0  0  0  0  0  0  0  0  0
    3.6349   -2.8468    1.6344 C   0  0  2  0  0  0  0  0  0  0  0  0
    3.7341   -2.1439    3.0179 C   0  0  0  0  0  0  0  0  0  0  0  0
    4.4148   -3.1242    3.9861 C   0  0  0  0  0  0  0  0  0  0  0  0
    4.4135   -4.4909    3.2903 C   0  0  1  0  0  0  0  0  0  0  0  0
    3.2371   -5.4158    3.7575 C   0  0  1  0  0  0  0  0  0  0  0  0
    1.8978   -4.6954    4.1189 C   0  0  0  0  0  0  0  0  0  0  0  0
    0.6505   -5.5306    4.0974 C   0  0  1  0  0  0  0  0  0  0  0  0
    0.2140   -5.9886    2.7775 O   0  0  0  0  0  0  0  0  0  0  0  0
    0.6511   -7.0022    3.7031 C   0  0  2  0  0  0  0  0  0  0  0  0
   -0.4632   -7.9436    4.1057 C   0  0  0  0  0  0  0  0  0  0  0  0
   -0.6787   -9.1047    3.1153 C   0  0  0  0  0  0  0  0  0  0  0  0
    0.6498   -9.7734    2.8106 C   0  0  0  0  0  0  0  0  0  0  0  0
    0.8078  -11.0007    2.9255 O   0  0  0  0  0  0  0  0  0  0  0  0
    1.7711   -8.8410    2.3746 C   0  0  0  0  0  0  0  0  0  0  0  0
    1.9899   -7.6750    3.3866 C   0  0  2  0  0  0  0  0  0  0  0  0
    2.5586   -8.2823    4.7061 C   0  0  0  0  0  0  0  0  0  0  0  0
    3.0477   -6.6494    2.8365 C   0  0  1  0  0  0  0  0  0  0  0  0
    2.8602   -6.1410    1.3852 C   0  0  0  0  0  0  0  0  0  0  0  0
    4.1002   -5.3830    0.9086 C   0  0  0  0  0  0  0  0  0  0  0  0
    4.5099   -4.1476    1.7709 C   0  0  1  0  0  0  0  0  0  0  0  0
    5.9977   -3.8616    1.4576 C   0  0  0  0  0  0  0  0  0  0  0  0
    2.0171   -3.8536   -2.9966 H   0  0  0  0  0  0  0  0  0  0  0  0
    2.2488   -3.6864   -4.7185 H   0  0  0  0  0  0  0  0  0  0  0  0
    1.5521   -2.3657   -3.8066 H   0  0  0  0  0  0  0  0  0  0  0  0
    3.8801   -1.8540   -4.3400 H   0  0  0  0  0  0  0  0  0  0  0  0
    4.6793   -4.4316   -2.8971 H   0  0  0  0  0  0  0  0  0  0  0  0
    5.7889   -3.2235   -3.5183 H   0  0  0  0  0  0  0  0  0  0  0  0
    4.7677   -4.1511   -4.6162 H   0  0  0  0  0  0  0  0  0  0  0  0
    4.7176   -1.2499   -2.2628 H   0  0  0  0  0  0  0  0  0  0  0  0
    2.9921   -0.9928   -2.2111 H   0  0  0  0  0  0  0  0  0  0  0  0
    2.7848   -3.2203   -0.9501 H   0  0  0  0  0  0  0  0  0  0  0  0
    4.5311   -3.3097   -1.0092 H   0  0  0  0  0  0  0  0  0  0  0  0
    2.8995   -1.2466    0.4341 H   0  0  0  0  0  0  0  0  0  0  0  0
    5.9653   -1.3754    0.5029 H   0  0  0  0  0  0  0  0  0  0  0  0
    4.9116   -0.1910    1.2777 H   0  0  0  0  0  0  0  0  0  0  0  0
    5.0173   -0.2351   -0.4262 H   0  0  0  0  0  0  0  0  0  0  0  0
    2.6091   -3.2130    1.5698 H   0  0  0  0  0  0  0  0  0  0  0  0
    4.3356   -1.2380    3.0121 H   0  0  0  0  0  0  0  0  0  0  0  0
    2.7485   -1.8403    3.3785 H   0  0  0  0  0  0  0  0  0  0  0  0
    5.4457   -2.8043    4.1173 H   0  0  0  0  0  0  0  0  0  0  0  0
    3.9722   -3.1287    4.9806 H   0  0  0  0  0  0  0  0  0  0  0  0
    5.3246   -5.0264    3.5687 H   0  0  0  0  0  0  0  0  0  0  0  0
    3.6017   -5.8020    4.7072 H   0  0  0  0  0  0  0  0  0  0  0  0
    2.0017   -4.3056    5.1380 H   0  0  0  0  0  0  0  0  0  0  0  0
    1.7129   -3.8277    3.5019 H   0  0  0  0  0  0  0  0  0  0  0  0
   -0.1646   -5.1831    4.7235 H   0  0  0  0  0  0  0  0  0  0  0  0
   -0.2780   -8.3354    5.1097 H   0  0  0  0  0  0  0  0  0  0  0  0
   -1.3903   -7.3731    4.1674 H   0  0  0  0  0  0  0  0  0  0  0  0
   -1.3750   -9.8330    3.5168 H   0  0  0  0  0  0  0  0  0  0  0  0
   -1.0971   -8.7424    2.1749 H   0  0  0  0  0  0  0  0  0  0  0  0
    2.6920   -9.4061    2.2208 H   0  0  0  0  0  0  0  0  0  0  0  0
    1.4656   -8.4556    1.3991 H   0  0  0  0  0  0  0  0  0  0  0  0
    3.5794   -8.6520    4.5606 H   0  0  0  0  0  0  0  0  0  0  0  0
    1.9691   -9.1147    5.0867 H   0  0  0  0  0  0  0  0  0  0  0  0
    2.5817   -7.5420    5.5065 H   0  0  0  0  0  0  0  0  0  0  0  0
    4.0005   -7.1843    2.8192 H   0  0  0  0  0  0  0  0  0  0  0  0
    2.7202   -6.9758    0.7071 H   0  0  0  0  0  0  0  0  0  0  0  0
    1.9891   -5.4996    1.2745 H   0  0  0  0  0  0  0  0  0  0  0  0
    4.9264   -6.0984    0.9096 H   0  0  0  0  0  0  0  0  0  0  0  0
    3.9402   -5.1368   -0.1380 H   0  0  0  0  0  0  0  0  0  0  0  0
    6.6407   -4.7107    1.6924 H   0  0  0  0  0  0  0  0  0  0  0  0
    6.3651   -3.0079    2.0259 H   0  0  0  0  0  0  0  0  0  0  0  0
    6.1528   -3.6432    0.4034 H   0  0  0  0  0  0  0  0  0  0  0  0
  1  2  1  0
  1 29  1  0
  1 30  1  0
  1 31  1  0
  2  3  1  0
  2  4  1  0
  2 32  1  0
  3 33  1  0
  3 34  1  0
  3 35  1  0
  4  5  1  0
  4 36  1  0
  4 37  1  0
  5  6  1  0
  5 38  1  0
  5 39  1  0
  6  7  1  0
  6  8  1  0
  6 40  1  6
  7 41  1  0
  7 42  1  0
  7 43  1  0
  8 27  1  0
  8  9  1  0
  8 44  1  6
  9 10  1  0
  9 45  1  0
  9 46  1  0
 10 11  1  0
 10 47  1  0
 10 48  1  0
 11 27  1  0
 11 12  1  0
 11 49  1  1
 12 24  1  0
 12 13  1  0
 12 50  1  1
 13 14  1  0
 13 51  1  0
 13 52  1  0
 14 16  1  0
 14 15  1  0
 14 53  1  1
 16 15  1  6
 16 22  1  0
 16 17  1  0
 17 18  1  0
 17 54  1  0
 17 55  1  0
 18 19  1  0
 18 56  1  0
 18 57  1  0
 19 20  2  0
 19 21  1  0
 21 22  1  0
 21 58  1  0
 21 59  1  0
 22 23  1  1
 22 24  1  0
 23 60  1  0
 23 61  1  0
 23 62  1  0
 24 25  1  0
 24 63  1  6
 25 26  1  0
 25 64  1  0
 25 65  1  0
 26 27  1  0
 26 66  1  0
 26 67  1  0
 27 28  1  6
 28 68  1  0
 28 69  1  0
 28 70  1  0
M  END
>  <i_m_ct_stereo_status>  (144) 
1

>  <s_m_source_file>  (144) 
/var/tmp/pbs.5076255.sched01/tmp8yzwbncg/40d_vk9m1l.sdf

>  <i_m_source_file_index>  (144) 
17

>  <i_lp_mmshare_version>  (144) 
48012

>  <i_f3d_flags>  (144) 
0

>  <s_epik_input>  (144) 
W0NIM11bQ0hdKFtDSDNdKVtDSDJdW0NIMl1bQ0BIXShbQ0gzXSlbQ0BIXShbQ0gyXVtDSDJdMSlbQ0BAXShbQ0gzXSkoW0NAQEhdMVtDQEhdMltDSDJdW0NAQEhdKE8zKVtDQF0zNDUpW0NIMl1bQ0gyXVtDQEBIXTJbQ0BdNShbQ0gzXSlbQ0gyXUMoPU8pW0NIMl1bQ0gyXTQ=

>  <s_epik_cmdline>  (144) 
J2VwaWtfcHl0aG9uJywgJy1waHQnLCAnMi4wJywgJy1waCcsICc3LjAnLCAnLXRuJywgJzgnLCAnLW1hJywgJzIwMCcsICctaW1hZScsICc8aW5maWxlLm1hZT4nLCAnLW9tYWUnLCAnPG91dGZpbGUubWFlPic=

>  <r_lp_tautomer_probability>  (144) 
1

>  <r_epik_Ionization_Penalty>  (144) 
4.57599e-11

>  <r_epik_Ionization_Penalty_Charging>  (144) 
0

>  <r_epik_Ionization_Penalty_Neutral>  (144) 
4.57599e-11

>  <r_epik_State_Penalty>  (144) 
-0

>  <r_epik_Charging_Adjusted_Penalty>  (144) 
0

>  <i_epik_Tot_Q>  (144) 
0

>  <i_epik_Tot_abs_Q>  (144) 
0

>  <s_lp_Force_Field>  (144) 
OPLS3e

>  <r_lp_Energy>  (144) 
50.3588

>  <b_lp_Chiralities_Consistent>  (144) 
1

>  <s_lp_Variant>  (144) 
40:0-1

>  <s_i_glide_gridfile>  (144) 
pfpi4k_grid

>  <i_i_glide_lignum>  (144) 
17

>  <i_i_glide_rotatable_bonds>  (144) 
4

>  <r_i_docking_score>  (144) 
-2.95952

>  <r_i_glide_ligand_efficiency>  (144) 
-0.105697

>  <r_i_glide_ligand_efficiency_sa>  (144) 
-0.320959

>  <r_i_glide_ligand_efficiency_ln>  (144) 
-0.683144

>  <r_i_glide_gscore>  (144) 
-2.95952

>  <r_i_glide_lipo>  (144) 
-0.805514

>  <r_i_glide_hbond>  (144) 
-0.112518

>  <r_i_glide_metal>  (144) 
-0

>  <r_i_glide_rewards>  (144) 
-0.824146

>  <r_i_glide_evdw>  (144) 
-26.4684

>  <r_i_glide_ecoul>  (144) 
-1.89739

>  <r_i_glide_erotb>  (144) 
0.39069

>  <r_i_glide_esite>  (144) 
0

>  <r_i_glide_emodel>  (144) 
-30.1918

>  <r_i_glide_energy>  (144) 
-28.3658

>  <r_i_glide_einternal>  (144) 
5.11411

>  <r_i_glide_intrahb_reward>  (144) 
-0

>  <i_i_glide_confnum>  (144) 
4

>  <i_i_glide_posenum>  (144) 
11

>  <r_i_glide_eff_state_penalty>  (144) 
0

>  <ligand_id>  (144) 
40

>  <original_smiles>  (144) 
CC(C)CCC(C)C1CCC2C3CC4OC45CCC(=O)CC5(C)C3CCC12C

>  <smiles>  (144) 
[H]C([H])([H])C([H])(C([H])([H])[H])C([H])([H])C([H])([H])C([H])(C([H])([H])[H])C1([H])C([H])([H])C([H])([H])C2([H])C3([H])C([H])([H])C4([H])OC45C([H])([H])C([H])([H])C(=O)C([H])([H])C5(C([H])([H])[H])C3([H])C([H])([H])C([H])([H])C12C([H])([H])[H]

$$$$
40:0:1
     RDKit          3D

 70 74  0  0  1  0  0  0  0  0999 V2000
   -0.3613   -9.6703    2.5722 C   0  0  0  0  0  0  0  0  0  0  0  0
   -0.8014   -8.5882    3.5742 C   0  0  0  0  0  0  0  0  0  0  0  0
   -1.7025   -7.5597    2.8749 C   0  0  0  0  0  0  0  0  0  0  0  0
    0.4047   -7.8871    4.2304 C   0  0  0  0  0  0  0  0  0  0  0  0
    1.2288   -8.7798    5.1919 C   0  0  0  0  0  0  0  0  0  0  0  0
    2.5404   -8.1415    5.7239 C   0  0  2  0  0  0  0  0  0  0  0  0
    2.1969   -6.8987    6.5666 C   0  0  0  0  0  0  0  0  0  0  0  0
    3.5920   -7.9157    4.5831 C   0  0  2  0  0  0  0  0  0  0  0  0
    4.0403   -9.2548    3.9346 C   0  0  0  0  0  0  0  0  0  0  0  0
    5.5132   -9.0998    3.5226 C   0  0  0  0  0  0  0  0  0  0  0  0
    5.8449   -7.6100    3.6976 C   0  0  1  0  0  0  0  0  0  0  0  0
    5.7547   -6.7985    2.3570 C   0  0  1  0  0  0  0  0  0  0  0  0
    4.6808   -7.2691    1.3282 C   0  0  0  0  0  0  0  0  0  0  0  0
    4.2528   -6.2461    0.2958 C   0  0  1  0  0  0  0  0  0  0  0  0
    3.4953   -5.1249    0.8069 O   0  0  0  0  0  0  0  0  0  0  0  0
    4.7805   -4.8448    0.2623 C   0  0  2  0  0  0  0  0  0  0  0  0
    4.7214   -3.9782   -0.9989 C   0  0  0  0  0  0  0  0  0  0  0  0
    4.6379   -2.4668   -0.7204 C   0  0  0  0  0  0  0  0  0  0  0  0
    5.7050   -2.0501    0.2900 C   0  0  0  0  0  0  0  0  0  0  0  0
    6.4792   -1.1163    0.0826 O   0  0  0  0  0  0  0  0  0  0  0  0
    5.7637   -2.9010    1.5574 C   0  0  0  0  0  0  0  0  0  0  0  0
    5.8713   -4.4265    1.2595 C   0  0  2  0  0  0  0  0  0  0  0  0
    7.2583   -4.7077    0.6122 C   0  0  0  0  0  0  0  0  0  0  0  0
    5.7684   -5.2655    2.5938 C   0  0  1  0  0  0  0  0  0  0  0  0
    4.6178   -4.9168    3.5734 C   0  0  0  0  0  0  0  0  0  0  0  0
    4.8226   -5.6105    4.9239 C   0  0  0  0  0  0  0  0  0  0  0  0
    4.9255   -7.1612    4.8752 C   0  0  1  0  0  0  0  0  0  0  0  0
    5.5562   -7.6394    6.2088 C   0  0  0  0  0  0  0  0  0  0  0  0
    0.2862   -9.2461    1.8040 H   0  0  0  0  0  0  0  0  0  0  0  0
   -1.2190  -10.1263    2.0766 H   0  0  0  0  0  0  0  0  0  0  0  0
    0.1891  -10.4768    3.0560 H   0  0  0  0  0  0  0  0  0  0  0  0
   -1.3955   -9.0528    4.3586 H   0  0  0  0  0  0  0  0  0  0  0  0
   -1.1637   -7.0470    2.0790 H   0  0  0  0  0  0  0  0  0  0  0  0
   -2.0633   -6.8132    3.5813 H   0  0  0  0  0  0  0  0  0  0  0  0
   -2.5731   -8.0411    2.4295 H   0  0  0  0  0  0  0  0  0  0  0  0
    1.0269   -7.4880    3.4315 H   0  0  0  0  0  0  0  0  0  0  0  0
    0.0408   -7.0229    4.7885 H   0  0  0  0  0  0  0  0  0  0  0  0
    0.5964   -9.0441    6.0417 H   0  0  0  0  0  0  0  0  0  0  0  0
    1.4617   -9.7337    4.7225 H   0  0  0  0  0  0  0  0  0  0  0  0
    2.9606   -8.8708    6.4198 H   0  0  0  0  0  0  0  0  0  0  0  0
    1.8753   -6.0679    5.9394 H   0  0  0  0  0  0  0  0  0  0  0  0
    3.0342   -6.5586    7.1718 H   0  0  0  0  0  0  0  0  0  0  0  0
    1.3915   -7.1206    7.2676 H   0  0  0  0  0  0  0  0  0  0  0  0
    3.1063   -7.3254    3.8118 H   0  0  0  0  0  0  0  0  0  0  0  0
    3.9500  -10.0988    4.6220 H   0  0  0  0  0  0  0  0  0  0  0  0
    3.4121   -9.4967    3.0768 H   0  0  0  0  0  0  0  0  0  0  0  0
    6.1331   -9.6743    4.2088 H   0  0  0  0  0  0  0  0  0  0  0  0
    5.7263   -9.4817    2.5226 H   0  0  0  0  0  0  0  0  0  0  0  0
    6.8819   -7.5114    4.0250 H   0  0  0  0  0  0  0  0  0  0  0  0
    6.7002   -7.0279    1.8701 H   0  0  0  0  0  0  0  0  0  0  0  0
    5.0880   -8.1199    0.7808 H   0  0  0  0  0  0  0  0  0  0  0  0
    3.7827   -7.6343    1.7991 H   0  0  0  0  0  0  0  0  0  0  0  0
    3.8689   -6.6623   -0.6305 H   0  0  0  0  0  0  0  0  0  0  0  0
    5.5653   -4.2066   -1.6484 H   0  0  0  0  0  0  0  0  0  0  0  0
    3.8255   -4.2580   -1.5517 H   0  0  0  0  0  0  0  0  0  0  0  0
    4.7517   -1.8976   -1.6412 H   0  0  0  0  0  0  0  0  0  0  0  0
    3.6642   -2.2052   -0.3068 H   0  0  0  0  0  0  0  0  0  0  0  0
    6.6047   -2.5687    2.1650 H   0  0  0  0  0  0  0  0  0  0  0  0
    4.8492   -2.6688    2.1000 H   0  0  0  0  0  0  0  0  0  0  0  0
    8.0636   -4.5675    1.3407 H   0  0  0  0  0  0  0  0  0  0  0  0
    7.4759   -4.0651   -0.2413 H   0  0  0  0  0  0  0  0  0  0  0  0
    7.3181   -5.7330    0.2370 H   0  0  0  0  0  0  0  0  0  0  0  0
    6.6835   -5.0509    3.1485 H   0  0  0  0  0  0  0  0  0  0  0  0
    4.5807   -3.8464    3.7649 H   0  0  0  0  0  0  0  0  0  0  0  0
    3.6379   -5.1794    3.1771 H   0  0  0  0  0  0  0  0  0  0  0  0
    5.7409   -5.2119    5.3563 H   0  0  0  0  0  0  0  0  0  0  0  0
    4.0294   -5.2869    5.5941 H   0  0  0  0  0  0  0  0  0  0  0  0
    6.5770   -7.2660    6.3146 H   0  0  0  0  0  0  0  0  0  0  0  0
    5.5959   -8.7264    6.2756 H   0  0  0  0  0  0  0  0  0  0  0  0
    5.0117   -7.2905    7.0840 H   0  0  0  0  0  0  0  0  0  0  0  0
  1  2  1  0
  1 29  1  0
  1 30  1  0
  1 31  1  0
  2  3  1  0
  2  4  1  0
  2 32  1  0
  3 33  1  0
  3 34  1  0
  3 35  1  0
  4  5  1  0
  4 36  1  0
  4 37  1  0
  5  6  1  0
  5 38  1  0
  5 39  1  0
  6  7  1  0
  6  8  1  0
  6 40  1  1
  7 41  1  0
  7 42  1  0
  7 43  1  0
  8 27  1  0
  8  9  1  0
  8 44  1  6
  9 10  1  0
  9 45  1  0
  9 46  1  0
 10 11  1  0
 10 47  1  0
 10 48  1  0
 11 27  1  0
 11 12  1  0
 11 49  1  1
 12 24  1  0
 12 13  1  0
 12 50  1  6
 13 14  1  0
 13 51  1  0
 13 52  1  0
 14 16  1  0
 14 15  1  0
 14 53  1  6
 16 15  1  1
 16 22  1  0
 16 17  1  0
 17 18  1  0
 17 54  1  0
 17 55  1  0
 18 19  1  0
 18 56  1  0
 18 57  1  0
 19 20  2  0
 19 21  1  0
 21 22  1  0
 21 58  1  0
 21 59  1  0
 22 23  1  6
 22 24  1  0
 23 60  1  0
 23 61  1  0
 23 62  1  0
 24 25  1  0
 24 63  1  1
 25 26  1  0
 25 64  1  0
 25 65  1  0
 26 27  1  0
 26 66  1  0
 26 67  1  0
 27 28  1  1
 28 68  1  0
 28 69  1  0
 28 70  1  0
M  END
>  <i_m_ct_stereo_status>  (145) 
1

>  <s_m_source_file>  (145) 
/var/tmp/pbs.5076255.sched01/tmp8yzwbncg/40d_vk9m1l.sdf

>  <i_m_source_file_index>  (145) 
17

>  <i_lp_mmshare_version>  (145) 
48012

>  <i_f3d_flags>  (145) 
0

>  <s_epik_input>  (145) 
W0NIM11bQ0hdKFtDSDNdKVtDSDJdW0NIMl1bQ0BIXShbQ0gzXSlbQ0BIXShbQ0gyXVtDSDJdMSlbQ0BAXShbQ0gzXSkoW0NAQEhdMVtDQEhdMltDSDJdW0NAQEhdKE8zKVtDQF0zNDUpW0NIMl1bQ0gyXVtDQEBIXTJbQ0BdNShbQ0gzXSlbQ0gyXUMoPU8pW0NIMl1bQ0gyXTQ=

>  <s_epik_cmdline>  (145) 
J2VwaWtfcHl0aG9uJywgJy1waHQnLCAnMi4wJywgJy1waCcsICc3LjAnLCAnLXRuJywgJzgnLCAnLW1hJywgJzIwMCcsICctaW1hZScsICc8aW5maWxlLm1hZT4nLCAnLW9tYWUnLCAnPG91dGZpbGUubWFlPic=

>  <r_lp_tautomer_probability>  (145) 
1

>  <r_epik_Ionization_Penalty>  (145) 
4.57599e-11

>  <r_epik_Ionization_Penalty_Charging>  (145) 
0

>  <r_epik_Ionization_Penalty_Neutral>  (145) 
4.57599e-11

>  <r_epik_State_Penalty>  (145) 
-0

>  <r_epik_Charging_Adjusted_Penalty>  (145) 
0

>  <i_epik_Tot_Q>  (145) 
0

>  <i_epik_Tot_abs_Q>  (145) 
0

>  <s_lp_Force_Field>  (145) 
OPLS3e

>  <r_lp_Energy>  (145) 
50.3588

>  <b_lp_Chiralities_Consistent>  (145) 
1

>  <s_lp_Variant>  (145) 
40:0-1

>  <s_i_glide_gridfile>  (145) 
pfpi4k_grid

>  <i_i_glide_lignum>  (145) 
17

>  <i_i_glide_rotatable_bonds>  (145) 
4

>  <r_i_docking_score>  (145) 
-2.25267

>  <r_i_glide_ligand_efficiency>  (145) 
-0.0804524

>  <r_i_glide_ligand_efficiency_sa>  (145) 
-0.244301

>  <r_i_glide_ligand_efficiency_ln>  (145) 
-0.519982

>  <r_i_glide_gscore>  (145) 
-2.25267

>  <r_i_glide_lipo>  (145) 
-0.59464

>  <r_i_glide_hbond>  (145) 
-0.0385699

>  <r_i_glide_metal>  (145) 
-0

>  <r_i_glide_rewards>  (145) 
-0.833351

>  <r_i_glide_evdw>  (145) 
-20.0024

>  <r_i_glide_ecoul>  (145) 
-1.17786

>  <r_i_glide_erotb>  (145) 
0.39069

>  <r_i_glide_esite>  (145) 
0

>  <r_i_glide_emodel>  (145) 
-24.2411

>  <r_i_glide_energy>  (145) 
-21.1802

>  <r_i_glide_einternal>  (145) 
1.12281

>  <r_i_glide_intrahb_reward>  (145) 
-0

>  <i_i_glide_confnum>  (145) 
3

>  <i_i_glide_posenum>  (145) 
12

>  <r_i_glide_eff_state_penalty>  (145) 
0

>  <ligand_id>  (145) 
40

>  <original_smiles>  (145) 
CC(C)CCC(C)C1CCC2C3CC4OC45CCC(=O)CC5(C)C3CCC12C

>  <smiles>  (145) 
[H]C([H])([H])C([H])(C([H])([H])[H])C([H])([H])C([H])([H])C([H])(C([H])([H])[H])C1([H])C([H])([H])C([H])([H])C2([H])C3([H])C([H])([H])C4([H])OC45C([H])([H])C([H])([H])C(=O)C([H])([H])C5(C([H])([H])[H])C3([H])C([H])([H])C([H])([H])C12C([H])([H])[H]

$$$$
40:0:2
     RDKit          3D

 70 74  0  0  1  0  0  0  0  0999 V2000
   -1.5900   -8.5762    3.5552 C   0  0  0  0  0  0  0  0  0  0  0  0
   -0.2733   -8.4125    2.7763 C   0  0  0  0  0  0  0  0  0  0  0  0
    0.6163   -9.6590    2.8820 C   0  0  0  0  0  0  0  0  0  0  0  0
    0.4875   -7.1251    3.1477 C   0  0  0  0  0  0  0  0  0  0  0  0
    1.0008   -7.0448    4.6108 C   0  0  0  0  0  0  0  0  0  0  0  0
    1.4979   -5.6487    5.0632 C   0  0  2  0  0  0  0  0  0  0  0  0
    0.3019   -4.6808    5.0219 C   0  0  0  0  0  0  0  0  0  0  0  0
    2.7985   -5.2142    4.3076 C   0  0  2  0  0  0  0  0  0  0  0  0
    4.0378   -6.0425    4.7513 C   0  0  0  0  0  0  0  0  0  0  0  0
    5.2630   -5.1143    4.6719 C   0  0  0  0  0  0  0  0  0  0  0  0
    4.7876   -3.8510    3.9384 C   0  0  1  0  0  0  0  0  0  0  0  0
    5.1383   -3.8506    2.4108 C   0  0  1  0  0  0  0  0  0  0  0  0
    5.1498   -5.2421    1.7053 C   0  0  0  0  0  0  0  0  0  0  0  0
    4.9847   -5.2238    0.1939 C   0  0  1  0  0  0  0  0  0  0  0  0
    3.7032   -4.7862   -0.2834 O   0  0  0  0  0  0  0  0  0  0  0  0
    4.8115   -3.9632   -0.5904 C   0  0  2  0  0  0  0  0  0  0  0  0
    5.1235   -3.8857   -2.0922 C   0  0  0  0  0  0  0  0  0  0  0  0
    4.2640   -2.8613   -2.8521 C   0  0  0  0  0  0  0  0  0  0  0  0
    4.2922   -1.5159   -2.1323 C   0  0  0  0  0  0  0  0  0  0  0  0
    4.5940   -0.4794   -2.7129 O   0  0  0  0  0  0  0  0  0  0  0  0
    3.9773   -1.5711   -0.6355 C   0  0  0  0  0  0  0  0  0  0  0  0
    4.8580   -2.6062    0.1275 C   0  0  2  0  0  0  0  0  0  0  0  0
    6.3270   -2.1078    0.1314 C   0  0  0  0  0  0  0  0  0  0  0  0
    4.3756   -2.7486    1.6227 C   0  0  1  0  0  0  0  0  0  0  0  0
    2.8585   -2.9337    1.8877 C   0  0  0  0  0  0  0  0  0  0  0  0
    2.5379   -2.7661    3.3781 C   0  0  0  0  0  0  0  0  0  0  0  0
    3.2827   -3.7331    4.3404 C   0  0  1  0  0  0  0  0  0  0  0  0
    3.2270   -3.1425    5.7734 C   0  0  0  0  0  0  0  0  0  0  0  0
   -1.4254   -8.6727    4.6283 H   0  0  0  0  0  0  0  0  0  0  0  0
   -2.1188   -9.4732    3.2352 H   0  0  0  0  0  0  0  0  0  0  0  0
   -2.2558   -7.7280    3.3925 H   0  0  0  0  0  0  0  0  0  0  0  0
   -0.5471   -8.3175    1.7233 H   0  0  0  0  0  0  0  0  0  0  0  0
    0.9377   -9.8344    3.9077 H   0  0  0  0  0  0  0  0  0  0  0  0
    1.5066   -9.5576    2.2604 H   0  0  0  0  0  0  0  0  0  0  0  0
    0.0832  -10.5487    2.5479 H   0  0  0  0  0  0  0  0  0  0  0  0
    1.3269   -7.0215    2.4589 H   0  0  0  0  0  0  0  0  0  0  0  0
   -0.1747   -6.2921    2.9204 H   0  0  0  0  0  0  0  0  0  0  0  0
    0.2076   -7.3282    5.2986 H   0  0  0  0  0  0  0  0  0  0  0  0
    1.7801   -7.7916    4.7606 H   0  0  0  0  0  0  0  0  0  0  0  0
    1.7545   -5.7503    6.1161 H   0  0  0  0  0  0  0  0  0  0  0  0
    0.0460   -4.4140    4.0072 H   0  0  0  0  0  0  0  0  0  0  0  0
    0.4641   -3.7524    5.5688 H   0  0  0  0  0  0  0  0  0  0  0  0
   -0.5842   -5.1436    5.4550 H   0  0  0  0  0  0  0  0  0  0  0  0
    2.6429   -5.4342    3.2578 H   0  0  0  0  0  0  0  0  0  0  0  0
    3.9451   -6.4198    5.7718 H   0  0  0  0  0  0  0  0  0  0  0  0
    4.1753   -6.9237    4.1220 H   0  0  0  0  0  0  0  0  0  0  0  0
    5.5617   -4.8364    5.6813 H   0  0  0  0  0  0  0  0  0  0  0  0
    6.1406   -5.5804    4.2166 H   0  0  0  0  0  0  0  0  0  0  0  0
    5.3104   -2.9863    4.3461 H   0  0  0  0  0  0  0  0  0  0  0  0
    6.1859   -3.5459    2.4006 H   0  0  0  0  0  0  0  0  0  0  0  0
    6.1026   -5.7266    1.9127 H   0  0  0  0  0  0  0  0  0  0  0  0
    4.3898   -5.9122    2.0867 H   0  0  0  0  0  0  0  0  0  0  0  0
    5.3693   -6.1060   -0.3165 H   0  0  0  0  0  0  0  0  0  0  0  0
    6.1826   -3.6870   -2.2420 H   0  0  0  0  0  0  0  0  0  0  0  0
    4.9464   -4.8670   -2.5220 H   0  0  0  0  0  0  0  0  0  0  0  0
    4.6279   -2.7355   -3.8694 H   0  0  0  0  0  0  0  0  0  0  0  0
    3.2269   -3.1864   -2.9191 H   0  0  0  0  0  0  0  0  0  0  0  0
    4.0880   -0.5750   -0.2007 H   0  0  0  0  0  0  0  0  0  0  0  0
    2.9247   -1.8344   -0.5756 H   0  0  0  0  0  0  0  0  0  0  0  0
    6.4408   -1.2214    0.7612 H   0  0  0  0  0  0  0  0  0  0  0  0
    6.6941   -1.8563   -0.8612 H   0  0  0  0  0  0  0  0  0  0  0  0
    7.0072   -2.8739    0.5098 H   0  0  0  0  0  0  0  0  0  0  0  0
    4.6182   -1.7931    2.0919 H   0  0  0  0  0  0  0  0  0  0  0  0
    2.2762   -2.1879    1.3459 H   0  0  0  0  0  0  0  0  0  0  0  0
    2.4913   -3.8988    1.5435 H   0  0  0  0  0  0  0  0  0  0  0  0
    2.7943   -1.7417    3.6493 H   0  0  0  0  0  0  0  0  0  0  0  0
    1.4615   -2.8299    3.5049 H   0  0  0  0  0  0  0  0  0  0  0  0
    3.7909   -2.2132    5.8342 H   0  0  0  0  0  0  0  0  0  0  0  0
    3.6560   -3.8120    6.5138 H   0  0  0  0  0  0  0  0  0  0  0  0
    2.2200   -2.9049    6.1165 H   0  0  0  0  0  0  0  0  0  0  0  0
  1  2  1  0
  1 29  1  0
  1 30  1  0
  1 31  1  0
  2  3  1  0
  2  4  1  0
  2 32  1  0
  3 33  1  0
  3 34  1  0
  3 35  1  0
  4  5  1  0
  4 36  1  0
  4 37  1  0
  5  6  1  0
  5 38  1  0
  5 39  1  0
  6  7  1  0
  6  8  1  0
  6 40  1  1
  7 41  1  0
  7 42  1  0
  7 43  1  0
  8 27  1  0
  8  9  1  0
  8 44  1  6
  9 10  1  0
  9 45  1  0
  9 46  1  0
 10 11  1  0
 10 47  1  0
 10 48  1  0
 11 27  1  0
 11 12  1  0
 11 49  1  1
 12 24  1  0
 12 13  1  0
 12 50  1  1
 13 14  1  0
 13 51  1  0
 13 52  1  0
 14 16  1  0
 14 15  1  0
 14 53  1  6
 16 15  1  6
 16 22  1  0
 16 17  1  0
 17 18  1  0
 17 54  1  0
 17 55  1  0
 18 19  1  0
 18 56  1  0
 18 57  1  0
 19 20  2  0
 19 21  1  0
 21 22  1  0
 21 58  1  0
 21 59  1  0
 22 23  1  1
 22 24  1  0
 23 60  1  0
 23 61  1  0
 23 62  1  0
 24 25  1  0
 24 63  1  1
 25 26  1  0
 25 64  1  0
 25 65  1  0
 26 27  1  0
 26 66  1  0
 26 67  1  0
 27 28  1  1
 28 68  1  0
 28 69  1  0
 28 70  1  0
M  END
>  <i_m_ct_stereo_status>  (146) 
1

>  <s_m_source_file>  (146) 
/var/tmp/pbs.5076255.sched01/tmp8yzwbncg/40d_vk9m1l.sdf

>  <i_m_source_file_index>  (146) 
17

>  <i_lp_mmshare_version>  (146) 
48012

>  <i_f3d_flags>  (146) 
0

>  <s_epik_input>  (146) 
W0NIM11bQ0hdKFtDSDNdKVtDSDJdW0NIMl1bQ0BIXShbQ0gzXSlbQ0BIXShbQ0gyXVtDSDJdMSlbQ0BAXShbQ0gzXSkoW0NAQEhdMVtDQEhdMltDSDJdW0NAQEhdKE8zKVtDQF0zNDUpW0NIMl1bQ0gyXVtDQEBIXTJbQ0BdNShbQ0gzXSlbQ0gyXUMoPU8pW0NIMl1bQ0gyXTQ=

>  <s_epik_cmdline>  (146) 
J2VwaWtfcHl0aG9uJywgJy1waHQnLCAnMi4wJywgJy1waCcsICc3LjAnLCAnLXRuJywgJzgnLCAnLW1hJywgJzIwMCcsICctaW1hZScsICc8aW5maWxlLm1hZT4nLCAnLW9tYWUnLCAnPG91dGZpbGUubWFlPic=

>  <r_lp_tautomer_probability>  (146) 
1

>  <r_epik_Ionization_Penalty>  (146) 
4.57599e-11

>  <r_epik_Ionization_Penalty_Charging>  (146) 
0

>  <r_epik_Ionization_Penalty_Neutral>  (146) 
4.57599e-11

>  <r_epik_State_Penalty>  (146) 
-0

>  <r_epik_Charging_Adjusted_Penalty>  (146) 
0

>  <i_epik_Tot_Q>  (146) 
0

>  <i_epik_Tot_abs_Q>  (146) 
0

>  <s_lp_Force_Field>  (146) 
OPLS3e

>  <r_lp_Energy>  (146) 
50.3588

>  <b_lp_Chiralities_Consistent>  (146) 
1

>  <s_lp_Variant>  (146) 
40:0-1

>  <s_i_glide_gridfile>  (146) 
pfpi4k_grid

>  <i_i_glide_lignum>  (146) 
17

>  <i_i_glide_rotatable_bonds>  (146) 
4

>  <r_i_docking_score>  (146) 
-1.85051

>  <r_i_glide_ligand_efficiency>  (146) 
-0.0660895

>  <r_i_glide_ligand_efficiency_sa>  (146) 
-0.200687

>  <r_i_glide_ligand_efficiency_ln>  (146) 
-0.427151

>  <r_i_glide_gscore>  (146) 
-1.85051

>  <r_i_glide_lipo>  (146) 
-0.274053

>  <r_i_glide_hbond>  (146) 
0

>  <r_i_glide_metal>  (146) 
-0

>  <r_i_glide_rewards>  (146) 
-0.77311

>  <r_i_glide_evdw>  (146) 
-24.2858

>  <r_i_glide_ecoul>  (146) 
0.379008

>  <r_i_glide_erotb>  (146) 
0.39069

>  <r_i_glide_esite>  (146) 
-0.0365941

>  <r_i_glide_emodel>  (146) 
-25.0915

>  <r_i_glide_energy>  (146) 
-23.9068

>  <r_i_glide_einternal>  (146) 
2.84401

>  <r_i_glide_intrahb_reward>  (146) 
-0

>  <i_i_glide_confnum>  (146) 
3

>  <i_i_glide_posenum>  (146) 
2

>  <r_i_glide_eff_state_penalty>  (146) 
0

>  <ligand_id>  (146) 
40

>  <original_smiles>  (146) 
CC(C)CCC(C)C1CCC2C3CC4OC45CCC(=O)CC5(C)C3CCC12C

>  <smiles>  (146) 
[H]C([H])([H])C([H])(C([H])([H])[H])C([H])([H])C([H])([H])C([H])(C([H])([H])[H])C1([H])C([H])([H])C([H])([H])C2([H])C3([H])C([H])([H])C4([H])OC45C([H])([H])C([H])([H])C(=O)C([H])([H])C5(C([H])([H])[H])C3([H])C([H])([H])C([H])([H])C12C([H])([H])[H]

$$$$
44:0:0
     RDKit          3D

 57 62  0  0  1  0  0  0  0  0999 V2000
    6.1374   -6.0856    4.4482 C   0  0  0  0  0  0  0  0  0  0  0  0
    4.6578   -5.6329    4.4357 C   0  0  0  0  0  0  0  0  0  0  0  0
    3.7813   -6.6991    3.7347 C   0  0  0  0  0  0  0  0  0  0  0  0
    4.1924   -5.5540    5.9211 C   0  0  2  0  0  0  0  0  0  0  0  0
    2.7314   -5.1227    6.2036 C   0  0  0  0  0  0  0  0  0  0  0  0
    3.1989   -3.6820    5.9126 C   0  0  1  0  0  0  0  0  0  0  0  0
    4.5227   -4.1748    6.5445 C   0  0  0  0  0  0  0  0  0  0  0  0
    5.3936   -3.7101    7.2763 O   0  0  0  0  0  0  0  0  0  0  0  0
    3.3631   -3.3874    4.4102 C   0  0  1  0  0  0  0  0  0  0  0  0
    3.5042   -1.9060    4.0643 C   0  0  0  0  0  0  0  0  0  0  0  0
    3.3845   -1.7382    2.5406 C   0  0  0  0  0  0  0  0  0  0  0  0
    4.4267   -2.5551    1.7231 C   0  0  1  0  0  0  0  0  0  0  0  0
    5.8186   -1.8990    1.9467 C   0  0  0  0  0  0  0  0  0  0  0  0
    4.4179   -4.0594    2.1915 C   0  0  1  0  0  0  0  0  0  0  0  0
    5.4506   -4.8521    1.3631 C   0  0  0  0  0  0  0  0  0  0  0  0
    5.0903   -4.8509   -0.1262 C   0  0  0  0  0  0  0  0  0  0  0  0
    4.7894   -3.4788   -0.7377 C   0  0  1  0  0  0  0  0  0  0  0  0
    4.2523   -3.5093   -2.1895 C   0  0  0  0  0  0  0  0  0  0  0  0
    4.9809   -2.1914   -2.4453 C   0  0  1  0  0  0  0  0  0  0  0  0
    4.2310   -0.9725   -1.9162 C   0  0  0  0  0  0  0  0  0  0  0  0
    3.9452   -1.0657   -0.3915 C   0  0  0  0  0  0  0  0  0  0  0  0
    4.0184   -2.5121    0.2056 C   0  0  2  0  0  0  0  0  0  0  0  0
    5.9875   -2.7435   -1.4069 C   0  0  0  0  0  0  0  0  0  0  0  0
    7.2081   -2.6821   -1.2587 O   0  0  0  0  0  0  0  0  0  0  0  0
    4.5207   -4.2054    3.7483 C   0  0  2  0  0  0  0  0  0  0  0  0
    6.2500   -7.0506    4.9458 H   0  0  0  0  0  0  0  0  0  0  0  0
    6.7629   -5.3740    4.9894 H   0  0  0  0  0  0  0  0  0  0  0  0
    6.5684   -6.1895    3.4566 H   0  0  0  0  0  0  0  0  0  0  0  0
    2.7979   -6.3053    3.4782 H   0  0  0  0  0  0  0  0  0  0  0  0
    3.6235   -7.5623    4.3844 H   0  0  0  0  0  0  0  0  0  0  0  0
    4.2216   -7.0924    2.8219 H   0  0  0  0  0  0  0  0  0  0  0  0
    4.4787   -6.4104    6.5366 H   0  0  0  0  0  0  0  0  0  0  0  0
    1.9889   -5.5054    5.5016 H   0  0  0  0  0  0  0  0  0  0  0  0
    2.4054   -5.2866    7.2357 H   0  0  0  0  0  0  0  0  0  0  0  0
    2.6495   -2.9397    6.4891 H   0  0  0  0  0  0  0  0  0  0  0  0
    2.4335   -3.7190    3.9408 H   0  0  0  0  0  0  0  0  0  0  0  0
    2.7131   -1.3376    4.5522 H   0  0  0  0  0  0  0  0  0  0  0  0
    4.4445   -1.5059    4.4396 H   0  0  0  0  0  0  0  0  0  0  0  0
    2.3789   -2.0402    2.2442 H   0  0  0  0  0  0  0  0  0  0  0  0
    3.4579   -0.6767    2.3001 H   0  0  0  0  0  0  0  0  0  0  0  0
    6.5932   -2.3070    1.3009 H   0  0  0  0  0  0  0  0  0  0  0  0
    6.1759   -2.0230    2.9629 H   0  0  0  0  0  0  0  0  0  0  0  0
    5.8135   -0.8224    1.7887 H   0  0  0  0  0  0  0  0  0  0  0  0
    3.4426   -4.4714    1.9268 H   0  0  0  0  0  0  0  0  0  0  0  0
    6.4634   -4.4913    1.5243 H   0  0  0  0  0  0  0  0  0  0  0  0
    5.4744   -5.8967    1.6482 H   0  0  0  0  0  0  0  0  0  0  0  0
    5.8876   -5.3392   -0.6784 H   0  0  0  0  0  0  0  0  0  0  0  0
    4.2183   -5.4934   -0.2685 H   0  0  0  0  0  0  0  0  0  0  0  0
    4.6347   -4.3376   -2.7900 H   0  0  0  0  0  0  0  0  0  0  0  0
    3.1659   -3.4520   -2.2625 H   0  0  0  0  0  0  0  0  0  0  0  0
    5.3443   -2.1209   -3.4703 H   0  0  0  0  0  0  0  0  0  0  0  0
    4.7589   -0.0513   -2.1593 H   0  0  0  0  0  0  0  0  0  0  0  0
    3.2738   -0.8996   -2.4373 H   0  0  0  0  0  0  0  0  0  0  0  0
    4.6655   -0.4098    0.0879 H   0  0  0  0  0  0  0  0  0  0  0  0
    2.9662   -0.6466   -0.1688 H   0  0  0  0  0  0  0  0  0  0  0  0
    2.9832   -2.8642    0.1788 H   0  0  0  0  0  0  0  0  0  0  0  0
    5.4430   -3.7006    4.0284 H   0  0  0  0  0  0  0  0  0  0  0  0
  1  2  1  0
  1 26  1  0
  1 27  1  0
  1 28  1  0
  2 25  1  0
  2  3  1  0
  2  4  1  0
  3 29  1  0
  3 30  1  0
  3 31  1  0
  4  7  1  0
  4  5  1  0
  4 32  1  1
  5  6  1  0
  5 33  1  0
  5 34  1  0
  6  7  1  0
  6  9  1  0
  6 35  1  1
  7  8  2  0
  9 25  1  0
  9 10  1  0
  9 36  1  6
 10 11  1  0
 10 37  1  0
 10 38  1  0
 11 12  1  0
 11 39  1  0
 11 40  1  0
 12 22  1  0
 12 13  1  6
 12 14  1  0
 13 41  1  0
 13 42  1  0
 13 43  1  0
 14 15  1  0
 14 25  1  0
 14 44  1  6
 15 16  1  0
 15 45  1  0
 15 46  1  0
 17 16  1  1
 16 47  1  0
 16 48  1  0
 17 22  1  0
 17 23  1  0
 17 18  1  0
 18 19  1  0
 18 49  1  0
 18 50  1  0
 19 20  1  0
 19 23  1  0
 19 51  1  6
 20 21  1  0
 20 52  1  0
 20 53  1  0
 21 22  1  0
 21 54  1  0
 21 55  1  0
 22 56  1  1
 23 24  2  0
 25 57  1  1
M  END
>  <i_m_ct_stereo_status>  (147) 
1

>  <s_m_source_file>  (147) 
/var/tmp/pbs.5076255.sched01/tmp8yzwbncg/40d_vk9m1l.sdf

>  <i_m_source_file_index>  (147) 
21

>  <i_lp_mmshare_version>  (147) 
48012

>  <i_f3d_flags>  (147) 
0

>  <s_epik_input>  (147) 
W0NIM11DMShbQ0gzXSlbQ0BASF0oQzI9TylbQ0gyXVtDQEBIXTJbQ0BASF0oW0NIMl1bQ0gyXTMpW0NAQEhdMVtDQEhdKFtDSDJdW0NIMl00KVtDQEBdMyhbQ0gzXSlbQ0BIXShbQ0BAXTQ1NilbQ0gyXVtDSDJdW0NASF0oW0NIMl01KUM2PU8=

>  <s_epik_cmdline>  (147) 
J2VwaWtfcHl0aG9uJywgJy1waHQnLCAnMi4wJywgJy1waCcsICc3LjAnLCAnLXRuJywgJzgnLCAnLW1hJywgJzIwMCcsICctaW1hZScsICc8aW5maWxlLm1hZT4nLCAnLW9tYWUnLCAnPG91dGZpbGUubWFlPic=

>  <r_lp_tautomer_probability>  (147) 
1

>  <r_epik_Ionization_Penalty>  (147) 
6.94628e-14

>  <r_epik_Ionization_Penalty_Charging>  (147) 
0

>  <r_epik_Ionization_Penalty_Neutral>  (147) 
6.94628e-14

>  <r_epik_State_Penalty>  (147) 
-0

>  <r_epik_Charging_Adjusted_Penalty>  (147) 
0

>  <i_epik_Tot_Q>  (147) 
0

>  <i_epik_Tot_abs_Q>  (147) 
0

>  <s_lp_Force_Field>  (147) 
OPLS3e

>  <r_lp_Energy>  (147) 
69.7659

>  <b_lp_Chiralities_Consistent>  (147) 
1

>  <s_lp_Variant>  (147) 
44:0-1

>  <s_i_glide_gridfile>  (147) 
pfpi4k_grid

>  <i_i_glide_lignum>  (147) 
21

>  <i_i_glide_rotatable_bonds>  (147) 
0

>  <r_i_docking_score>  (147) 
-2.96116

>  <r_i_glide_ligand_efficiency>  (147) 
-0.118446

>  <r_i_glide_ligand_efficiency_sa>  (147) 
-0.346339

>  <r_i_glide_ligand_efficiency_ln>  (147) 
-0.701883

>  <r_i_glide_gscore>  (147) 
-2.96116

>  <r_i_glide_lipo>  (147) 
-0.347239

>  <r_i_glide_hbond>  (147) 
-0.100812

>  <r_i_glide_metal>  (147) 
-0

>  <r_i_glide_rewards>  (147) 
-1.08751

>  <r_i_glide_evdw>  (147) 
-22.2694

>  <r_i_glide_ecoul>  (147) 
-2.04215

>  <r_i_glide_erotb>  (147) 
0

>  <r_i_glide_esite>  (147) 
-0.00580578

>  <r_i_glide_emodel>  (147) 
-28.5615

>  <r_i_glide_energy>  (147) 
-24.3116

>  <r_i_glide_einternal>  (147) 
0

>  <r_i_glide_intrahb_reward>  (147) 
-0

>  <i_i_glide_confnum>  (147) 
1

>  <i_i_glide_posenum>  (147) 
34

>  <r_i_glide_eff_state_penalty>  (147) 
0

>  <ligand_id>  (147) 
44

>  <original_smiles>  (147) 
CC1(C)C2CC(C2=O)C2CCC3(C)C(CCC45CC(CCC43)C5=O)C21

>  <smiles>  (147) 
[H]C([H])([H])C1(C([H])([H])[H])C2([H])C(=O)C([H])(C2([H])[H])C2([H])C([H])([H])C([H])([H])C3(C([H])([H])[H])C([H])(C([H])([H])C([H])([H])C45C(=O)C([H])(C([H])([H])C([H])([H])C43[H])C5([H])[H])C21[H]

$$$$
44:0:1
     RDKit          3D

 57 62  0  0  1  0  0  0  0  0999 V2000
    4.3894   -5.2517    4.2131 C   0  0  0  0  0  0  0  0  0  0  0  0
    3.7608   -3.8403    4.3046 C   0  0  0  0  0  0  0  0  0  0  0  0
    2.2198   -3.9407    4.2016 C   0  0  0  0  0  0  0  0  0  0  0  0
    4.0713   -3.2973    5.7325 C   0  0  2  0  0  0  0  0  0  0  0  0
    3.5691   -1.8768    6.1078 C   0  0  0  0  0  0  0  0  0  0  0  0
    4.7391   -1.3488    5.2460 C   0  0  1  0  0  0  0  0  0  0  0  0
    5.4453   -2.6197    5.7904 C   0  0  0  0  0  0  0  0  0  0  0  0
    6.5547   -2.9284    6.2285 O   0  0  0  0  0  0  0  0  0  0  0  0
    4.4618   -1.4240    3.7312 C   0  0  1  0  0  0  0  0  0  0  0  0
    5.4107   -0.6012    2.8654 C   0  0  0  0  0  0  0  0  0  0  0  0
    4.8630   -0.5516    1.4275 C   0  0  0  0  0  0  0  0  0  0  0  0
    4.6537   -1.9522    0.7726 C   0  0  1  0  0  0  0  0  0  0  0  0
    6.0644   -2.5629    0.5003 C   0  0  0  0  0  0  0  0  0  0  0  0
    3.8166   -2.8692    1.7390 C   0  0  1  0  0  0  0  0  0  0  0  0
    3.6266   -4.2422    1.0710 C   0  0  0  0  0  0  0  0  0  0  0  0
    2.8324   -4.1125   -0.2292 C   0  0  0  0  0  0  0  0  0  0  0  0
    3.3018   -3.0507   -1.2285 C   0  0  1  0  0  0  0  0  0  0  0  0
    2.3791   -2.8313   -2.4438 C   0  0  0  0  0  0  0  0  0  0  0  0
    3.5973   -2.5192   -3.2980 C   0  0  1  0  0  0  0  0  0  0  0  0
    4.1622   -1.1193   -3.1019 C   0  0  0  0  0  0  0  0  0  0  0  0
    4.5552   -0.8575   -1.6192 C   0  0  0  0  0  0  0  0  0  0  0  0
    3.8372   -1.7531   -0.5611 C   0  0  2  0  0  0  0  0  0  0  0  0
    4.2823   -3.4831   -2.3264 C   0  0  0  0  0  0  0  0  0  0  0  0
    5.2335   -4.2554   -2.3879 O   0  0  0  0  0  0  0  0  0  0  0  0
    4.3805   -2.8850    3.2007 C   0  0  2  0  0  0  0  0  0  0  0  0
    4.0048   -5.9117    4.9928 H   0  0  0  0  0  0  0  0  0  0  0  0
    5.4720   -5.2058    4.3398 H   0  0  0  0  0  0  0  0  0  0  0  0
    4.2089   -5.7430    3.2604 H   0  0  0  0  0  0  0  0  0  0  0  0
    1.7730   -2.9621    4.0110 H   0  0  0  0  0  0  0  0  0  0  0  0
    1.7956   -4.3173    5.1383 H   0  0  0  0  0  0  0  0  0  0  0  0
    1.8806   -4.6235    3.4191 H   0  0  0  0  0  0  0  0  0  0  0  0
    3.8931   -4.0095    6.5406 H   0  0  0  0  0  0  0  0  0  0  0  0
    2.5679   -1.6145    5.7436 H   0  0  0  0  0  0  0  0  0  0  0  0
    3.6721   -1.6424    7.1728 H   0  0  0  0  0  0  0  0  0  0  0  0
    5.1073   -0.3951    5.6183 H   0  0  0  0  0  0  0  0  0  0  0  0
    3.4712   -0.9751    3.5849 H   0  0  0  0  0  0  0  0  0  0  0  0
    5.4892    0.4124    3.2555 H   0  0  0  0  0  0  0  0  0  0  0  0
    6.4185   -1.0130    2.8598 H   0  0  0  0  0  0  0  0  0  0  0  0
    3.9078   -0.0200    1.4433 H   0  0  0  0  0  0  0  0  0  0  0  0
    5.5343    0.0522    0.8126 H   0  0  0  0  0  0  0  0  0  0  0  0
    6.0256   -3.4740   -0.0930 H   0  0  0  0  0  0  0  0  0  0  0  0
    6.6019   -2.8122    1.4130 H   0  0  0  0  0  0  0  0  0  0  0  0
    6.7228   -1.8721   -0.0263 H   0  0  0  0  0  0  0  0  0  0  0  0
    2.8267   -2.4247    1.8212 H   0  0  0  0  0  0  0  0  0  0  0  0
    4.5729   -4.7615    0.9175 H   0  0  0  0  0  0  0  0  0  0  0  0
    3.0349   -4.8992    1.6867 H   0  0  0  0  0  0  0  0  0  0  0  0
    2.8162   -5.0924   -0.6916 H   0  0  0  0  0  0  0  0  0  0  0  0
    1.8062   -3.8886    0.0457 H   0  0  0  0  0  0  0  0  0  0  0  0
    1.8495   -3.7215   -2.7792 H   0  0  0  0  0  0  0  0  0  0  0  0
    1.7672   -1.9540   -2.3180 H   0  0  0  0  0  0  0  0  0  0  0  0
    3.5150   -2.8787   -4.3264 H   0  0  0  0  0  0  0  0  0  0  0  0
    5.0051   -0.9452   -3.7740 H   0  0  0  0  0  0  0  0  0  0  0  0
    3.3992   -0.3970   -3.3902 H   0  0  0  0  0  0  0  0  0  0  0  0
    5.6383   -0.9208   -1.5326 H   0  0  0  0  0  0  0  0  0  0  0  0
    4.2563    0.1427   -1.3629 H   0  0  0  0  0  0  0  0  0  0  0  0
    2.9658   -1.1758   -0.2493 H   0  0  0  0  0  0  0  0  0  0  0  0
    5.4091   -3.2325    3.1104 H   0  0  0  0  0  0  0  0  0  0  0  0
  1  2  1  0
  1 26  1  0
  1 27  1  0
  1 28  1  0
  2 25  1  0
  2  3  1  0
  2  4  1  0
  3 29  1  0
  3 30  1  0
  3 31  1  0
  4  7  1  0
  4  5  1  0
  4 32  1  1
  5  6  1  0
  5 33  1  0
  5 34  1  0
  6  7  1  0
  6  9  1  0
  6 35  1  1
  7  8  2  0
  9 25  1  0
  9 10  1  0
  9 36  1  1
 10 11  1  0
 10 37  1  0
 10 38  1  0
 11 12  1  0
 11 39  1  0
 11 40  1  0
 12 22  1  0
 12 13  1  6
 12 14  1  0
 13 41  1  0
 13 42  1  0
 13 43  1  0
 14 15  1  0
 14 25  1  0
 14 44  1  1
 15 16  1  0
 15 45  1  0
 15 46  1  0
 17 16  1  1
 16 47  1  0
 16 48  1  0
 17 22  1  0
 17 23  1  0
 17 18  1  0
 18 19  1  0
 18 49  1  0
 18 50  1  0
 19 20  1  0
 19 23  1  0
 19 51  1  6
 20 21  1  0
 20 52  1  0
 20 53  1  0
 21 22  1  0
 21 54  1  0
 21 55  1  0
 22 56  1  1
 23 24  2  0
 25 57  1  6
M  END
>  <i_m_ct_stereo_status>  (148) 
1

>  <s_m_source_file>  (148) 
/var/tmp/pbs.5076255.sched01/tmp8yzwbncg/40d_vk9m1l.sdf

>  <i_m_source_file_index>  (148) 
21

>  <i_lp_mmshare_version>  (148) 
48012

>  <i_f3d_flags>  (148) 
0

>  <s_epik_input>  (148) 
W0NIM11DMShbQ0gzXSlbQ0BASF0oQzI9TylbQ0gyXVtDQEBIXTJbQ0BASF0oW0NIMl1bQ0gyXTMpW0NAQEhdMVtDQEhdKFtDSDJdW0NIMl00KVtDQEBdMyhbQ0gzXSlbQ0BIXShbQ0BAXTQ1NilbQ0gyXVtDSDJdW0NASF0oW0NIMl01KUM2PU8=

>  <s_epik_cmdline>  (148) 
J2VwaWtfcHl0aG9uJywgJy1waHQnLCAnMi4wJywgJy1waCcsICc3LjAnLCAnLXRuJywgJzgnLCAnLW1hJywgJzIwMCcsICctaW1hZScsICc8aW5maWxlLm1hZT4nLCAnLW9tYWUnLCAnPG91dGZpbGUubWFlPic=

>  <r_lp_tautomer_probability>  (148) 
1

>  <r_epik_Ionization_Penalty>  (148) 
6.94628e-14

>  <r_epik_Ionization_Penalty_Charging>  (148) 
0

>  <r_epik_Ionization_Penalty_Neutral>  (148) 
6.94628e-14

>  <r_epik_State_Penalty>  (148) 
-0

>  <r_epik_Charging_Adjusted_Penalty>  (148) 
0

>  <i_epik_Tot_Q>  (148) 
0

>  <i_epik_Tot_abs_Q>  (148) 
0

>  <s_lp_Force_Field>  (148) 
OPLS3e

>  <r_lp_Energy>  (148) 
69.7659

>  <b_lp_Chiralities_Consistent>  (148) 
1

>  <s_lp_Variant>  (148) 
44:0-1

>  <s_i_glide_gridfile>  (148) 
pfpi4k_grid

>  <i_i_glide_lignum>  (148) 
21

>  <i_i_glide_rotatable_bonds>  (148) 
0

>  <r_i_docking_score>  (148) 
-2.90406

>  <r_i_glide_ligand_efficiency>  (148) 
-0.116162

>  <r_i_glide_ligand_efficiency_sa>  (148) 
-0.33966

>  <r_i_glide_ligand_efficiency_ln>  (148) 
-0.688348

>  <r_i_glide_gscore>  (148) 
-2.90406

>  <r_i_glide_lipo>  (148) 
-0.634379

>  <r_i_glide_hbond>  (148) 
0

>  <r_i_glide_metal>  (148) 
-0

>  <r_i_glide_rewards>  (148) 
-1.10952

>  <r_i_glide_evdw>  (148) 
-20.5079

>  <r_i_glide_ecoul>  (148) 
-0.729546

>  <r_i_glide_erotb>  (148) 
0

>  <r_i_glide_esite>  (148) 
-0.0253323

>  <r_i_glide_emodel>  (148) 
-24.8328

>  <r_i_glide_energy>  (148) 
-21.2375

>  <r_i_glide_einternal>  (148) 
0

>  <r_i_glide_intrahb_reward>  (148) 
-0

>  <i_i_glide_confnum>  (148) 
2

>  <i_i_glide_posenum>  (148) 
3

>  <r_i_glide_eff_state_penalty>  (148) 
0

>  <ligand_id>  (148) 
44

>  <original_smiles>  (148) 
CC1(C)C2CC(C2=O)C2CCC3(C)C(CCC45CC(CCC43)C5=O)C21

>  <smiles>  (148) 
[H]C([H])([H])C1(C([H])([H])[H])C2([H])C(=O)C([H])(C2([H])[H])C2([H])C([H])([H])C([H])([H])C3(C([H])([H])[H])C([H])(C([H])([H])C([H])([H])C45C(=O)C([H])(C([H])([H])C([H])([H])C43[H])C5([H])[H])C21[H]

$$$$
44:0:2
     RDKit          3D

 57 62  0  0  1  0  0  0  0  0999 V2000
    6.4686   -6.5200    3.4612 C   0  0  0  0  0  0  0  0  0  0  0  0
    5.1434   -5.8087    3.8236 C   0  0  0  0  0  0  0  0  0  0  0  0
    3.9356   -6.6535    3.3514 C   0  0  0  0  0  0  0  0  0  0  0  0
    5.0773   -5.7324    5.3838 C   0  0  2  0  0  0  0  0  0  0  0  0
    3.8409   -5.0599    6.0240 C   0  0  0  0  0  0  0  0  0  0  0  0
    4.4905   -3.7175    5.6479 C   0  0  1  0  0  0  0  0  0  0  0  0
    5.8054   -4.4779    5.9239 C   0  0  0  0  0  0  0  0  0  0  0  0
    6.8975   -4.2275    6.4326 O   0  0  0  0  0  0  0  0  0  0  0  0
    4.3326   -3.3670    4.1521 C   0  0  1  0  0  0  0  0  0  0  0  0
    4.6699   -1.9172    3.8029 C   0  0  0  0  0  0  0  0  0  0  0  0
    4.2196   -1.6402    2.3602 C   0  0  0  0  0  0  0  0  0  0  0  0
    4.8557   -2.5827    1.2968 C   0  0  1  0  0  0  0  0  0  0  0  0
    6.3620   -2.2113    1.1681 C   0  0  0  0  0  0  0  0  0  0  0  0
    4.6705   -4.0855    1.7302 C   0  0  1  0  0  0  0  0  0  0  0  0
    5.3102   -4.9960    0.6641 C   0  0  0  0  0  0  0  0  0  0  0  0
    4.6103   -4.8396   -0.6911 C   0  0  0  0  0  0  0  0  0  0  0  0
    4.4182   -3.4064   -1.1890 C   0  0  1  0  0  0  0  0  0  0  0  0
    3.5480   -3.2463   -2.4605 C   0  0  0  0  0  0  0  0  0  0  0  0
    4.4412   -2.0777   -2.8716 C   0  0  1  0  0  0  0  0  0  0  0  0
    4.1034   -0.7715   -2.1537 C   0  0  0  0  0  0  0  0  0  0  0  0
    4.1711   -0.9030   -0.6054 C   0  0  0  0  0  0  0  0  0  0  0  0
    4.1011   -2.3711   -0.0665 C   0  0  2  0  0  0  0  0  0  0  0  0
    5.5336   -2.8689   -2.1194 C   0  0  0  0  0  0  0  0  0  0  0  0
    6.7378   -3.0562   -2.2683 O   0  0  0  0  0  0  0  0  0  0  0  0
    5.1142   -4.3428    3.2098 C   0  0  2  0  0  0  0  0  0  0  0  0
    6.5144   -7.5177    3.9027 H   0  0  0  0  0  0  0  0  0  0  0  0
    7.3296   -5.9657    3.8376 H   0  0  0  0  0  0  0  0  0  0  0  0
    6.6170   -6.6405    2.3923 H   0  0  0  0  0  0  0  0  0  0  0  0
    3.0146   -6.0695    3.3529 H   0  0  0  0  0  0  0  0  0  0  0  0
    3.7772   -7.5109    4.0096 H   0  0  0  0  0  0  0  0  0  0  0  0
    4.0606   -7.0630    2.3524 H   0  0  0  0  0  0  0  0  0  0  0  0
    5.3379   -6.6631    5.8939 H   0  0  0  0  0  0  0  0  0  0  0  0
    2.8913   -5.2603    5.5260 H   0  0  0  0  0  0  0  0  0  0  0  0
    3.7489   -5.2263    7.1038 H   0  0  0  0  0  0  0  0  0  0  0  0
    4.2475   -2.9213    6.3523 H   0  0  0  0  0  0  0  0  0  0  0  0
    3.2722   -3.4920    3.9313 H   0  0  0  0  0  0  0  0  0  0  0  0
    4.1440   -1.2435    4.4792 H   0  0  0  0  0  0  0  0  0  0  0  0
    5.7306   -1.7177    3.9328 H   0  0  0  0  0  0  0  0  0  0  0  0
    3.1346   -1.7384    2.3187 H   0  0  0  0  0  0  0  0  0  0  0  0
    4.4327   -0.5961    2.1218 H   0  0  0  0  0  0  0  0  0  0  0  0
    6.8633   -2.7076    0.3406 H   0  0  0  0  0  0  0  0  0  0  0  0
    6.9076   -2.4728    2.0685 H   0  0  0  0  0  0  0  0  0  0  0  0
    6.5272   -1.1431    1.0406 H   0  0  0  0  0  0  0  0  0  0  0  0
    3.6026   -4.2950    1.7108 H   0  0  0  0  0  0  0  0  0  0  0  0
    6.3823   -4.8389    0.5774 H   0  0  0  0  0  0  0  0  0  0  0  0
    5.1981   -6.0434    0.9174 H   0  0  0  0  0  0  0  0  0  0  0  0
    5.1353   -5.4334   -1.4376 H   0  0  0  0  0  0  0  0  0  0  0  0
    3.6281   -5.2985   -0.5984 H   0  0  0  0  0  0  0  0  0  0  0  0
    3.6127   -4.0749   -3.1711 H   0  0  0  0  0  0  0  0  0  0  0  0
    2.5085   -2.9841   -2.2613 H   0  0  0  0  0  0  0  0  0  0  0  0
    4.5625   -2.0057   -3.9525 H   0  0  0  0  0  0  0  0  0  0  0  0
    4.7205    0.0519   -2.5099 H   0  0  0  0  0  0  0  0  0  0  0  0
    3.0803   -0.5067   -2.4275 H   0  0  0  0  0  0  0  0  0  0  0  0
    5.1032   -0.4275   -0.3086 H   0  0  0  0  0  0  0  0  0  0  0  0
    3.3849   -0.3035   -0.1392 H   0  0  0  0  0  0  0  0  0  0  0  0
    3.0424   -2.5294    0.1632 H   0  0  0  0  0  0  0  0  0  0  0  0
    6.1554   -4.0409    3.2513 H   0  0  0  0  0  0  0  0  0  0  0  0
  1  2  1  0
  1 26  1  0
  1 27  1  0
  1 28  1  0
  2 25  1  0
  2  3  1  0
  2  4  1  0
  3 29  1  0
  3 30  1  0
  3 31  1  0
  4  7  1  0
  4  5  1  0
  4 32  1  1
  5  6  1  0
  5 33  1  0
  5 34  1  0
  6  7  1  0
  6  9  1  0
  6 35  1  1
  7  8  2  0
  9 25  1  0
  9 10  1  0
  9 36  1  6
 10 11  1  0
 10 37  1  0
 10 38  1  0
 11 12  1  0
 11 39  1  0
 11 40  1  0
 12 22  1  0
 12 13  1  6
 12 14  1  0
 13 41  1  0
 13 42  1  0
 13 43  1  0
 14 15  1  0
 14 25  1  0
 14 44  1  1
 15 16  1  0
 15 45  1  0
 15 46  1  0
 17 16  1  1
 16 47  1  0
 16 48  1  0
 17 22  1  0
 17 23  1  0
 17 18  1  0
 18 19  1  0
 18 49  1  0
 18 50  1  0
 19 20  1  0
 19 23  1  0
 19 51  1  6
 20 21  1  0
 20 52  1  0
 20 53  1  0
 21 22  1  0
 21 54  1  0
 21 55  1  0
 22 56  1  1
 23 24  2  0
 25 57  1  6
M  END
>  <i_m_ct_stereo_status>  (149) 
1

>  <s_m_source_file>  (149) 
/var/tmp/pbs.5076255.sched01/tmp8yzwbncg/40d_vk9m1l.sdf

>  <i_m_source_file_index>  (149) 
21

>  <i_lp_mmshare_version>  (149) 
48012

>  <i_f3d_flags>  (149) 
0

>  <s_epik_input>  (149) 
W0NIM11DMShbQ0gzXSlbQ0BASF0oQzI9TylbQ0gyXVtDQEBIXTJbQ0BASF0oW0NIMl1bQ0gyXTMpW0NAQEhdMVtDQEhdKFtDSDJdW0NIMl00KVtDQEBdMyhbQ0gzXSlbQ0BIXShbQ0BAXTQ1NilbQ0gyXVtDSDJdW0NASF0oW0NIMl01KUM2PU8=

>  <s_epik_cmdline>  (149) 
J2VwaWtfcHl0aG9uJywgJy1waHQnLCAnMi4wJywgJy1waCcsICc3LjAnLCAnLXRuJywgJzgnLCAnLW1hJywgJzIwMCcsICctaW1hZScsICc8aW5maWxlLm1hZT4nLCAnLW9tYWUnLCAnPG91dGZpbGUubWFlPic=

>  <r_lp_tautomer_probability>  (149) 
1

>  <r_epik_Ionization_Penalty>  (149) 
6.94628e-14

>  <r_epik_Ionization_Penalty_Charging>  (149) 
0

>  <r_epik_Ionization_Penalty_Neutral>  (149) 
6.94628e-14

>  <r_epik_State_Penalty>  (149) 
-0

>  <r_epik_Charging_Adjusted_Penalty>  (149) 
0

>  <i_epik_Tot_Q>  (149) 
0

>  <i_epik_Tot_abs_Q>  (149) 
0

>  <s_lp_Force_Field>  (149) 
OPLS3e

>  <r_lp_Energy>  (149) 
69.7659

>  <b_lp_Chiralities_Consistent>  (149) 
1

>  <s_lp_Variant>  (149) 
44:0-1

>  <s_i_glide_gridfile>  (149) 
pfpi4k_grid

>  <i_i_glide_lignum>  (149) 
21

>  <i_i_glide_rotatable_bonds>  (149) 
0

>  <r_i_docking_score>  (149) 
-2.7948

>  <r_i_glide_ligand_efficiency>  (149) 
-0.111792

>  <r_i_glide_ligand_efficiency_sa>  (149) 
-0.326882

>  <r_i_glide_ligand_efficiency_ln>  (149) 
-0.662451

>  <r_i_glide_gscore>  (149) 
-2.7948

>  <r_i_glide_lipo>  (149) 
-0.381177

>  <r_i_glide_hbond>  (149) 
0

>  <r_i_glide_metal>  (149) 
-0

>  <r_i_glide_rewards>  (149) 
-1.21805

>  <r_i_glide_evdw>  (149) 
-20.5185

>  <r_i_glide_ecoul>  (149) 
-1.13097

>  <r_i_glide_erotb>  (149) 
0

>  <r_i_glide_esite>  (149) 
0

>  <r_i_glide_emodel>  (149) 
-25.6459

>  <r_i_glide_energy>  (149) 
-21.6494

>  <r_i_glide_einternal>  (149) 
0

>  <r_i_glide_intrahb_reward>  (149) 
-0

>  <i_i_glide_confnum>  (149) 
2

>  <i_i_glide_posenum>  (149) 
12

>  <r_i_glide_eff_state_penalty>  (149) 
0

>  <ligand_id>  (149) 
44

>  <original_smiles>  (149) 
CC1(C)C2CC(C2=O)C2CCC3(C)C(CCC45CC(CCC43)C5=O)C21

>  <smiles>  (149) 
[H]C([H])([H])C1(C([H])([H])[H])C2([H])C(=O)C([H])(C2([H])[H])C2([H])C([H])([H])C([H])([H])C3(C([H])([H])[H])C([H])(C([H])([H])C([H])([H])C45C(=O)C([H])(C([H])([H])C([H])([H])C43[H])C5([H])[H])C21[H]

$$$$
45:0:0
     RDKit          3D

 91100  0  0  1  0  0  0  0  0999 V2000
   -0.9581   -8.6168    3.7869 C   0  0  0  0  0  0  0  0  0  0  0  0
    0.5354   -8.9907    3.8191 C   0  0  2  0  0  0  0  0  0  0  0  0
    0.8167  -10.1441    4.8135 C   0  0  0  0  0  0  0  0  0  0  0  0
    2.3102  -10.4859    4.8985 C   0  0  0  0  0  0  0  0  0  0  0  0
    3.2417   -9.2536    5.0120 C   0  0  2  0  0  0  0  0  0  0  0  0
    3.3881   -8.7226    6.3393 O   0  0  0  0  0  0  0  0  0  0  0  0
    2.3950   -8.0087    7.0443 C   0  0  1  0  0  0  0  0  0  0  0  0
    2.0857   -8.8173    8.3068 C   0  0  0  0  0  0  0  0  0  0  0  0
    2.8545   -6.7768    7.4690 O   0  0  0  0  0  0  0  0  0  0  0  0
    3.2176   -5.9753    6.2583 O   0  0  0  0  0  0  0  0  0  0  0  0
    2.0504   -5.6511    5.5239 C   0  0  1  0  0  0  0  0  0  0  0  0
    1.3340   -4.4850    6.2835 C   0  0  2  0  0  0  0  0  0  0  0  0
   -0.1606   -4.2831    5.8914 C   0  0  0  0  0  0  0  0  0  0  0  0
   -0.7690   -2.9343    6.3047 C   0  0  0  0  0  0  0  0  0  0  0  0
    0.0310   -1.7979    5.6723 C   0  0  1  0  0  0  0  0  0  0  0  0
   -0.0382   -1.7171    4.1103 C   0  0  0  0  0  0  0  0  0  0  0  0
    0.4707   -0.2870    3.7604 C   0  0  2  0  0  0  0  0  0  0  0  0
    1.6554   -0.2410    2.7548 C   0  0  0  0  0  0  0  0  0  0  0  0
    2.7398    0.8056    3.0649 C   0  0  0  0  0  0  0  0  0  0  0  0
    2.8803    1.7465    2.2929 O   0  0  0  0  0  0  0  0  0  0  0  0
    3.5498    0.6135    4.1700 O   0  0  0  0  0  0  0  0  0  0  0  0
    3.2636   -0.3562    5.1060 C   0  0  0  0  0  0  0  0  0  0  0  0
    2.0238   -0.5955    5.5568 C   0  0  0  0  0  0  0  0  0  0  0  0
    0.8066    0.2194    5.1655 C   0  0  2  0  0  0  0  0  0  0  0  0
   -0.3113   -0.3485    6.0545 C   0  0  1  0  0  0  0  0  0  0  0  0
   -1.7555    0.1405    5.7862 C   0  0  0  0  0  0  0  0  0  0  0  0
    1.4882   -1.8701    6.1801 C   0  0  2  0  0  0  0  0  0  0  0  0
    2.2097   -3.2389    5.9719 C   0  0  2  0  0  0  0  0  0  0  0  0
    2.9114   -3.5403    4.6339 C   0  0  0  0  0  0  0  0  0  0  0  0
    2.5224   -4.9765    4.2148 C   0  0  1  0  0  0  0  0  0  0  0  0
    3.5788   -5.6637    3.2515 C   0  0  2  0  0  0  0  0  0  0  0  0
    3.1529   -5.4996    1.7451 C   0  0  1  0  0  0  0  0  0  0  0  0
    2.8111   -4.0504    1.3336 C   0  0  0  0  0  0  0  0  0  0  0  0
    4.1700   -6.0961    0.7424 C   0  0  1  0  0  0  0  0  0  0  0  0
    5.3607   -5.3325    0.6919 O   0  0  0  0  0  0  0  0  0  0  0  0
    4.4901   -7.5497    1.0834 C   0  0  0  0  0  0  0  0  0  0  0  0
    5.0378   -7.6693    2.5087 C   0  0  0  0  0  0  0  0  0  0  0  0
    4.0592   -7.1321    3.5933 C   0  0  1  0  0  0  0  0  0  0  0  0
    4.9794   -7.0333    4.6607 O   0  0  0  0  0  0  0  0  0  0  0  0
    2.9458   -8.2145    3.9001 C   0  0  2  0  0  0  0  0  0  0  0  0
    1.4830   -7.7599    4.0086 C   0  0  2  0  0  0  0  0  0  0  0  0
    1.1987   -6.9442    5.2847 C   0  0  1  0  0  0  0  0  0  0  0  0
    1.1789   -7.8117    6.4030 O   0  0  0  0  0  0  0  0  0  0  0  0
   -1.3183   -8.3184    4.7735 H   0  0  0  0  0  0  0  0  0  0  0  0
   -1.5578   -9.4722    3.4770 H   0  0  0  0  0  0  0  0  0  0  0  0
   -1.1569   -7.8102    3.0803 H   0  0  0  0  0  0  0  0  0  0  0  0
    0.7469   -9.3937    2.8309 H   0  0  0  0  0  0  0  0  0  0  0  0
    0.4282   -9.9268    5.8062 H   0  0  0  0  0  0  0  0  0  0  0  0
    0.2622  -11.0342    4.5062 H   0  0  0  0  0  0  0  0  0  0  0  0
    2.4911  -11.1931    5.7092 H   0  0  0  0  0  0  0  0  0  0  0  0
    2.5709  -11.0250    3.9862 H   0  0  0  0  0  0  0  0  0  0  0  0
    4.2330   -9.6623    4.8036 H   0  0  0  0  0  0  0  0  0  0  0  0
    1.3673   -8.2829    8.9244 H   0  0  0  0  0  0  0  0  0  0  0  0
    2.9994   -8.9791    8.8753 H   0  0  0  0  0  0  0  0  0  0  0  0
    1.6696   -9.7850    8.0278 H   0  0  0  0  0  0  0  0  0  0  0  0
    1.3534   -4.6715    7.3590 H   0  0  0  0  0  0  0  0  0  0  0  0
   -0.2706   -4.3969    4.8156 H   0  0  0  0  0  0  0  0  0  0  0  0
   -0.7686   -5.0610    6.3507 H   0  0  0  0  0  0  0  0  0  0  0  0
   -1.8180   -2.8717    6.0207 H   0  0  0  0  0  0  0  0  0  0  0  0
   -0.7413   -2.8420    7.3886 H   0  0  0  0  0  0  0  0  0  0  0  0
    0.5290   -2.5014    3.6093 H   0  0  0  0  0  0  0  0  0  0  0  0
   -1.0692   -1.8179    3.7875 H   0  0  0  0  0  0  0  0  0  0  0  0
   -0.3476    0.3054    3.3445 H   0  0  0  0  0  0  0  0  0  0  0  0
    2.1410   -1.2078    2.6577 H   0  0  0  0  0  0  0  0  0  0  0  0
    1.2617   -0.0069    1.7638 H   0  0  0  0  0  0  0  0  0  0  0  0
    4.1064   -1.0032    5.2951 H   0  0  0  0  0  0  0  0  0  0  0  0
    0.9491    1.2991    5.2374 H   0  0  0  0  0  0  0  0  0  0  0  0
   -0.0982   -0.1523    7.1064 H   0  0  0  0  0  0  0  0  0  0  0  0
   -2.1070   -0.0189    4.7651 H   0  0  0  0  0  0  0  0  0  0  0  0
   -1.8418    1.2063    6.0005 H   0  0  0  0  0  0  0  0  0  0  0  0
   -2.4596   -0.3707    6.4377 H   0  0  0  0  0  0  0  0  0  0  0  0
    1.4753   -1.7025    7.2602 H   0  0  0  0  0  0  0  0  0  0  0  0
    3.0154   -3.2508    6.7098 H   0  0  0  0  0  0  0  0  0  0  0  0
    2.6714   -2.8245    3.8561 H   0  0  0  0  0  0  0  0  0  0  0  0
    3.9888   -3.4575    4.7975 H   0  0  0  0  0  0  0  0  0  0  0  0
    1.6003   -4.8769    3.6485 H   0  0  0  0  0  0  0  0  0  0  0  0
    4.4896   -5.0714    3.3375 H   0  0  0  0  0  0  0  0  0  0  0  0
    2.2382   -6.0717    1.5976 H   0  0  0  0  0  0  0  0  0  0  0  0
    3.6212   -3.3595    1.5775 H   0  0  0  0  0  0  0  0  0  0  0  0
    1.9026   -3.6870    1.8161 H   0  0  0  0  0  0  0  0  0  0  0  0
    2.6365   -3.9857    0.2593 H   0  0  0  0  0  0  0  0  0  0  0  0
    3.7351   -6.0629   -0.2590 H   0  0  0  0  0  0  0  0  0  0  0  0
    5.7680   -5.3537    1.5429 H   0  0  0  0  0  0  0  0  0  0  0  0
    3.5917   -8.1569    0.9674 H   0  0  0  0  0  0  0  0  0  0  0  0
    5.2154   -7.9551    0.3822 H   0  0  0  0  0  0  0  0  0  0  0  0
    5.3129   -8.7064    2.7098 H   0  0  0  0  0  0  0  0  0  0  0  0
    5.9802   -7.1163    2.5510 H   0  0  0  0  0  0  0  0  0  0  0  0
    5.2478   -7.9071    4.8963 H   0  0  0  0  0  0  0  0  0  0  0  0
    2.9276   -8.8232    2.9991 H   0  0  0  0  0  0  0  0  0  0  0  0
    1.2624   -7.1175    3.1632 H   0  0  0  0  0  0  0  0  0  0  0  0
    0.1679   -6.6376    5.1618 H   0  0  0  0  0  0  0  0  0  0  0  0
  1  2  1  0
  1 44  1  0
  1 45  1  0
  1 46  1  0
  2 41  1  0
  2  3  1  0
  2 47  1  6
  3  4  1  0
  3 48  1  0
  3 49  1  0
  4  5  1  0
  4 50  1  0
  4 51  1  0
  5 40  1  0
  5  6  1  0
  5 52  1  6
  6  7  1  0
  7 43  1  0
  7  8  1  1
  7  9  1  0
  8 53  1  0
  8 54  1  0
  8 55  1  0
  9 10  1  0
 11 10  1  1
 11 30  1  0
 11 42  1  0
 11 12  1  0
 12 28  1  0
 12 13  1  0
 12 56  1  1
 13 14  1  0
 13 57  1  0
 13 58  1  0
 15 14  1  1
 14 59  1  0
 14 60  1  0
 15 25  1  0
 15 27  1  0
 15 16  1  0
 16 17  1  0
 16 61  1  0
 16 62  1  0
 17 24  1  0
 17 18  1  0
 17 63  1  6
 18 19  1  0
 18 64  1  0
 18 65  1  0
 19 20  2  0
 19 21  1  0
 21 22  1  0
 22 23  2  0
 22 66  1  0
 23 24  1  0
 23 27  1  0
 24 25  1  0
 24 67  1  6
 25 26  1  0
 25 68  1  1
 26 69  1  0
 26 70  1  0
 26 71  1  0
 27 28  1  0
 27 72  1  1
 28 29  1  0
 28 73  1  1
 29 30  1  0
 29 74  1  0
 29 75  1  0
 30 31  1  0
 30 76  1  6
 31 38  1  0
 31 32  1  0
 31 77  1  6
 32 33  1  0
 32 34  1  0
 32 78  1  1
 33 79  1  0
 33 80  1  0
 33 81  1  0
 34 35  1  0
 34 36  1  0
 34 82  1  6
 35 83  1  0
 36 37  1  0
 36 84  1  0
 36 85  1  0
 37 38  1  0
 37 86  1  0
 37 87  1  0
 38 39  1  1
 38 40  1  0
 39 88  1  0
 40 41  1  0
 40 89  1  6
 41 42  1  0
 41 90  1  6
 42 43  1  0
 42 91  1  6
M  END
>  <i_m_ct_stereo_status>  (150) 
1

>  <s_m_source_file>  (150) 
/var/tmp/pbs.5076255.sched01/tmp8yzwbncg/40d_vk9m1l.sdf

>  <i_m_source_file_index>  (150) 
22

>  <i_lp_mmshare_version>  (150) 
48012

>  <i_f3d_flags>  (150) 
0

>  <s_epik_input>  (150) 
TzFPW0NAQF0oTzIpKFtDSDNdKU9bQ0BASF0zW0NIXTRbQ0BIXShbQ0gzXSlbQ0gyXVtDSDJdW0NASF0yW0NAQEhdNFtDQEBdKFtPSF0pKFtDSDJdW0NIMl1bQ0BIXShbT0hdKVtDQEBIXTVbQ0gzXSlbQ0BASF01W0NAQEhdNltDSDJdW0NASF0oW0NAQEhdN1tDQEBdMTM2KVtDQEBIXThbQ0BdOShbQ0gyXVtDSDJdNylbQ0gyXVtDQEhdMVtDQEBIXShbQ0BIXTlbQ0gzXSlDOD1bQ0hdT0MoPU8pW0NIMl0x

>  <s_epik_cmdline>  (150) 
J2VwaWtfcHl0aG9uJywgJy1waHQnLCAnMi4wJywgJy1waCcsICc3LjAnLCAnLXRuJywgJzgnLCAnLW1hJywgJzIwMCcsICctaW1hZScsICc8aW5maWxlLm1hZT4nLCAnLW9tYWUnLCAnPG91dGZpbGUubWFlPic=

>  <r_lp_tautomer_probability>  (150) 
1

>  <r_epik_Ionization_Penalty>  (150) 
1.43823e-06

>  <r_epik_Ionization_Penalty_Charging>  (150) 
0

>  <r_epik_Ionization_Penalty_Neutral>  (150) 
1.43823e-06

>  <r_epik_State_Penalty>  (150) 
-0

>  <r_epik_Charging_Adjusted_Penalty>  (150) 
0

>  <i_epik_Tot_Q>  (150) 
0

>  <i_epik_Tot_abs_Q>  (150) 
0

>  <s_lp_Force_Field>  (150) 
OPLS3e

>  <r_lp_Energy>  (150) 
114.376

>  <b_lp_Chiralities_Consistent>  (150) 
1

>  <s_lp_Variant>  (150) 
45:0-1

>  <s_i_glide_gridfile>  (150) 
pfpi4k_grid

>  <i_i_glide_lignum>  (150) 
22

>  <i_i_glide_rotatable_bonds>  (150) 
2

>  <r_i_docking_score>  (150) 
-1.68093

>  <r_i_glide_ligand_efficiency>  (150) 
-0.0390915

>  <r_i_glide_ligand_efficiency_sa>  (150) 
-0.136953

>  <r_i_glide_ligand_efficiency_ln>  (150) 
-0.353049

>  <r_i_glide_gscore>  (150) 
-1.68093

>  <r_i_glide_lipo>  (150) 
-0.182261

>  <r_i_glide_hbond>  (150) 
0

>  <r_i_glide_metal>  (150) 
-0

>  <r_i_glide_rewards>  (150) 
0

>  <r_i_glide_evdw>  (150) 
-30.5738

>  <r_i_glide_ecoul>  (150) 
0.263388

>  <r_i_glide_erotb>  (150) 
0

>  <r_i_glide_esite>  (150) 
-0.00949151

>  <r_i_glide_emodel>  (150) 
-32.9824

>  <r_i_glide_energy>  (150) 
-30.3104

>  <r_i_glide_einternal>  (150) 
0.0178473

>  <r_i_glide_intrahb_reward>  (150) 
-0

>  <i_i_glide_confnum>  (150) 
2

>  <i_i_glide_posenum>  (150) 
3

>  <r_i_glide_eff_state_penalty>  (150) 
0

>  <ligand_id>  (150) 
45

>  <original_smiles>  (150) 
CC1CCC2OC3(C)OOC45C6CCC78CC9CC(=O)OC=C(C9C7C)C8C6CC4C4C(C)C(O)CCC4(O)C2C1C5O3

>  <smiles>  (150) 
[H]OC1([H])C([H])([H])C([H])([H])C2(O[H])C3([H])C4([H])OC5(C([H])([H])[H])OOC6(C([H])(O5)C3([H])C([H])(C([H])([H])[H])C([H])([H])C4([H])[H])C3([H])C([H])([H])C([H])([H])C45C([H])([H])C7([H])C([H])([H])C(=O)OC([H])=C(C7([H])C4([H])C([H])([H])[H])C5([H])C3([H])C([H])([H])C6([H])C2([H])C1([H])C([H])([H])[H]

$$$$
46:0:0
     RDKit          3D

 56 60  0  0  1  0  0  0  0  0999 V2000
    2.6022   -3.4649   -0.6502 C   0  0  0  0  0  0  0  0  0  0  0  0
    3.9577   -3.9349   -0.0013 C   0  0  1  0  0  0  0  0  0  0  0  0
    4.9002   -3.9425   -1.2275 C   0  0  0  0  0  0  0  0  0  0  0  0
    5.4072   -2.4825   -1.3645 C   0  0  1  0  0  0  0  0  0  0  0  0
    4.9913   -1.8576   -2.5650 O   0  0  0  0  0  0  0  0  0  0  0  0
    4.9735   -1.7315   -0.0686 C   0  0  1  0  0  0  0  0  0  0  0  0
    3.8710   -0.8596   -0.2597 O   0  0  0  0  0  0  0  0  0  0  0  0
    4.6737   -2.8859    0.9290 C   0  0  2  0  0  0  0  0  0  0  0  0
    6.1231   -3.2787    1.3816 C   0  0  0  0  0  0  0  0  0  0  0  0
    3.9056   -2.5278    2.2506 C   0  0  1  0  0  0  0  0  0  0  0  0
    2.6235   -1.9688    2.0694 O   0  0  0  0  0  0  0  0  0  0  0  0
    3.8332   -3.6452    3.3421 C   0  0  0  0  0  0  0  0  0  0  0  0
    2.9200   -4.9219    3.1462 C   0  0  1  0  0  0  0  0  0  0  0  0
    1.6376   -4.5997    3.9818 C   0  0  0  0  0  0  0  0  0  0  0  0
    2.4749   -5.2545    1.6860 C   0  0  2  0  0  0  0  0  0  0  0  0
    1.5335   -6.4974    1.5498 C   0  0  0  0  0  0  0  0  0  0  0  0
    0.3438   -6.3072    1.2972 O   0  0  0  0  0  0  0  0  0  0  0  0
    2.0710   -7.9528    1.6856 C   0  0  0  0  0  0  0  0  0  0  0  0
    2.5550   -8.4329    3.0939 C   0  0  0  0  0  0  0  0  0  0  0  0
    2.6799   -7.2848    4.0703 C   0  0  1  0  0  0  0  0  0  0  0  0
    3.7911   -6.7668    4.8429 O   0  0  0  0  0  0  0  0  0  0  0  0
    3.6334   -6.2312    3.5372 C   0  0  2  0  0  0  0  0  0  0  0  0
    4.9360   -6.4481    2.7214 C   0  0  1  0  0  0  0  0  0  0  0  0
    5.5516   -7.7080    2.9133 O   0  0  0  0  0  0  0  0  0  0  0  0
    4.8247   -6.2217    1.1835 C   0  0  0  0  0  0  0  0  0  0  0  0
    3.6572   -5.3230    0.6731 C   0  0  2  0  0  0  0  0  0  0  0  0
    2.0756   -4.2962   -1.1140 H   0  0  0  0  0  0  0  0  0  0  0  0
    2.7118   -2.7457   -1.4582 H   0  0  0  0  0  0  0  0  0  0  0  0
    1.8937   -3.0110    0.0315 H   0  0  0  0  0  0  0  0  0  0  0  0
    5.7403   -4.6178   -1.0724 H   0  0  0  0  0  0  0  0  0  0  0  0
    4.4110   -4.2840   -2.1396 H   0  0  0  0  0  0  0  0  0  0  0  0
    6.4957   -2.5209   -1.4170 H   0  0  0  0  0  0  0  0  0  0  0  0
    4.0532   -1.7518   -2.5443 H   0  0  0  0  0  0  0  0  0  0  0  0
    5.7834   -1.0873    0.2762 H   0  0  0  0  0  0  0  0  0  0  0  0
    3.1271   -1.3538   -0.5745 H   0  0  0  0  0  0  0  0  0  0  0  0
    6.5855   -2.4529    1.9240 H   0  0  0  0  0  0  0  0  0  0  0  0
    6.8065   -3.5199    0.5695 H   0  0  0  0  0  0  0  0  0  0  0  0
    6.1787   -4.1219    2.0475 H   0  0  0  0  0  0  0  0  0  0  0  0
    4.4701   -1.7131    2.7043 H   0  0  0  0  0  0  0  0  0  0  0  0
    2.6947   -1.2769    1.4241 H   0  0  0  0  0  0  0  0  0  0  0  0
    4.8356   -3.9293    3.6428 H   0  0  0  0  0  0  0  0  0  0  0  0
    3.5137   -3.1407    4.2559 H   0  0  0  0  0  0  0  0  0  0  0  0
    0.8066   -5.2898    3.8323 H   0  0  0  0  0  0  0  0  0  0  0  0
    1.2391   -3.6203    3.7069 H   0  0  0  0  0  0  0  0  0  0  0  0
    1.8498   -4.5697    5.0534 H   0  0  0  0  0  0  0  0  0  0  0  0
    1.8168   -4.4346    1.4250 H   0  0  0  0  0  0  0  0  0  0  0  0
    1.2848   -8.6281    1.3465 H   0  0  0  0  0  0  0  0  0  0  0  0
    2.8705   -8.0942    0.9630 H   0  0  0  0  0  0  0  0  0  0  0  0
    1.8240   -9.1313    3.4999 H   0  0  0  0  0  0  0  0  0  0  0  0
    3.4740   -9.0099    3.0313 H   0  0  0  0  0  0  0  0  0  0  0  0
    1.7380   -7.0496    4.5572 H   0  0  0  0  0  0  0  0  0  0  0  0
    5.6781   -5.7857    3.1462 H   0  0  0  0  0  0  0  0  0  0  0  0
    4.9484   -8.3817    2.6450 H   0  0  0  0  0  0  0  0  0  0  0  0
    5.7859   -5.8910    0.7954 H   0  0  0  0  0  0  0  0  0  0  0  0
    4.7094   -7.1928    0.7028 H   0  0  0  0  0  0  0  0  0  0  0  0
    3.2857   -5.8970   -0.1763 H   0  0  0  0  0  0  0  0  0  0  0  0
  2  1  1  6
  1 27  1  0
  1 28  1  0
  1 29  1  0
  2  8  1  0
  2 26  1  0
  2  3  1  0
  3  4  1  0
  3 30  1  0
  3 31  1  0
  4  5  1  0
  4  6  1  0
  4 32  1  6
  5 33  1  0
  6  7  1  0
  6  8  1  0
  6 34  1  1
  7 35  1  0
  8  9  1  1
  8 10  1  0
  9 36  1  0
  9 37  1  0
  9 38  1  0
 10 11  1  0
 10 12  1  0
 10 39  1  1
 11 40  1  0
 12 13  1  0
 12 41  1  0
 12 42  1  0
 13 22  1  0
 13 14  1  1
 13 15  1  0
 14 43  1  0
 14 44  1  0
 14 45  1  0
 15 26  1  0
 15 16  1  0
 15 46  1  6
 16 17  2  0
 16 18  1  0
 18 19  1  0
 18 47  1  0
 18 48  1  0
 19 20  1  0
 19 49  1  0
 19 50  1  0
 20 22  1  0
 20 21  1  0
 20 51  1  1
 22 21  1  1
 22 23  1  0
 23 24  1  0
 23 25  1  0
 23 52  1  1
 24 53  1  0
 25 26  1  0
 25 54  1  0
 25 55  1  0
 26 56  1  6
M  END
>  <i_m_ct_stereo_status>  (151) 
1

>  <s_m_source_file>  (151) 
/var/tmp/pbs.5076255.sched01/tmp8yzwbncg/40d_vk9m1l.sdf

>  <i_m_source_file_index>  (151) 
23

>  <i_lp_mmshare_version>  (151) 
48012

>  <i_f3d_flags>  (151) 
0

>  <s_epik_input>  (151) 
W0NIMl0xW0NAQEhdKFtPSF0pW0NAQEhdKFtPSF0pW0NAQF0oW0NIM10pKFtDQEBIXShbT0hdKVtDSDJdMilbQ0BdMShbQ0gzXSlbQ0BASF0oW0NIMl1bQ0BASF0zW09IXSlbQ0BIXShbQ0BdMihbQ0BdMzQ1KVtDSDNdKUMoPU8pW0NIMl1bQ0gyXVtDQEhdNE81

>  <s_epik_cmdline>  (151) 
J2VwaWtfcHl0aG9uJywgJy1waHQnLCAnMi4wJywgJy1waCcsICc3LjAnLCAnLXRuJywgJzgnLCAnLW1hJywgJzIwMCcsICctaW1hZScsICc8aW5maWxlLm1hZT4nLCAnLW9tYWUnLCAnPG91dGZpbGUubWFlPic=

>  <r_lp_tautomer_probability>  (151) 
1

>  <r_epik_Ionization_Penalty>  (151) 
8.64057e-07

>  <r_epik_Ionization_Penalty_Charging>  (151) 
0

>  <r_epik_Ionization_Penalty_Neutral>  (151) 
8.64057e-07

>  <r_epik_State_Penalty>  (151) 
-0

>  <r_epik_Charging_Adjusted_Penalty>  (151) 
0

>  <i_epik_Tot_Q>  (151) 
0

>  <i_epik_Tot_abs_Q>  (151) 
0

>  <s_lp_Force_Field>  (151) 
OPLS3e

>  <r_lp_Energy>  (151) 
99.3436

>  <b_lp_Chiralities_Consistent>  (151) 
1

>  <s_lp_Variant>  (151) 
46:0-1

>  <s_i_glide_gridfile>  (151) 
pfpi4k_grid

>  <i_i_glide_lignum>  (151) 
23

>  <i_i_glide_rotatable_bonds>  (151) 
4

>  <r_i_docking_score>  (151) 
-3.43544

>  <r_i_glide_ligand_efficiency>  (151) 
-0.132132

>  <r_i_glide_ligand_efficiency_sa>  (151) 
-0.391441

>  <r_i_glide_ligand_efficiency_ln>  (151) 
-0.806801

>  <r_i_glide_gscore>  (151) 
-3.43544

>  <r_i_glide_lipo>  (151) 
-0.203506

>  <r_i_glide_hbond>  (151) 
-0.175656

>  <r_i_glide_metal>  (151) 
-0

>  <r_i_glide_rewards>  (151) 
-0.910578

>  <r_i_glide_evdw>  (151) 
-25.1057

>  <r_i_glide_ecoul>  (151) 
-5.59837

>  <r_i_glide_erotb>  (151) 
0

>  <r_i_glide_esite>  (151) 
-0.0506554

>  <r_i_glide_emodel>  (151) 
-37.7827

>  <r_i_glide_energy>  (151) 
-30.7041

>  <r_i_glide_einternal>  (151) 
0.446065

>  <r_i_glide_intrahb_reward>  (151) 
-0

>  <i_i_glide_confnum>  (151) 
2

>  <i_i_glide_posenum>  (151) 
8

>  <r_i_glide_eff_state_penalty>  (151) 
0

>  <ligand_id>  (151) 
46

>  <original_smiles>  (151) 
CC12CC(O)C(O)C1(C)C(O)CC1(C)C3C(=O)CCC4OC41C(O)CC32

>  <smiles>  (151) 
[H]OC1([H])C([H])([H])C2(C([H])([H])[H])C3([H])C([H])([H])C([H])(O[H])C45OC4([H])C([H])([H])C([H])([H])C(=O)C3([H])C5(C([H])([H])[H])C([H])([H])C([H])(O[H])C2(C([H])([H])[H])C1([H])O[H]

$$$$
46:0:1
     RDKit          3D

 56 60  0  0  1  0  0  0  0  0999 V2000
    2.6894   -3.4394   -0.9518 C   0  0  0  0  0  0  0  0  0  0  0  0
    4.1723   -3.7389   -0.5101 C   0  0  1  0  0  0  0  0  0  0  0  0
    4.8931   -3.8591   -1.8749 C   0  0  0  0  0  0  0  0  0  0  0  0
    5.2684   -2.4246   -2.2945 C   0  0  1  0  0  0  0  0  0  0  0  0
    4.5918   -2.0112   -3.4699 O   0  0  0  0  0  0  0  0  0  0  0  0
    5.0150   -1.5318   -1.0483 C   0  0  1  0  0  0  0  0  0  0  0  0
    3.8364   -0.7754   -1.1774 O   0  0  0  0  0  0  0  0  0  0  0  0
    4.9650   -2.5430    0.1325 C   0  0  2  0  0  0  0  0  0  0  0  0
    6.4963   -2.7979    0.3684 C   0  0  0  0  0  0  0  0  0  0  0  0
    4.4081   -2.0402    1.5113 C   0  0  1  0  0  0  0  0  0  0  0  0
    3.0719   -1.5937    1.4990 O   0  0  0  0  0  0  0  0  0  0  0  0
    4.6072   -2.9999    2.7315 C   0  0  0  0  0  0  0  0  0  0  0  0
    3.7664   -4.3342    2.8671 C   0  0  1  0  0  0  0  0  0  0  0  0
    2.6309   -3.9655    3.8738 C   0  0  0  0  0  0  0  0  0  0  0  0
    3.0985   -4.8876    1.5663 C   0  0  2  0  0  0  0  0  0  0  0  0
    2.2405   -6.1851    1.7587 C   0  0  0  0  0  0  0  0  0  0  0  0
    1.0136   -6.1009    1.6912 O   0  0  0  0  0  0  0  0  0  0  0  0
    2.8990   -7.5761    1.9797 C   0  0  0  0  0  0  0  0  0  0  0  0
    3.6545   -7.8315    3.3251 C   0  0  0  0  0  0  0  0  0  0  0  0
    3.8625   -6.5546    4.1087 C   0  0  1  0  0  0  0  0  0  0  0  0
    5.0511   -5.8782    4.5983 O   0  0  0  0  0  0  0  0  0  0  0  0
    4.6302   -5.5371    3.2833 C   0  0  2  0  0  0  0  0  0  0  0  0
    5.7873   -5.7981    2.2881 C   0  0  1  0  0  0  0  0  0  0  0  0
    6.4796   -7.0119    2.5186 O   0  0  0  0  0  0  0  0  0  0  0  0
    5.3955   -5.7937    0.7787 C   0  0  0  0  0  0  0  0  0  0  0  0
    4.0939   -5.0351    0.3770 C   0  0  2  0  0  0  0  0  0  0  0  0
    2.1488   -4.3500   -1.1966 H   0  0  0  0  0  0  0  0  0  0  0  0
    2.6062   -2.8377   -1.8528 H   0  0  0  0  0  0  0  0  0  0  0  0
    2.0810   -2.9275   -0.2194 H   0  0  0  0  0  0  0  0  0  0  0  0
    5.7926   -4.4606   -1.7846 H   0  0  0  0  0  0  0  0  0  0  0  0
    4.2818   -4.3270   -2.6440 H   0  0  0  0  0  0  0  0  0  0  0  0
    6.3299   -2.4272   -2.5419 H   0  0  0  0  0  0  0  0  0  0  0  0
    3.6714   -1.9197   -3.2740 H   0  0  0  0  0  0  0  0  0  0  0  0
    5.8185   -0.8041   -0.9330 H   0  0  0  0  0  0  0  0  0  0  0  0
    3.0827   -1.3518   -1.1930 H   0  0  0  0  0  0  0  0  0  0  0  0
    6.9847   -1.8849    0.7121 H   0  0  0  0  0  0  0  0  0  0  0  0
    7.0469   -3.1147   -0.5170 H   0  0  0  0  0  0  0  0  0  0  0  0
    6.7282   -3.5391    1.1129 H   0  0  0  0  0  0  0  0  0  0  0  0
    4.9796   -1.1433    1.7497 H   0  0  0  0  0  0  0  0  0  0  0  0
    2.9450   -1.0283    0.7468 H   0  0  0  0  0  0  0  0  0  0  0  0
    5.6641   -3.1901    2.8847 H   0  0  0  0  0  0  0  0  0  0  0  0
    4.4115   -2.3927    3.6180 H   0  0  0  0  0  0  0  0  0  0  0  0
    1.8379   -4.7094    3.9629 H   0  0  0  0  0  0  0  0  0  0  0  0
    2.1220   -3.0539    3.5529 H   0  0  0  0  0  0  0  0  0  0  0  0
    3.0228   -3.7785    4.8762 H   0  0  0  0  0  0  0  0  0  0  0  0
    2.3444   -4.1462    1.3290 H   0  0  0  0  0  0  0  0  0  0  0  0
    2.1171   -8.3296    1.8775 H   0  0  0  0  0  0  0  0  0  0  0  0
    3.5695   -7.7766    1.1476 H   0  0  0  0  0  0  0  0  0  0  0  0
    3.0615   -8.5051    3.9434 H   0  0  0  0  0  0  0  0  0  0  0  0
    4.5904   -8.3612    3.1668 H   0  0  0  0  0  0  0  0  0  0  0  0
    3.0056   -6.3037    4.7225 H   0  0  0  0  0  0  0  0  0  0  0  0
    6.5497   -5.0559    2.4898 H   0  0  0  0  0  0  0  0  0  0  0  0
    7.2775   -7.0185    2.0103 H   0  0  0  0  0  0  0  0  0  0  0  0
    6.2463   -5.4779    0.1801 H   0  0  0  0  0  0  0  0  0  0  0  0
    5.2642   -6.8282    0.4630 H   0  0  0  0  0  0  0  0  0  0  0  0
    3.6268   -5.7397   -0.3126 H   0  0  0  0  0  0  0  0  0  0  0  0
  2  1  1  6
  1 27  1  0
  1 28  1  0
  1 29  1  0
  2  8  1  0
  2 26  1  0
  2  3  1  0
  3  4  1  0
  3 30  1  0
  3 31  1  0
  4  5  1  0
  4  6  1  0
  4 32  1  6
  5 33  1  0
  6  7  1  0
  6  8  1  0
  6 34  1  1
  7 35  1  0
  8  9  1  1
  8 10  1  0
  9 36  1  0
  9 37  1  0
  9 38  1  0
 10 11  1  0
 10 12  1  0
 10 39  1  1
 11 40  1  0
 12 13  1  0
 12 41  1  0
 12 42  1  0
 13 22  1  0
 13 14  1  1
 13 15  1  0
 14 43  1  0
 14 44  1  0
 14 45  1  0
 15 26  1  0
 15 16  1  0
 15 46  1  6
 16 17  2  0
 16 18  1  0
 18 19  1  0
 18 47  1  0
 18 48  1  0
 19 20  1  0
 19 49  1  0
 19 50  1  0
 20 22  1  0
 20 21  1  0
 20 51  1  1
 22 21  1  1
 22 23  1  0
 23 24  1  0
 23 25  1  0
 23 52  1  6
 24 53  1  0
 25 26  1  0
 25 54  1  0
 25 55  1  0
 26 56  1  6
M  END
>  <i_m_ct_stereo_status>  (152) 
1

>  <s_m_source_file>  (152) 
/var/tmp/pbs.5076255.sched01/tmp8yzwbncg/40d_vk9m1l.sdf

>  <i_m_source_file_index>  (152) 
23

>  <i_lp_mmshare_version>  (152) 
48012

>  <i_f3d_flags>  (152) 
0

>  <s_epik_input>  (152) 
W0NIMl0xW0NAQEhdKFtPSF0pW0NAQEhdKFtPSF0pW0NAQF0oW0NIM10pKFtDQEBIXShbT0hdKVtDSDJdMilbQ0BdMShbQ0gzXSlbQ0BASF0oW0NIMl1bQ0BASF0zW09IXSlbQ0BIXShbQ0BdMihbQ0BdMzQ1KVtDSDNdKUMoPU8pW0NIMl1bQ0gyXVtDQEhdNE81

>  <s_epik_cmdline>  (152) 
J2VwaWtfcHl0aG9uJywgJy1waHQnLCAnMi4wJywgJy1waCcsICc3LjAnLCAnLXRuJywgJzgnLCAnLW1hJywgJzIwMCcsICctaW1hZScsICc8aW5maWxlLm1hZT4nLCAnLW9tYWUnLCAnPG91dGZpbGUubWFlPic=

>  <r_lp_tautomer_probability>  (152) 
1

>  <r_epik_Ionization_Penalty>  (152) 
8.64057e-07

>  <r_epik_Ionization_Penalty_Charging>  (152) 
0

>  <r_epik_Ionization_Penalty_Neutral>  (152) 
8.64057e-07

>  <r_epik_State_Penalty>  (152) 
-0

>  <r_epik_Charging_Adjusted_Penalty>  (152) 
0

>  <i_epik_Tot_Q>  (152) 
0

>  <i_epik_Tot_abs_Q>  (152) 
0

>  <s_lp_Force_Field>  (152) 
OPLS3e

>  <r_lp_Energy>  (152) 
99.3436

>  <b_lp_Chiralities_Consistent>  (152) 
1

>  <s_lp_Variant>  (152) 
46:0-1

>  <s_i_glide_gridfile>  (152) 
pfpi4k_grid

>  <i_i_glide_lignum>  (152) 
23

>  <i_i_glide_rotatable_bonds>  (152) 
4

>  <r_i_docking_score>  (152) 
-3.39255

>  <r_i_glide_ligand_efficiency>  (152) 
-0.130483

>  <r_i_glide_ligand_efficiency_sa>  (152) 
-0.386555

>  <r_i_glide_ligand_efficiency_ln>  (152) 
-0.796729

>  <r_i_glide_gscore>  (152) 
-3.39255

>  <r_i_glide_lipo>  (152) 
-0.370939

>  <r_i_glide_hbond>  (152) 
-0.140461

>  <r_i_glide_metal>  (152) 
-0

>  <r_i_glide_rewards>  (152) 
-0.910578

>  <r_i_glide_evdw>  (152) 
-23.5229

>  <r_i_glide_ecoul>  (152) 
-5.17637

>  <r_i_glide_erotb>  (152) 
0

>  <r_i_glide_esite>  (152) 
-0.0179725

>  <r_i_glide_emodel>  (152) 
-35.3398

>  <r_i_glide_energy>  (152) 
-28.6993

>  <r_i_glide_einternal>  (152) 
0.984568

>  <r_i_glide_intrahb_reward>  (152) 
-0

>  <i_i_glide_confnum>  (152) 
2

>  <i_i_glide_posenum>  (152) 
1

>  <r_i_glide_eff_state_penalty>  (152) 
0

>  <ligand_id>  (152) 
46

>  <original_smiles>  (152) 
CC12CC(O)C(O)C1(C)C(O)CC1(C)C3C(=O)CCC4OC41C(O)CC32

>  <smiles>  (152) 
[H]OC1([H])C([H])([H])C2(C([H])([H])[H])C3([H])C([H])([H])C([H])(O[H])C45OC4([H])C([H])([H])C([H])([H])C(=O)C3([H])C5(C([H])([H])[H])C([H])([H])C([H])(O[H])C2(C([H])([H])[H])C1([H])O[H]

$$$$
46:0:2
     RDKit          3D

 56 60  0  0  1  0  0  0  0  0999 V2000
    2.6410   -3.7032   -1.0809 C   0  0  0  0  0  0  0  0  0  0  0  0
    4.1973   -3.6437   -0.8324 C   0  0  1  0  0  0  0  0  0  0  0  0
    4.8115   -3.8625   -2.2417 C   0  0  0  0  0  0  0  0  0  0  0  0
    4.8203   -2.4955   -2.9400 C   0  0  1  0  0  0  0  0  0  0  0  0
    3.9635   -2.4684   -4.0698 O   0  0  0  0  0  0  0  0  0  0  0  0
    4.4756   -1.4683   -1.8379 C   0  0  1  0  0  0  0  0  0  0  0  0
    3.1449   -1.0528   -2.0307 O   0  0  0  0  0  0  0  0  0  0  0  0
    4.7636   -2.2233   -0.5039 C   0  0  2  0  0  0  0  0  0  0  0  0
    6.3336   -2.1295   -0.4311 C   0  0  0  0  0  0  0  0  0  0  0  0
    4.2667   -1.5967    0.8507 C   0  0  1  0  0  0  0  0  0  0  0  0
    2.8752   -1.4309    0.9886 O   0  0  0  0  0  0  0  0  0  0  0  0
    4.7948   -2.2755    2.1633 C   0  0  0  0  0  0  0  0  0  0  0  0
    4.2761   -3.7057    2.6157 C   0  0  1  0  0  0  0  0  0  0  0  0
    3.1994   -3.3907    3.7006 C   0  0  0  0  0  0  0  0  0  0  0  0
    3.6152   -4.6024    1.5197 C   0  0  2  0  0  0  0  0  0  0  0  0
    3.0854   -5.9867    2.0229 C   0  0  0  0  0  0  0  0  0  0  0  0
    1.8709   -6.1505    2.1214 O   0  0  0  0  0  0  0  0  0  0  0  0
    4.0504   -7.1613    2.3640 C   0  0  0  0  0  0  0  0  0  0  0  0
    4.9660   -7.0286    3.6228 C   0  0  0  0  0  0  0  0  0  0  0  0
    4.9556   -5.6168    4.1597 C   0  0  1  0  0  0  0  0  0  0  0  0
    6.0056   -4.6644    4.3941 O   0  0  0  0  0  0  0  0  0  0  0  0
    5.4080   -4.6356    3.1043 C   0  0  2  0  0  0  0  0  0  0  0  0
    6.4817   -4.8359    2.0015 C   0  0  1  0  0  0  0  0  0  0  0  0
    7.4836   -5.7887    2.3057 O   0  0  0  0  0  0  0  0  0  0  0  0
    5.9570   -5.1720    0.5786 C   0  0  0  0  0  0  0  0  0  0  0  0
    4.4930   -4.7537    0.2427 C   0  0  2  0  0  0  0  0  0  0  0  0
    2.2640   -4.7168   -1.0315 H   0  0  0  0  0  0  0  0  0  0  0  0
    2.3397   -3.3665   -2.0662 H   0  0  0  0  0  0  0  0  0  0  0  0
    2.0215   -3.1568   -0.3818 H   0  0  0  0  0  0  0  0  0  0  0  0
    5.8269   -4.2465   -2.1790 H   0  0  0  0  0  0  0  0  0  0  0  0
    4.2800   -4.5808   -2.8554 H   0  0  0  0  0  0  0  0  0  0  0  0
    5.8226   -2.3305   -3.3084 H   0  0  0  0  0  0  0  0  0  0  0  0
    3.0677   -2.4786   -3.7543 H   0  0  0  0  0  0  0  0  0  0  0  0
    5.0918   -0.5730   -1.9374 H   0  0  0  0  0  0  0  0  0  0  0  0
    2.5266   -1.6153   -1.5792 H   0  0  0  0  0  0  0  0  0  0  0  0
    6.6407   -1.0942   -0.2923 H   0  0  0  0  0  0  0  0  0  0  0  0
    6.8579   -2.4810   -1.3182 H   0  0  0  0  0  0  0  0  0  0  0  0
    6.7990   -2.6647    0.3781 H   0  0  0  0  0  0  0  0  0  0  0  0
    4.6553   -0.5778    0.8663 H   0  0  0  0  0  0  0  0  0  0  0  0
    2.4966   -1.0221    0.2164 H   0  0  0  0  0  0  0  0  0  0  0  0
    5.8791   -2.2224    2.2076 H   0  0  0  0  0  0  0  0  0  0  0  0
    4.5586   -1.5711    2.9668 H   0  0  0  0  0  0  0  0  0  0  0  0
    2.5981   -4.2461    4.0116 H   0  0  0  0  0  0  0  0  0  0  0  0
    2.4740   -2.6677    3.3193 H   0  0  0  0  0  0  0  0  0  0  0  0
    3.6422   -2.9561    4.6020 H   0  0  0  0  0  0  0  0  0  0  0  0
    2.6984   -4.0780    1.2794 H   0  0  0  0  0  0  0  0  0  0  0  0
    3.4425   -8.0593    2.4855 H   0  0  0  0  0  0  0  0  0  0  0  0
    4.6641   -7.3716    1.4881 H   0  0  0  0  0  0  0  0  0  0  0  0
    4.5978   -7.6774    4.4138 H   0  0  0  0  0  0  0  0  0  0  0  0
    5.9778   -7.3682    3.4343 H   0  0  0  0  0  0  0  0  0  0  0  0
    4.1292   -5.4393    4.8419 H   0  0  0  0  0  0  0  0  0  0  0  0
    7.0624   -3.9267    1.9676 H   0  0  0  0  0  0  0  0  0  0  0  0
    7.0744   -6.6341    2.4271 H   0  0  0  0  0  0  0  0  0  0  0  0
    6.6572   -4.7849   -0.1581 H   0  0  0  0  0  0  0  0  0  0  0  0
    6.0295   -6.2483    0.4282 H   0  0  0  0  0  0  0  0  0  0  0  0
    4.1210   -5.6461   -0.2638 H   0  0  0  0  0  0  0  0  0  0  0  0
  2  1  1  6
  1 27  1  0
  1 28  1  0
  1 29  1  0
  2  8  1  0
  2 26  1  0
  2  3  1  0
  3  4  1  0
  3 30  1  0
  3 31  1  0
  4  5  1  0
  4  6  1  0
  4 32  1  6
  5 33  1  0
  6  7  1  0
  6  8  1  0
  6 34  1  6
  7 35  1  0
  8  9  1  1
  8 10  1  0
  9 36  1  0
  9 37  1  0
  9 38  1  0
 10 11  1  0
 10 12  1  0
 10 39  1  1
 11 40  1  0
 12 13  1  0
 12 41  1  0
 12 42  1  0
 13 22  1  0
 13 14  1  1
 13 15  1  0
 14 43  1  0
 14 44  1  0
 14 45  1  0
 15 26  1  0
 15 16  1  0
 15 46  1  6
 16 17  2  0
 16 18  1  0
 18 19  1  0
 18 47  1  0
 18 48  1  0
 19 20  1  0
 19 49  1  0
 19 50  1  0
 20 22  1  0
 20 21  1  0
 20 51  1  1
 22 21  1  1
 22 23  1  0
 23 24  1  0
 23 25  1  0
 23 52  1  6
 24 53  1  0
 25 26  1  0
 25 54  1  0
 25 55  1  0
 26 56  1  6
M  END
>  <i_m_ct_stereo_status>  (153) 
1

>  <s_m_source_file>  (153) 
/var/tmp/pbs.5076255.sched01/tmp8yzwbncg/40d_vk9m1l.sdf

>  <i_m_source_file_index>  (153) 
23

>  <i_lp_mmshare_version>  (153) 
48012

>  <i_f3d_flags>  (153) 
0

>  <s_epik_input>  (153) 
W0NIMl0xW0NAQEhdKFtPSF0pW0NAQEhdKFtPSF0pW0NAQF0oW0NIM10pKFtDQEBIXShbT0hdKVtDSDJdMilbQ0BdMShbQ0gzXSlbQ0BASF0oW0NIMl1bQ0BASF0zW09IXSlbQ0BIXShbQ0BdMihbQ0BdMzQ1KVtDSDNdKUMoPU8pW0NIMl1bQ0gyXVtDQEhdNE81

>  <s_epik_cmdline>  (153) 
J2VwaWtfcHl0aG9uJywgJy1waHQnLCAnMi4wJywgJy1waCcsICc3LjAnLCAnLXRuJywgJzgnLCAnLW1hJywgJzIwMCcsICctaW1hZScsICc8aW5maWxlLm1hZT4nLCAnLW9tYWUnLCAnPG91dGZpbGUubWFlPic=

>  <r_lp_tautomer_probability>  (153) 
1

>  <r_epik_Ionization_Penalty>  (153) 
8.64057e-07

>  <r_epik_Ionization_Penalty_Charging>  (153) 
0

>  <r_epik_Ionization_Penalty_Neutral>  (153) 
8.64057e-07

>  <r_epik_State_Penalty>  (153) 
-0

>  <r_epik_Charging_Adjusted_Penalty>  (153) 
0

>  <i_epik_Tot_Q>  (153) 
0

>  <i_epik_Tot_abs_Q>  (153) 
0

>  <s_lp_Force_Field>  (153) 
OPLS3e

>  <r_lp_Energy>  (153) 
99.3436

>  <b_lp_Chiralities_Consistent>  (153) 
1

>  <s_lp_Variant>  (153) 
46:0-1

>  <s_i_glide_gridfile>  (153) 
pfpi4k_grid

>  <i_i_glide_lignum>  (153) 
23

>  <i_i_glide_rotatable_bonds>  (153) 
4

>  <r_i_docking_score>  (153) 
-3.35325

>  <r_i_glide_ligand_efficiency>  (153) 
-0.128971

>  <r_i_glide_ligand_efficiency_sa>  (153) 
-0.382077

>  <r_i_glide_ligand_efficiency_ln>  (153) 
-0.787501

>  <r_i_glide_gscore>  (153) 
-3.35325

>  <r_i_glide_lipo>  (153) 
-0.382203

>  <r_i_glide_hbond>  (153) 
0

>  <r_i_glide_metal>  (153) 
-0

>  <r_i_glide_rewards>  (153) 
-0.924483

>  <r_i_glide_evdw>  (153) 
-21.0247

>  <r_i_glide_ecoul>  (153) 
-6.63555

>  <r_i_glide_erotb>  (153) 
0

>  <r_i_glide_esite>  (153) 
0

>  <r_i_glide_emodel>  (153) 
-33.4042

>  <r_i_glide_energy>  (153) 
-27.6603

>  <r_i_glide_einternal>  (153) 
0.899154

>  <r_i_glide_intrahb_reward>  (153) 
-0

>  <i_i_glide_confnum>  (153) 
1

>  <i_i_glide_posenum>  (153) 
38

>  <r_i_glide_eff_state_penalty>  (153) 
0

>  <ligand_id>  (153) 
46

>  <original_smiles>  (153) 
CC12CC(O)C(O)C1(C)C(O)CC1(C)C3C(=O)CCC4OC41C(O)CC32

>  <smiles>  (153) 
[H]OC1([H])C([H])([H])C2(C([H])([H])[H])C3([H])C([H])([H])C([H])(O[H])C45OC4([H])C([H])([H])C([H])([H])C(=O)C3([H])C5(C([H])([H])[H])C([H])([H])C([H])(O[H])C2(C([H])([H])[H])C1([H])O[H]

$$$$
47:0:0
     RDKit          3D

 63 66  0  0  1  0  0  0  0  0999 V2000
    4.6264   -1.0586   -2.2582 C   0  0  0  0  0  0  0  0  0  0  0  0
    3.8462   -2.3613   -2.3350 C   0  0  0  0  0  0  0  0  0  0  0  0
    2.9416   -2.4260   -3.5510 C   0  0  0  0  0  0  0  0  0  0  0  0
    3.8728   -3.3862   -1.4491 C   0  0  0  0  0  0  0  0  0  0  0  0
    4.6482   -3.4744   -0.1929 C   0  0  0  0  0  0  0  0  0  0  0  0
    5.4070   -2.6100    0.2425 O   0  0  0  0  0  0  0  0  0  0  0  0
    4.3889   -4.6452    0.4383 O   0  0  0  0  0  0  0  0  0  0  0  0
    4.8490   -4.9052    1.7678 C   0  0  2  0  0  0  0  0  0  0  0  0
    5.9461   -6.0063    1.7528 C   0  0  0  0  0  0  0  0  0  0  0  0
    5.5592   -7.5113    1.8301 C   0  0  2  0  0  0  0  0  0  0  0  0
    4.1993   -7.7814    1.2001 C   0  0  1  0  0  0  0  0  0  0  0  0
    4.2133   -9.0224    0.5072 O   0  0  0  0  0  0  0  0  0  0  0  0
    3.1957   -7.6187    2.3979 C   0  0  2  0  0  0  0  0  0  0  0  0
    4.0391   -7.7761    3.5504 O   0  0  0  0  0  0  0  0  0  0  0  0
    5.3895   -8.1041    3.2449 C   0  0  0  0  0  0  0  0  0  0  0  0
    5.5776   -9.6428    3.2835 C   0  0  0  0  0  0  0  0  0  0  0  0
    6.3001   -7.5254    4.3491 C   0  0  0  0  0  0  0  0  0  0  0  0
    2.1086   -8.7264    2.4806 C   0  0  0  0  0  0  0  0  0  0  0  0
    2.4171   -9.9144    2.5356 O   0  0  0  0  0  0  0  0  0  0  0  0
    0.6290   -8.3289    2.5718 C   0  0  0  0  0  0  0  0  0  0  0  0
    0.3255   -7.0856    3.3987 C   0  0  2  0  0  0  0  0  0  0  0  0
    1.3504   -5.9877    3.3779 C   0  0  1  0  0  0  0  0  0  0  0  0
    0.9637   -6.6302    4.7129 C   0  0  0  0  0  0  0  0  0  0  0  0
    0.1239   -5.7754    5.6513 C   0  0  0  0  0  0  0  0  0  0  0  0
    1.8322   -7.5411    5.5721 C   0  0  0  0  0  0  0  0  0  0  0  0
    2.5836   -6.1636    2.4666 C   0  0  2  0  0  0  0  0  0  0  0  0
    1.9847   -5.8788    1.2030 O   0  0  0  0  0  0  0  0  0  0  0  0
    3.6122   -5.0019    2.7152 C   0  0  1  0  0  0  0  0  0  0  0  0
    3.9693   -4.7641    4.1978 C   0  0  0  0  0  0  0  0  0  0  0  0
    4.9908   -0.7957   -3.2505 H   0  0  0  0  0  0  0  0  0  0  0  0
    5.4939   -1.0908   -1.6087 H   0  0  0  0  0  0  0  0  0  0  0  0
    3.9675   -0.2621   -1.9188 H   0  0  0  0  0  0  0  0  0  0  0  0
    2.2398   -1.5934   -3.5325 H   0  0  0  0  0  0  0  0  0  0  0  0
    2.3602   -3.3478   -3.5914 H   0  0  0  0  0  0  0  0  0  0  0  0
    3.5205   -2.3491   -4.4703 H   0  0  0  0  0  0  0  0  0  0  0  0
    3.2483   -4.2410   -1.6571 H   0  0  0  0  0  0  0  0  0  0  0  0
    5.3765   -4.0131    2.1059 H   0  0  0  0  0  0  0  0  0  0  0  0
    6.4934   -5.8705    0.8194 H   0  0  0  0  0  0  0  0  0  0  0  0
    6.6965   -5.7608    2.4999 H   0  0  0  0  0  0  0  0  0  0  0  0
    6.3468   -8.0581    1.3112 H   0  0  0  0  0  0  0  0  0  0  0  0
    4.0065   -7.0784    0.3974 H   0  0  0  0  0  0  0  0  0  0  0  0
    4.2011   -9.7381    1.1260 H   0  0  0  0  0  0  0  0  0  0  0  0
    6.6119   -9.9135    3.0750 H   0  0  0  0  0  0  0  0  0  0  0  0
    4.9647  -10.1904    2.5736 H   0  0  0  0  0  0  0  0  0  0  0  0
    5.3293  -10.0418    4.2682 H   0  0  0  0  0  0  0  0  0  0  0  0
    7.3494   -7.7426    4.1501 H   0  0  0  0  0  0  0  0  0  0  0  0
    6.0484   -7.9652    5.3156 H   0  0  0  0  0  0  0  0  0  0  0  0
    6.2047   -6.4497    4.4701 H   0  0  0  0  0  0  0  0  0  0  0  0
    0.2784   -8.1577    1.5532 H   0  0  0  0  0  0  0  0  0  0  0  0
    0.0476   -9.1647    2.9618 H   0  0  0  0  0  0  0  0  0  0  0  0
   -0.7077   -6.7753    3.2737 H   0  0  0  0  0  0  0  0  0  0  0  0
    0.9463   -4.9830    3.2723 H   0  0  0  0  0  0  0  0  0  0  0  0
    0.7635   -5.1504    6.2730 H   0  0  0  0  0  0  0  0  0  0  0  0
   -0.4846   -6.4056    6.2976 H   0  0  0  0  0  0  0  0  0  0  0  0
   -0.5447   -5.1298    5.0871 H   0  0  0  0  0  0  0  0  0  0  0  0
    2.6490   -6.9757    6.0228 H   0  0  0  0  0  0  0  0  0  0  0  0
    2.2461   -8.3838    5.0266 H   0  0  0  0  0  0  0  0  0  0  0  0
    1.2351   -7.9774    6.3754 H   0  0  0  0  0  0  0  0  0  0  0  0
    2.6604   -5.8934    0.5383 H   0  0  0  0  0  0  0  0  0  0  0  0
    3.0641   -4.0855    2.4756 H   0  0  0  0  0  0  0  0  0  0  0  0
    4.2209   -5.6761    4.7275 H   0  0  0  0  0  0  0  0  0  0  0  0
    3.1249   -4.3255    4.7309 H   0  0  0  0  0  0  0  0  0  0  0  0
    4.8037   -4.0690    4.3028 H   0  0  0  0  0  0  0  0  0  0  0  0
  1  2  1  0
  1 30  1  0
  1 31  1  0
  1 32  1  0
  2  3  1  0
  2  4  2  3
  3 33  1  0
  3 34  1  0
  3 35  1  0
  4  5  1  0
  4 36  1  0
  5  6  2  0
  5  7  1  0
  7  8  1  0
  8 28  1  0
  8  9  1  0
  8 37  1  1
  9 10  1  0
  9 38  1  0
  9 39  1  0
 10 15  1  0
 10 11  1  0
 10 40  1  6
 11 12  1  0
 11 13  1  0
 11 41  1  6
 12 42  1  0
 13 26  1  0
 13 14  1  1
 13 18  1  0
 14 15  1  0
 15 16  1  0
 15 17  1  0
 16 43  1  0
 16 44  1  0
 16 45  1  0
 17 46  1  0
 17 47  1  0
 17 48  1  0
 18 19  2  0
 18 20  1  0
 20 21  1  0
 20 49  1  0
 20 50  1  0
 21 23  1  0
 21 22  1  0
 21 51  1  1
 22 23  1  0
 22 26  1  0
 22 52  1  1
 23 24  1  0
 23 25  1  0
 24 53  1  0
 24 54  1  0
 24 55  1  0
 25 56  1  0
 25 57  1  0
 25 58  1  0
 26 27  1  6
 26 28  1  0
 27 59  1  0
 28 29  1  0
 28 60  1  6
 29 61  1  0
 29 62  1  0
 29 63  1  0
M  END
>  <i_m_ct_stereo_status>  (154) 
1

>  <s_m_source_file>  (154) 
/var/tmp/pbs.5076255.sched01/tmp8yzwbncg/40d_vk9m1l.sdf

>  <i_m_source_file_index>  (154) 
24

>  <i_lp_mmshare_version>  (154) 
48012

>  <i_f3d_flags>  (154) 
0

>  <s_epik_input>  (154) 
W0NIM11DKFtDSDNdKT1bQ0hdQyg9TylPW0NASF0oW0NIMl1bQ0BIXShbQ0BIXTFbT0hdKUMoTzIpKFtDSDNdKVtDSDNdKVtDQEhdKFtDSDNdKVtDQF0oW0NAQF0xMjMpKFtPSF0pW0NASF00W0NAQEhdKFtDSDJdQzM9TylDNChbQ0gzXSlbQ0gzXQ==

>  <s_epik_cmdline>  (154) 
J2VwaWtfcHl0aG9uJywgJy1waHQnLCAnMi4wJywgJy1waCcsICc3LjAnLCAnLXRuJywgJzgnLCAnLW1hJywgJzIwMCcsICctaW1hZScsICc8aW5maWxlLm1hZT4nLCAnLW9tYWUnLCAnPG91dGZpbGUubWFlPic=

>  <r_lp_tautomer_probability>  (154) 
1

>  <r_epik_Ionization_Penalty>  (154) 
1.52692e-07

>  <r_epik_Ionization_Penalty_Charging>  (154) 
0

>  <r_epik_Ionization_Penalty_Neutral>  (154) 
1.52692e-07

>  <r_epik_State_Penalty>  (154) 
-0

>  <r_epik_Charging_Adjusted_Penalty>  (154) 
0

>  <i_epik_Tot_Q>  (154) 
0

>  <i_epik_Tot_abs_Q>  (154) 
0

>  <s_epik_Chemistry_Notes>  (154) 
This compound has an ester and may undergo hydrolysis at high or low pH.

>  <s_lp_Force_Field>  (154) 
OPLS3e

>  <r_lp_Energy>  (154) 
44.0298

>  <b_lp_Chiralities_Consistent>  (154) 
1

>  <s_lp_Variant>  (154) 
47:0-1

>  <s_i_glide_gridfile>  (154) 
pfpi4k_grid

>  <i_i_glide_lignum>  (154) 
24

>  <i_i_glide_rotatable_bonds>  (154) 
5

>  <r_i_docking_score>  (154) 
-3.26101

>  <r_i_glide_ligand_efficiency>  (154) 
-0.112449

>  <r_i_glide_ligand_efficiency_sa>  (154) 
-0.345478

>  <r_i_glide_ligand_efficiency_ln>  (154) 
-0.746689

>  <r_i_glide_gscore>  (154) 
-3.26101

>  <r_i_glide_lipo>  (154) 
-0.425239

>  <r_i_glide_hbond>  (154) 
0

>  <r_i_glide_metal>  (154) 
-0

>  <r_i_glide_rewards>  (154) 
-1.1884

>  <r_i_glide_evdw>  (154) 
-30.6962

>  <r_i_glide_ecoul>  (154) 
-3.12092

>  <r_i_glide_erotb>  (154) 
0.356963

>  <r_i_glide_esite>  (154) 
-0.00138016

>  <r_i_glide_emodel>  (154) 
-45.8215

>  <r_i_glide_energy>  (154) 
-33.8171

>  <r_i_glide_einternal>  (154) 
1.21391

>  <r_i_glide_intrahb_reward>  (154) 
-0.5

>  <i_i_glide_confnum>  (154) 
5

>  <i_i_glide_posenum>  (154) 
18

>  <r_i_glide_eff_state_penalty>  (154) 
0

>  <ligand_id>  (154) 
47

>  <original_smiles>  (154) 
CC(C)=CC(=O)OC1CC2C(O)C3(OC2(C)C)C(=O)CC2C(C2(C)C)C3(O)C1C

>  <smiles>  (154) 
[H]OC1([H])C23OC(C([H])([H])[H])(C([H])([H])[H])C1([H])C([H])([H])C([H])(OC(=O)C([H])=C(C([H])([H])[H])C([H])([H])[H])C([H])(C([H])([H])[H])C2(O[H])C1([H])C([H])(C([H])([H])C3=O)C1(C([H])([H])[H])C([H])([H])[H]

$$$$
47:0:1
     RDKit          3D

 63 66  0  0  1  0  0  0  0  0999 V2000
    6.2116   -2.8195   -2.1235 C   0  0  0  0  0  0  0  0  0  0  0  0
    4.8018   -3.3759   -2.0145 C   0  0  0  0  0  0  0  0  0  0  0  0
    3.9411   -3.0616   -3.2264 C   0  0  0  0  0  0  0  0  0  0  0  0
    4.2844   -4.0748   -0.9728 C   0  0  0  0  0  0  0  0  0  0  0  0
    4.9532   -4.4275    0.2958 C   0  0  0  0  0  0  0  0  0  0  0  0
    6.0849   -4.0752    0.6332 O   0  0  0  0  0  0  0  0  0  0  0  0
    4.1438   -5.1980    1.0660 O   0  0  0  0  0  0  0  0  0  0  0  0
    4.5532   -5.6327    2.3684 C   0  0  2  0  0  0  0  0  0  0  0  0
    5.3915   -6.9435    2.2721 C   0  0  0  0  0  0  0  0  0  0  0  0
    4.6900   -8.3314    2.2726 C   0  0  2  0  0  0  0  0  0  0  0  0
    3.2893   -8.2734    1.6739 C   0  0  1  0  0  0  0  0  0  0  0  0
    3.0316   -9.4365    0.8995 O   0  0  0  0  0  0  0  0  0  0  0  0
    2.3680   -7.9740    2.9095 C   0  0  2  0  0  0  0  0  0  0  0  0
    3.1833   -8.3705    4.0243 O   0  0  0  0  0  0  0  0  0  0  0  0
    4.4256   -8.9596    3.6565 C   0  0  0  0  0  0  0  0  0  0  0  0
    4.2752  -10.4999    3.6023 C   0  0  0  0  0  0  0  0  0  0  0  0
    5.4608   -8.6581    4.7596 C   0  0  0  0  0  0  0  0  0  0  0  0
    1.0687   -8.8297    2.9688 C   0  0  0  0  0  0  0  0  0  0  0  0
    1.1088  -10.0596    2.9569 O   0  0  0  0  0  0  0  0  0  0  0  0
   -0.2862   -8.1267    3.1275 C   0  0  0  0  0  0  0  0  0  0  0  0
   -0.2999   -6.9012    4.0359 C   0  0  2  0  0  0  0  0  0  0  0  0
    0.9372   -6.0465    4.0376 C   0  0  1  0  0  0  0  0  0  0  0  0
    0.4507   -6.6720    5.3476 C   0  0  0  0  0  0  0  0  0  0  0  0
   -0.1598   -5.7123    6.3594 C   0  0  0  0  0  0  0  0  0  0  0  0
    1.1175   -7.7998    6.1258 C   0  0  0  0  0  0  0  0  0  0  0  0
    2.0849   -6.4269    3.0767 C   0  0  2  0  0  0  0  0  0  0  0  0
    1.5438   -5.9504    1.8459 O   0  0  0  0  0  0  0  0  0  0  0  0
    3.3434   -5.5254    3.3524 C   0  0  1  0  0  0  0  0  0  0  0  0
    3.7708   -5.4589    4.8365 C   0  0  0  0  0  0  0  0  0  0  0  0
    6.5979   -3.0109   -3.1246 H   0  0  0  0  0  0  0  0  0  0  0  0
    6.9307   -3.2578   -1.4372 H   0  0  0  0  0  0  0  0  0  0  0  0
    6.1862   -1.7423   -1.9670 H   0  0  0  0  0  0  0  0  0  0  0  0
    3.8568   -1.9854   -3.3661 H   0  0  0  0  0  0  0  0  0  0  0  0
    2.9316   -3.4613   -3.1252 H   0  0  0  0  0  0  0  0  0  0  0  0
    4.3745   -3.4905   -4.1298 H   0  0  0  0  0  0  0  0  0  0  0  0
    3.2650   -4.4126   -1.0661 H   0  0  0  0  0  0  0  0  0  0  0  0
    5.2496   -4.8718    2.7304 H   0  0  0  0  0  0  0  0  0  0  0  0
    5.9467   -6.8860    1.3369 H   0  0  0  0  0  0  0  0  0  0  0  0
    6.1878   -6.9067    3.0100 H   0  0  0  0  0  0  0  0  0  0  0  0
    5.3329   -8.9991    1.6973 H   0  0  0  0  0  0  0  0  0  0  0  0
    3.2314   -7.4901    0.9249 H   0  0  0  0  0  0  0  0  0  0  0  0
    3.3674  -10.2080    1.3435 H   0  0  0  0  0  0  0  0  0  0  0  0
    5.2206  -10.9730    3.3406 H   0  0  0  0  0  0  0  0  0  0  0  0
    3.5410  -10.8563    2.8847 H   0  0  0  0  0  0  0  0  0  0  0  0
    3.9688  -10.8982    4.5705 H   0  0  0  0  0  0  0  0  0  0  0  0
    6.4346   -9.0794    4.5137 H   0  0  0  0  0  0  0  0  0  0  0  0
    5.1388   -9.0931    5.7074 H   0  0  0  0  0  0  0  0  0  0  0  0
    5.5993   -7.5972    4.9461 H   0  0  0  0  0  0  0  0  0  0  0  0
   -0.6121   -7.8212    2.1314 H   0  0  0  0  0  0  0  0  0  0  0  0
   -1.0263   -8.8412    3.4870 H   0  0  0  0  0  0  0  0  0  0  0  0
   -1.2452   -6.3700    3.9659 H   0  0  0  0  0  0  0  0  0  0  0  0
    0.7537   -4.9757    3.9977 H   0  0  0  0  0  0  0  0  0  0  0  0
    0.6147   -5.2792    6.9903 H   0  0  0  0  0  0  0  0  0  0  0  0
   -0.8728   -6.2296    6.9982 H   0  0  0  0  0  0  0  0  0  0  0  0
   -0.6850   -4.9042    5.8537 H   0  0  0  0  0  0  0  0  0  0  0  0
    2.0472   -7.4497    6.5793 H   0  0  0  0  0  0  0  0  0  0  0  0
    1.3269   -8.6774    5.5214 H   0  0  0  0  0  0  0  0  0  0  0  0
    0.4563   -8.1437    6.9238 H   0  0  0  0  0  0  0  0  0  0  0  0
    2.1984   -6.0580    1.1699 H   0  0  0  0  0  0  0  0  0  0  0  0
    2.9990   -4.5009    3.1814 H   0  0  0  0  0  0  0  0  0  0  0  0
    3.8301   -6.4326    5.3088 H   0  0  0  0  0  0  0  0  0  0  0  0
    3.0510   -4.8839    5.4198 H   0  0  0  0  0  0  0  0  0  0  0  0
    4.7371   -4.9673    4.9566 H   0  0  0  0  0  0  0  0  0  0  0  0
  1  2  1  0
  1 30  1  0
  1 31  1  0
  1 32  1  0
  2  3  1  0
  2  4  2  3
  3 33  1  0
  3 34  1  0
  3 35  1  0
  4  5  1  0
  4 36  1  0
  5  6  2  0
  5  7  1  0
  7  8  1  0
  8 28  1  0
  8  9  1  0
  8 37  1  1
  9 10  1  0
  9 38  1  0
  9 39  1  0
 10 15  1  0
 10 11  1  0
 10 40  1  6
 11 12  1  0
 11 13  1  0
 11 41  1  6
 12 42  1  0
 13 26  1  0
 13 14  1  1
 13 18  1  0
 14 15  1  0
 15 16  1  0
 15 17  1  0
 16 43  1  0
 16 44  1  0
 16 45  1  0
 17 46  1  0
 17 47  1  0
 17 48  1  0
 18 19  2  0
 18 20  1  0
 20 21  1  0
 20 49  1  0
 20 50  1  0
 21 23  1  0
 21 22  1  0
 21 51  1  1
 22 23  1  0
 22 26  1  0
 22 52  1  1
 23 24  1  0
 23 25  1  0
 24 53  1  0
 24 54  1  0
 24 55  1  0
 25 56  1  0
 25 57  1  0
 25 58  1  0
 26 27  1  6
 26 28  1  0
 27 59  1  0
 28 29  1  0
 28 60  1  6
 29 61  1  0
 29 62  1  0
 29 63  1  0
M  END
>  <i_m_ct_stereo_status>  (155) 
1

>  <s_m_source_file>  (155) 
/var/tmp/pbs.5076255.sched01/tmp8yzwbncg/40d_vk9m1l.sdf

>  <i_m_source_file_index>  (155) 
24

>  <i_lp_mmshare_version>  (155) 
48012

>  <i_f3d_flags>  (155) 
0

>  <s_epik_input>  (155) 
W0NIM11DKFtDSDNdKT1bQ0hdQyg9TylPW0NASF0oW0NIMl1bQ0BIXShbQ0BIXTFbT0hdKUMoTzIpKFtDSDNdKVtDSDNdKVtDQEhdKFtDSDNdKVtDQF0oW0NAQF0xMjMpKFtPSF0pW0NASF00W0NAQEhdKFtDSDJdQzM9TylDNChbQ0gzXSlbQ0gzXQ==

>  <s_epik_cmdline>  (155) 
J2VwaWtfcHl0aG9uJywgJy1waHQnLCAnMi4wJywgJy1waCcsICc3LjAnLCAnLXRuJywgJzgnLCAnLW1hJywgJzIwMCcsICctaW1hZScsICc8aW5maWxlLm1hZT4nLCAnLW9tYWUnLCAnPG91dGZpbGUubWFlPic=

>  <r_lp_tautomer_probability>  (155) 
1

>  <r_epik_Ionization_Penalty>  (155) 
1.52692e-07

>  <r_epik_Ionization_Penalty_Charging>  (155) 
0

>  <r_epik_Ionization_Penalty_Neutral>  (155) 
1.52692e-07

>  <r_epik_State_Penalty>  (155) 
-0

>  <r_epik_Charging_Adjusted_Penalty>  (155) 
0

>  <i_epik_Tot_Q>  (155) 
0

>  <i_epik_Tot_abs_Q>  (155) 
0

>  <s_epik_Chemistry_Notes>  (155) 
This compound has an ester and may undergo hydrolysis at high or low pH.

>  <s_lp_Force_Field>  (155) 
OPLS3e

>  <r_lp_Energy>  (155) 
44.0298

>  <b_lp_Chiralities_Consistent>  (155) 
1

>  <s_lp_Variant>  (155) 
47:0-1

>  <s_i_glide_gridfile>  (155) 
pfpi4k_grid

>  <i_i_glide_lignum>  (155) 
24

>  <i_i_glide_rotatable_bonds>  (155) 
5

>  <r_i_docking_score>  (155) 
-2.91767

>  <r_i_glide_ligand_efficiency>  (155) 
-0.100609

>  <r_i_glide_ligand_efficiency_sa>  (155) 
-0.309103

>  <r_i_glide_ligand_efficiency_ln>  (155) 
-0.668072

>  <r_i_glide_gscore>  (155) 
-2.91767

>  <r_i_glide_lipo>  (155) 
-0.228909

>  <r_i_glide_hbond>  (155) 
0

>  <r_i_glide_metal>  (155) 
-0

>  <r_i_glide_rewards>  (155) 
-1.20494

>  <r_i_glide_evdw>  (155) 
-29.6946

>  <r_i_glide_ecoul>  (155) 
-2.30672

>  <r_i_glide_erotb>  (155) 
0.356963

>  <r_i_glide_esite>  (155) 
-0.010044

>  <r_i_glide_emodel>  (155) 
-43.0965

>  <r_i_glide_energy>  (155) 
-32.0014

>  <r_i_glide_einternal>  (155) 
1.35481

>  <r_i_glide_intrahb_reward>  (155) 
-0.5

>  <i_i_glide_confnum>  (155) 
2

>  <i_i_glide_posenum>  (155) 
8

>  <r_i_glide_eff_state_penalty>  (155) 
0

>  <ligand_id>  (155) 
47

>  <original_smiles>  (155) 
CC(C)=CC(=O)OC1CC2C(O)C3(OC2(C)C)C(=O)CC2C(C2(C)C)C3(O)C1C

>  <smiles>  (155) 
[H]OC1([H])C23OC(C([H])([H])[H])(C([H])([H])[H])C1([H])C([H])([H])C([H])(OC(=O)C([H])=C(C([H])([H])[H])C([H])([H])[H])C([H])(C([H])([H])[H])C2(O[H])C1([H])C([H])(C([H])([H])C3=O)C1(C([H])([H])[H])C([H])([H])[H]

$$$$
47:0:2
     RDKit          3D

 63 66  0  0  1  0  0  0  0  0999 V2000
    4.5597   -0.9993   -2.1520 C   0  0  0  0  0  0  0  0  0  0  0  0
    3.9516   -2.3806   -2.3202 C   0  0  0  0  0  0  0  0  0  0  0  0
    3.6818   -2.7363   -3.7690 C   0  0  0  0  0  0  0  0  0  0  0  0
    3.6417   -3.2591   -1.3351 C   0  0  0  0  0  0  0  0  0  0  0  0
    3.7868   -3.0627    0.1191 C   0  0  0  0  0  0  0  0  0  0  0  0
    4.1485   -2.0245    0.6742 O   0  0  0  0  0  0  0  0  0  0  0  0
    3.4708   -4.2011    0.7840 O   0  0  0  0  0  0  0  0  0  0  0  0
    3.5168   -4.2628    2.2132 C   0  0  2  0  0  0  0  0  0  0  0  0
    4.9607   -4.5854    2.7019 C   0  0  0  0  0  0  0  0  0  0  0  0
    5.4307   -6.0582    2.8405 C   0  0  2  0  0  0  0  0  0  0  0  0
    4.7295   -6.9821    1.8477 C   0  0  1  0  0  0  0  0  0  0  0  0
    5.6441   -7.9643    1.3851 O   0  0  0  0  0  0  0  0  0  0  0  0
    3.4690   -7.4750    2.6483 C   0  0  2  0  0  0  0  0  0  0  0  0
    3.8201   -7.2174    4.0166 O   0  0  0  0  0  0  0  0  0  0  0  0
    5.1450   -6.7350    4.1987 C   0  0  0  0  0  0  0  0  0  0  0  0
    6.0972   -7.9191    4.5007 C   0  0  0  0  0  0  0  0  0  0  0  0
    5.1742   -5.8275    5.4469 C   0  0  0  0  0  0  0  0  0  0  0  0
    3.1946   -9.0013    2.5400 C   0  0  0  0  0  0  0  0  0  0  0  0
    4.0484   -9.8335    2.8496 O   0  0  0  0  0  0  0  0  0  0  0  0
    1.8128   -9.4833    2.1018 C   0  0  0  0  0  0  0  0  0  0  0  0
    0.6305   -8.6663    2.6086 C   0  0  2  0  0  0  0  0  0  0  0  0
    0.8404   -7.1878    2.7709 C   0  0  1  0  0  0  0  0  0  0  0  0
    0.4365   -8.0258    3.9841 C   0  0  0  0  0  0  0  0  0  0  0  0
   -0.9854   -7.8307    4.4769 C   0  0  0  0  0  0  0  0  0  0  0  0
    1.3037   -8.3677    5.1900 C   0  0  0  0  0  0  0  0  0  0  0  0
    2.1946   -6.5971    2.3331 C   0  0  2  0  0  0  0  0  0  0  0  0
    1.9941   -6.5801    0.9247 O   0  0  0  0  0  0  0  0  0  0  0  0
    2.2925   -5.0835    2.7335 C   0  0  1  0  0  0  0  0  0  0  0  0
    1.9382   -4.7884    4.2060 C   0  0  0  0  0  0  0  0  0  0  0  0
    5.3398   -0.8508   -2.8923 H   0  0  0  0  0  0  0  0  0  0  0  0
    5.0186   -0.8142   -1.1850 H   0  0  0  0  0  0  0  0  0  0  0  0
    3.7934   -0.2473   -2.3273 H   0  0  0  0  0  0  0  0  0  0  0  0
    3.0035   -2.0126   -4.2198 H   0  0  0  0  0  0  0  0  0  0  0  0
    3.2384   -3.7263   -3.8818 H   0  0  0  0  0  0  0  0  0  0  0  0
    4.6111   -2.7244   -4.3344 H   0  0  0  0  0  0  0  0  0  0  0  0
    3.2331   -4.2119   -1.6279 H   0  0  0  0  0  0  0  0  0  0  0  0
    3.3142   -3.2459    2.5581 H   0  0  0  0  0  0  0  0  0  0  0  0
    5.6442   -4.1164    1.9951 H   0  0  0  0  0  0  0  0  0  0  0  0
    5.1563   -4.0270    3.6122 H   0  0  0  0  0  0  0  0  0  0  0  0
    6.5079   -6.0585    2.6728 H   0  0  0  0  0  0  0  0  0  0  0  0
    4.4678   -6.4535    0.9361 H   0  0  0  0  0  0  0  0  0  0  0  0
    5.1639   -8.6392    0.9304 H   0  0  0  0  0  0  0  0  0  0  0  0
    7.1143   -7.5674    4.6654 H   0  0  0  0  0  0  0  0  0  0  0  0
    6.1493   -8.6586    3.7061 H   0  0  0  0  0  0  0  0  0  0  0  0
    5.7882   -8.4542    5.3995 H   0  0  0  0  0  0  0  0  0  0  0  0
    6.1691   -5.4217    5.6198 H   0  0  0  0  0  0  0  0  0  0  0  0
    4.8890   -6.3967    6.3326 H   0  0  0  0  0  0  0  0  0  0  0  0
    4.4828   -4.9932    5.3909 H   0  0  0  0  0  0  0  0  0  0  0  0
    1.8167   -9.4660    1.0110 H   0  0  0  0  0  0  0  0  0  0  0  0
    1.6715  -10.5234    2.3941 H   0  0  0  0  0  0  0  0  0  0  0  0
   -0.2917   -8.9624    2.1154 H   0  0  0  0  0  0  0  0  0  0  0  0
    0.0259   -6.5730    2.3989 H   0  0  0  0  0  0  0  0  0  0  0  0
   -1.0289   -6.9986    5.1818 H   0  0  0  0  0  0  0  0  0  0  0  0
   -1.3371   -8.7348    4.9777 H   0  0  0  0  0  0  0  0  0  0  0  0
   -1.6586   -7.6259    3.6488 H   0  0  0  0  0  0  0  0  0  0  0  0
    1.4825   -7.4768    5.7966 H   0  0  0  0  0  0  0  0  0  0  0  0
    2.2590   -8.8132    4.9246 H   0  0  0  0  0  0  0  0  0  0  0  0
    0.7971   -9.1096    5.8133 H   0  0  0  0  0  0  0  0  0  0  0  0
    2.7792   -6.2654    0.5017 H   0  0  0  0  0  0  0  0  0  0  0  0
    1.4606   -4.6022    2.2129 H   0  0  0  0  0  0  0  0  0  0  0  0
    2.4392   -5.4480    4.9049 H   0  0  0  0  0  0  0  0  0  0  0  0
    0.8693   -4.9215    4.3747 H   0  0  0  0  0  0  0  0  0  0  0  0
    2.1783   -3.7592    4.4765 H   0  0  0  0  0  0  0  0  0  0  0  0
  1  2  1  0
  1 30  1  0
  1 31  1  0
  1 32  1  0
  2  3  1  0
  2  4  2  3
  3 33  1  0
  3 34  1  0
  3 35  1  0
  4  5  1  0
  4 36  1  0
  5  6  2  0
  5  7  1  0
  7  8  1  0
  8 28  1  0
  8  9  1  0
  8 37  1  1
  9 10  1  0
  9 38  1  0
  9 39  1  0
 10 15  1  0
 10 11  1  0
 10 40  1  6
 11 12  1  0
 11 13  1  0
 11 41  1  6
 12 42  1  0
 13 26  1  0
 13 14  1  1
 13 18  1  0
 14 15  1  0
 15 16  1  0
 15 17  1  0
 16 43  1  0
 16 44  1  0
 16 45  1  0
 17 46  1  0
 17 47  1  0
 17 48  1  0
 18 19  2  0
 18 20  1  0
 20 21  1  0
 20 49  1  0
 20 50  1  0
 21 23  1  0
 21 22  1  0
 21 51  1  6
 22 23  1  0
 22 26  1  0
 22 52  1  6
 23 24  1  0
 23 25  1  0
 24 53  1  0
 24 54  1  0
 24 55  1  0
 25 56  1  0
 25 57  1  0
 25 58  1  0
 26 27  1  6
 26 28  1  0
 27 59  1  0
 28 29  1  0
 28 60  1  6
 29 61  1  0
 29 62  1  0
 29 63  1  0
M  END
>  <i_m_ct_stereo_status>  (156) 
1

>  <s_m_source_file>  (156) 
/var/tmp/pbs.5076255.sched01/tmp8yzwbncg/40d_vk9m1l.sdf

>  <i_m_source_file_index>  (156) 
24

>  <i_lp_mmshare_version>  (156) 
48012

>  <i_f3d_flags>  (156) 
0

>  <s_epik_input>  (156) 
W0NIM11DKFtDSDNdKT1bQ0hdQyg9TylPW0NASF0oW0NIMl1bQ0BIXShbQ0BIXTFbT0hdKUMoTzIpKFtDSDNdKVtDSDNdKVtDQEhdKFtDSDNdKVtDQF0oW0NAQF0xMjMpKFtPSF0pW0NASF00W0NAQEhdKFtDSDJdQzM9TylDNChbQ0gzXSlbQ0gzXQ==

>  <s_epik_cmdline>  (156) 
J2VwaWtfcHl0aG9uJywgJy1waHQnLCAnMi4wJywgJy1waCcsICc3LjAnLCAnLXRuJywgJzgnLCAnLW1hJywgJzIwMCcsICctaW1hZScsICc8aW5maWxlLm1hZT4nLCAnLW9tYWUnLCAnPG91dGZpbGUubWFlPic=

>  <r_lp_tautomer_probability>  (156) 
1

>  <r_epik_Ionization_Penalty>  (156) 
1.52692e-07

>  <r_epik_Ionization_Penalty_Charging>  (156) 
0

>  <r_epik_Ionization_Penalty_Neutral>  (156) 
1.52692e-07

>  <r_epik_State_Penalty>  (156) 
-0

>  <r_epik_Charging_Adjusted_Penalty>  (156) 
0

>  <i_epik_Tot_Q>  (156) 
0

>  <i_epik_Tot_abs_Q>  (156) 
0

>  <s_epik_Chemistry_Notes>  (156) 
This compound has an ester and may undergo hydrolysis at high or low pH.

>  <s_lp_Force_Field>  (156) 
OPLS3e

>  <r_lp_Energy>  (156) 
44.0298

>  <b_lp_Chiralities_Consistent>  (156) 
1

>  <s_lp_Variant>  (156) 
47:0-1

>  <s_i_glide_gridfile>  (156) 
pfpi4k_grid

>  <i_i_glide_lignum>  (156) 
24

>  <i_i_glide_rotatable_bonds>  (156) 
5

>  <r_i_docking_score>  (156) 
-2.83175

>  <r_i_glide_ligand_efficiency>  (156) 
-0.0976466

>  <r_i_glide_ligand_efficiency_sa>  (156) 
-0.300001

>  <r_i_glide_ligand_efficiency_ln>  (156) 
-0.648399

>  <r_i_glide_gscore>  (156) 
-2.83175

>  <r_i_glide_lipo>  (156) 
-0.332191

>  <r_i_glide_hbond>  (156) 
0

>  <r_i_glide_metal>  (156) 
-0

>  <r_i_glide_rewards>  (156) 
-1.13742

>  <r_i_glide_evdw>  (156) 
-29.3091

>  <r_i_glide_ecoul>  (156) 
-1.54379

>  <r_i_glide_erotb>  (156) 
0.356963

>  <r_i_glide_esite>  (156) 
-0.0220849

>  <r_i_glide_emodel>  (156) 
-41.7497

>  <r_i_glide_energy>  (156) 
-30.8529

>  <r_i_glide_einternal>  (156) 
1.42144

>  <r_i_glide_intrahb_reward>  (156) 
-0.5

>  <i_i_glide_confnum>  (156) 
2

>  <i_i_glide_posenum>  (156) 
21

>  <r_i_glide_eff_state_penalty>  (156) 
0

>  <ligand_id>  (156) 
47

>  <original_smiles>  (156) 
CC(C)=CC(=O)OC1CC2C(O)C3(OC2(C)C)C(=O)CC2C(C2(C)C)C3(O)C1C

>  <smiles>  (156) 
[H]OC1([H])C23OC(C([H])([H])[H])(C([H])([H])[H])C1([H])C([H])([H])C([H])(OC(=O)C([H])=C(C([H])([H])[H])C([H])([H])[H])C([H])(C([H])([H])[H])C2(O[H])C1([H])C([H])(C([H])([H])C3=O)C1(C([H])([H])[H])C([H])([H])[H]

$$$$
48:0:0
     RDKit          3D

 36 38  0  0  1  0  0  0  0  0999 V2000
    2.1773   -7.7759    1.4127 C   0  0  0  0  0  0  0  0  0  0  0  0
    2.6513   -6.4083    1.4956 N   0  0  0  0  0  0  0  0  0  0  0  0
    3.9081   -5.9210    1.2191 C   0  0  0  0  0  0  0  0  0  0  0  0
    3.8790   -4.5594    1.4055 C   0  0  0  0  0  0  0  0  0  0  0  0
    4.9608   -3.5468    1.1319 C   0  0  0  0  0  0  0  0  0  0  0  0
    5.0378   -3.1542   -0.2954 N   0  0  1  0  0  0  0  0  0  0  0  0
    5.0159   -4.3082   -1.2425 C   0  0  0  0  0  0  0  0  0  0  0  0
    5.1332   -3.9150   -2.7236 C   0  0  0  0  0  0  0  0  0  0  0  0
    4.0405   -2.8890   -3.0213 C   0  0  2  0  0  0  0  0  0  0  0  0
    4.0501   -2.3350   -4.3226 O   0  0  0  0  0  0  0  0  0  0  0  0
    3.3209   -1.1110   -4.2474 C   0  0  0  0  0  0  0  0  0  0  0  0
    3.4010   -0.6521   -2.7836 C   0  0  0  0  0  0  0  0  0  0  0  0
    4.3053   -1.6832   -2.1461 C   0  0  1  0  0  0  0  0  0  0  0  0
    4.0983   -2.0652   -0.6732 C   0  0  0  0  0  0  0  0  0  0  0  0
    2.5483   -4.3300    1.8627 C   0  0  0  0  0  0  0  0  0  0  0  0
    1.8103   -5.4318    1.8886 N   0  0  0  0  0  0  0  0  0  0  0  0
    2.9098   -8.3948    0.8978 H   0  0  0  0  0  0  0  0  0  0  0  0
    1.2310   -7.8173    0.8762 H   0  0  0  0  0  0  0  0  0  0  0  0
    2.0296   -8.1664    2.4162 H   0  0  0  0  0  0  0  0  0  0  0  0
    4.7012   -6.5594    0.8565 H   0  0  0  0  0  0  0  0  0  0  0  0
    4.8013   -2.6579    1.7467 H   0  0  0  0  0  0  0  0  0  0  0  0
    5.9330   -3.9287    1.4511 H   0  0  0  0  0  0  0  0  0  0  0  0
    5.7954   -5.0171   -0.9610 H   0  0  0  0  0  0  0  0  0  0  0  0
    4.0637   -4.8266   -1.1511 H   0  0  0  0  0  0  0  0  0  0  0  0
    6.1263   -3.5210   -2.9601 H   0  0  0  0  0  0  0  0  0  0  0  0
    4.9865   -4.8001   -3.3409 H   0  0  0  0  0  0  0  0  0  0  0  0
    3.0423   -3.3001   -2.8152 H   0  0  0  0  0  0  0  0  0  0  0  0
    3.7642   -0.3866   -4.9284 H   0  0  0  0  0  0  0  0  0  0  0  0
    2.2810   -1.2541   -4.5358 H   0  0  0  0  0  0  0  0  0  0  0  0
    3.8197    0.3521   -2.7207 H   0  0  0  0  0  0  0  0  0  0  0  0
    2.4127   -0.6563   -2.3204 H   0  0  0  0  0  0  0  0  0  0  0  0
    5.3337   -1.3505   -2.3027 H   0  0  0  0  0  0  0  0  0  0  0  0
    3.0677   -2.3876   -0.5030 H   0  0  0  0  0  0  0  0  0  0  0  0
    4.2727   -1.1910   -0.0440 H   0  0  0  0  0  0  0  0  0  0  0  0
    2.0756   -3.3870    2.1226 H   0  0  0  0  0  0  0  0  0  0  0  0
    5.9607   -2.7486   -0.3953 H   0  0  0  0  0  0  0  0  0  0  0  0
  1  2  1  0
  1 17  1  0
  1 18  1  0
  1 19  1  0
  2 16  1  0
  2  3  1  0
  3  4  2  0
  3 20  1  0
  4  5  1  0
  4 15  1  0
  5  6  1  0
  5 21  1  0
  5 22  1  0
  6 14  1  0
  6  7  1  0
  6 36  1  1
  7  8  1  0
  7 23  1  0
  7 24  1  0
  8  9  1  0
  8 25  1  0
  8 26  1  0
  9 13  1  0
  9 10  1  0
  9 27  1  1
 10 11  1  0
 11 12  1  0
 11 28  1  0
 11 29  1  0
 12 13  1  0
 12 30  1  0
 12 31  1  0
 13 14  1  0
 13 32  1  1
 14 33  1  0
 14 34  1  0
 15 16  2  0
 15 35  1  0
M  CHG  1   6   1
M  END
>  <i_m_ct_stereo_status>  (157) 
1

>  <s_m_source_file>  (157) 
/var/tmp/pbs.5076255.sched01/tmp8yzwbncg/40d_vk9m1l.sdf

>  <i_m_source_file_index>  (157) 
25

>  <i_lp_mmshare_version>  (157) 
48012

>  <i_f3d_flags>  (157) 
0

>  <s_epik_input>  (157) 
W0NIM11uMVtjSF1jKFtjSF1uMSlbQ0gyXU4oW0NIMl1bQ0gyXTIpW0NIMl1bQ0BASF0oW0NASF0yMylbQ0gyXVtDSDJdTzM=

>  <s_epik_cmdline>  (157) 
J2VwaWtfcHl0aG9uJywgJy1waHQnLCAnMi4wJywgJy1waCcsICc3LjAnLCAnLXRuJywgJzgnLCAnLW1hJywgJzIwMCcsICctaW1hZScsICc8aW5maWxlLm1hZT4nLCAnLW9tYWUnLCAnPG91dGZpbGUubWFlPic=

>  <r_lp_tautomer_probability>  (157) 
1

>  <r_epik_Ionization_Penalty>  (157) 
0.0760196

>  <r_epik_Ionization_Penalty_Charging>  (157) 
0.0759431

>  <r_epik_Ionization_Penalty_Neutral>  (157) 
7.65467e-05

>  <r_epik_State_Penalty>  (157) 
0.0669702

>  <r_epik_Charging_Adjusted_Penalty>  (157) 
0.142913

>  <i_epik_Tot_Q>  (157) 
1

>  <i_epik_Tot_abs_Q>  (157) 
1

>  <s_lp_Force_Field>  (157) 
OPLS3e

>  <r_lp_Energy>  (157) 
13.2348

>  <b_lp_Chiralities_Consistent>  (157) 
1

>  <s_lp_Variant>  (157) 
48:0-1

>  <s_i_glide_gridfile>  (157) 
pfpi4k_grid

>  <i_i_glide_lignum>  (157) 
25

>  <i_i_glide_rotatable_bonds>  (157) 
2

>  <r_i_docking_score>  (157) 
-3.70027

>  <r_i_glide_ligand_efficiency>  (157) 
-0.231267

>  <r_i_glide_ligand_efficiency_sa>  (157) 
-0.582756

>  <r_i_glide_ligand_efficiency_ln>  (157) 
-0.980831

>  <r_i_glide_gscore>  (157) 
-3.70027

>  <r_i_glide_lipo>  (157) 
-0.222519

>  <r_i_glide_hbond>  (157) 
-0.339361

>  <r_i_glide_metal>  (157) 
-0

>  <r_i_glide_rewards>  (157) 
-1.89336

>  <r_i_glide_evdw>  (157) 
-17.5999

>  <r_i_glide_ecoul>  (157) 
-6.97478

>  <r_i_glide_erotb>  (157) 
0.683871

>  <r_i_glide_esite>  (157) 
-0.00268814

>  <r_i_glide_emodel>  (157) 
-30.5347

>  <r_i_glide_energy>  (157) 
-24.5747

>  <r_i_glide_einternal>  (157) 
3.43674

>  <r_i_glide_intrahb_reward>  (157) 
-0

>  <i_i_glide_confnum>  (157) 
4

>  <i_i_glide_posenum>  (157) 
11

>  <r_i_glide_eff_state_penalty>  (157) 
0

>  <ligand_id>  (157) 
48

>  <original_smiles>  (157) 
Cn1cc(CN2CCC3OCCC3C2)cn1

>  <smiles>  (157) 
[H]c1nn(C([H])([H])[H])c([H])c1C([H])([H])[N+]1([H])C([H])([H])C([H])([H])C2([H])OC([H])([H])C([H])([H])C2([H])C1([H])[H]

$$$$
48:0:1
     RDKit          3D

 36 38  0  0  1  0  0  0  0  0999 V2000
    2.5344    0.2452   -4.9743 C   0  0  0  0  0  0  0  0  0  0  0  0
    3.1156   -0.6364   -3.9764 N   0  0  0  0  0  0  0  0  0  0  0  0
    2.7005   -1.8809   -3.5530 C   0  0  0  0  0  0  0  0  0  0  0  0
    3.5629   -2.2832   -2.5693 C   0  0  0  0  0  0  0  0  0  0  0  0
    3.5550   -3.5550   -1.7785 C   0  0  0  0  0  0  0  0  0  0  0  0
    4.0003   -3.3666   -0.3712 N   0  0  1  0  0  0  0  0  0  0  0  0
    3.0869   -2.4782    0.4122 C   0  0  0  0  0  0  0  0  0  0  0  0
    3.5545   -2.2923    1.8704 C   0  0  0  0  0  0  0  0  0  0  0  0
    3.7311   -3.6700    2.5089 C   0  0  2  0  0  0  0  0  0  0  0  0
    4.2552   -3.6848    3.8190 O   0  0  0  0  0  0  0  0  0  0  0  0
    4.7655   -4.9998    4.0435 C   0  0  0  0  0  0  0  0  0  0  0  0
    5.0864   -5.5821    2.6564 C   0  0  0  0  0  0  0  0  0  0  0  0
    4.7994   -4.4091    1.7355 C   0  0  1  0  0  0  0  0  0  0  0  0
    4.2888   -4.6673    0.3083 C   0  0  0  0  0  0  0  0  0  0  0  0
    4.4950   -1.2107   -2.4831 C   0  0  0  0  0  0  0  0  0  0  0  0
    4.2079   -0.2314   -3.3158 N   0  0  0  0  0  0  0  0  0  0  0  0
    1.7448   -0.2574   -5.5263 H   0  0  0  0  0  0  0  0  0  0  0  0
    3.2973    0.6035   -5.6622 H   0  0  0  0  0  0  0  0  0  0  0  0
    2.0696    1.0945   -4.4942 H   0  0  0  0  0  0  0  0  0  0  0  0
    1.8314   -2.3649   -3.9825 H   0  0  0  0  0  0  0  0  0  0  0  0
    2.5626   -4.0073   -1.7823 H   0  0  0  0  0  0  0  0  0  0  0  0
    4.2372   -4.2495   -2.2664 H   0  0  0  0  0  0  0  0  0  0  0  0
    3.0203   -1.5024   -0.0683 H   0  0  0  0  0  0  0  0  0  0  0  0
    2.0851   -2.9028    0.3989 H   0  0  0  0  0  0  0  0  0  0  0  0
    4.4853   -1.7211    1.9105 H   0  0  0  0  0  0  0  0  0  0  0  0
    2.8158   -1.7079    2.4136 H   0  0  0  0  0  0  0  0  0  0  0  0
    2.7868   -4.2226    2.4972 H   0  0  0  0  0  0  0  0  0  0  0  0
    5.6439   -4.9416    4.6811 H   0  0  0  0  0  0  0  0  0  0  0  0
    4.0355   -5.6223    4.5593 H   0  0  0  0  0  0  0  0  0  0  0  0
    6.1242   -5.9067    2.5872 H   0  0  0  0  0  0  0  0  0  0  0  0
    4.4494   -6.4406    2.4411 H   0  0  0  0  0  0  0  0  0  0  0  0
    5.7055   -3.7977    1.6942 H   0  0  0  0  0  0  0  0  0  0  0  0
    3.3869   -5.2793    0.3267 H   0  0  0  0  0  0  0  0  0  0  0  0
    5.0405   -5.2184   -0.2567 H   0  0  0  0  0  0  0  0  0  0  0  0
    5.3546   -1.1056   -1.8366 H   0  0  0  0  0  0  0  0  0  0  0  0
    4.8839   -2.8889   -0.4257 H   0  0  0  0  0  0  0  0  0  0  0  0
  1  2  1  0
  1 17  1  0
  1 18  1  0
  1 19  1  0
  2 16  1  0
  2  3  1  0
  3  4  2  0
  3 20  1  0
  4  5  1  0
  4 15  1  0
  5  6  1  0
  5 21  1  0
  5 22  1  0
  6 14  1  0
  6  7  1  0
  6 36  1  6
  7  8  1  0
  7 23  1  0
  7 24  1  0
  8  9  1  0
  8 25  1  0
  8 26  1  0
  9 13  1  0
  9 10  1  0
  9 27  1  1
 10 11  1  0
 11 12  1  0
 11 28  1  0
 11 29  1  0
 12 13  1  0
 12 30  1  0
 12 31  1  0
 13 14  1  0
 13 32  1  6
 14 33  1  0
 14 34  1  0
 15 16  2  0
 15 35  1  0
M  CHG  1   6   1
M  END
>  <i_m_ct_stereo_status>  (158) 
1

>  <s_m_source_file>  (158) 
/var/tmp/pbs.5076255.sched01/tmp8yzwbncg/40d_vk9m1l.sdf

>  <i_m_source_file_index>  (158) 
25

>  <i_lp_mmshare_version>  (158) 
48012

>  <i_f3d_flags>  (158) 
0

>  <s_epik_input>  (158) 
W0NIM11uMVtjSF1jKFtjSF1uMSlbQ0gyXU4oW0NIMl1bQ0gyXTIpW0NIMl1bQ0BASF0oW0NASF0yMylbQ0gyXVtDSDJdTzM=

>  <s_epik_cmdline>  (158) 
J2VwaWtfcHl0aG9uJywgJy1waHQnLCAnMi4wJywgJy1waCcsICc3LjAnLCAnLXRuJywgJzgnLCAnLW1hJywgJzIwMCcsICctaW1hZScsICc8aW5maWxlLm1hZT4nLCAnLW9tYWUnLCAnPG91dGZpbGUubWFlPic=

>  <r_lp_tautomer_probability>  (158) 
1

>  <r_epik_Ionization_Penalty>  (158) 
0.0760196

>  <r_epik_Ionization_Penalty_Charging>  (158) 
0.0759431

>  <r_epik_Ionization_Penalty_Neutral>  (158) 
7.65467e-05

>  <r_epik_State_Penalty>  (158) 
0.0669702

>  <r_epik_Charging_Adjusted_Penalty>  (158) 
0.142913

>  <i_epik_Tot_Q>  (158) 
1

>  <i_epik_Tot_abs_Q>  (158) 
1

>  <s_lp_Force_Field>  (158) 
OPLS3e

>  <r_lp_Energy>  (158) 
13.2348

>  <b_lp_Chiralities_Consistent>  (158) 
1

>  <s_lp_Variant>  (158) 
48:0-1

>  <s_i_glide_gridfile>  (158) 
pfpi4k_grid

>  <i_i_glide_lignum>  (158) 
25

>  <i_i_glide_rotatable_bonds>  (158) 
2

>  <r_i_docking_score>  (158) 
-3.42845

>  <r_i_glide_ligand_efficiency>  (158) 
-0.214278

>  <r_i_glide_ligand_efficiency_sa>  (158) 
-0.539947

>  <r_i_glide_ligand_efficiency_ln>  (158) 
-0.908779

>  <r_i_glide_gscore>  (158) 
-3.42845

>  <r_i_glide_lipo>  (158) 
-0.242892

>  <r_i_glide_hbond>  (158) 
0

>  <r_i_glide_metal>  (158) 
-0

>  <r_i_glide_rewards>  (158) 
-2.21963

>  <r_i_glide_evdw>  (158) 
-17.2289

>  <r_i_glide_ecoul>  (158) 
-5.25569

>  <r_i_glide_erotb>  (158) 
0.683871

>  <r_i_glide_esite>  (158) 
0

>  <r_i_glide_emodel>  (158) 
-28.989

>  <r_i_glide_energy>  (158) 
-22.4846

>  <r_i_glide_einternal>  (158) 
1.55759

>  <r_i_glide_intrahb_reward>  (158) 
-0

>  <i_i_glide_confnum>  (158) 
2

>  <i_i_glide_posenum>  (158) 
3

>  <r_i_glide_eff_state_penalty>  (158) 
0

>  <ligand_id>  (158) 
48

>  <original_smiles>  (158) 
Cn1cc(CN2CCC3OCCC3C2)cn1

>  <smiles>  (158) 
[H]c1nn(C([H])([H])[H])c([H])c1C([H])([H])[N+]1([H])C([H])([H])C([H])([H])C2([H])OC([H])([H])C([H])([H])C2([H])C1([H])[H]

$$$$
48:0:2
     RDKit          3D

 36 38  0  0  1  0  0  0  0  0999 V2000
   -0.9689   -6.3644    5.2384 C   0  0  0  0  0  0  0  0  0  0  0  0
   -0.6281   -7.4085    4.3059 N   0  0  0  0  0  0  0  0  0  0  0  0
    0.2054   -8.4916    4.4922 C   0  0  0  0  0  0  0  0  0  0  0  0
    0.2353   -9.1835    3.3168 C   0  0  0  0  0  0  0  0  0  0  0  0
    0.9992  -10.4321    2.9714 C   0  0  0  0  0  0  0  0  0  0  0  0
    2.4532  -10.2793    3.2367 N   0  0  1  0  0  0  0  0  0  0  0  0
    3.1600  -11.5842    3.3941 C   0  0  0  0  0  0  0  0  0  0  0  0
    4.6671  -11.4068    3.7192 C   0  0  0  0  0  0  0  0  0  0  0  0
    5.2989  -10.5210    2.6489 C   0  0  2  0  0  0  0  0  0  0  0  0
    6.6536  -10.1645    2.8069 O   0  0  0  0  0  0  0  0  0  0  0  0
    6.8729   -9.0348    1.9606 C   0  0  0  0  0  0  0  0  0  0  0  0
    5.5067   -8.3564    1.7654 C   0  0  0  0  0  0  0  0  0  0  0  0
    4.6052   -9.1815    2.6650 C   0  0  1  0  0  0  0  0  0  0  0  0
    3.1329   -9.3695    2.2674 C   0  0  0  0  0  0  0  0  0  0  0  0
   -0.6634   -8.4562    2.4770 C   0  0  0  0  0  0  0  0  0  0  0  0
   -1.1605   -7.3816    3.0645 N   0  0  0  0  0  0  0  0  0  0  0  0
   -0.5752   -6.6062    6.2236 H   0  0  0  0  0  0  0  0  0  0  0  0
   -2.0519   -6.2609    5.2946 H   0  0  0  0  0  0  0  0  0  0  0  0
   -0.5344   -5.4203    4.9150 H   0  0  0  0  0  0  0  0  0  0  0  0
    0.7079   -8.6717    5.4339 H   0  0  0  0  0  0  0  0  0  0  0  0
    0.5922  -11.2821    3.5208 H   0  0  0  0  0  0  0  0  0  0  0  0
    0.8447  -10.6539    1.9242 H   0  0  0  0  0  0  0  0  0  0  0  0
    2.6877  -12.1480    4.2037 H   0  0  0  0  0  0  0  0  0  0  0  0
    3.0439  -12.1816    2.4878 H   0  0  0  0  0  0  0  0  0  0  0  0
    4.8171  -10.9653    4.7056 H   0  0  0  0  0  0  0  0  0  0  0  0
    5.1492  -12.3817    3.7373 H   0  0  0  0  0  0  0  0  0  0  0  0
    5.2087  -11.0021    1.6832 H   0  0  0  0  0  0  0  0  0  0  0  0
    7.5973   -8.3781    2.4356 H   0  0  0  0  0  0  0  0  0  0  0  0
    7.2795   -9.3234    0.9914 H   0  0  0  0  0  0  0  0  0  0  0  0
    5.5256   -7.3100    2.0714 H   0  0  0  0  0  0  0  0  0  0  0  0
    5.1963   -8.4012    0.7203 H   0  0  0  0  0  0  0  0  0  0  0  0
    4.6667   -8.7691    3.6729 H   0  0  0  0  0  0  0  0  0  0  0  0
    3.0572   -9.7814    1.2598 H   0  0  0  0  0  0  0  0  0  0  0  0
    2.6349   -8.3983    2.2639 H   0  0  0  0  0  0  0  0  0  0  0  0
   -0.9704   -8.6594    1.4573 H   0  0  0  0  0  0  0  0  0  0  0  0
    2.5116   -9.8451    4.1479 H   0  0  0  0  0  0  0  0  0  0  0  0
  1  2  1  0
  1 17  1  0
  1 18  1  0
  1 19  1  0
  2 16  1  0
  2  3  1  0
  3  4  2  0
  3 20  1  0
  4  5  1  0
  4 15  1  0
  5  6  1  0
  5 21  1  0
  5 22  1  0
  6 14  1  0
  6  7  1  0
  6 36  1  1
  7  8  1  0
  7 23  1  0
  7 24  1  0
  8  9  1  0
  8 25  1  0
  8 26  1  0
  9 13  1  0
  9 10  1  0
  9 27  1  6
 10 11  1  0
 11 12  1  0
 11 28  1  0
 11 29  1  0
 12 13  1  0
 12 30  1  0
 12 31  1  0
 13 14  1  0
 13 32  1  1
 14 33  1  0
 14 34  1  0
 15 16  2  0
 15 35  1  0
M  CHG  1   6   1
M  END
>  <i_m_ct_stereo_status>  (159) 
1

>  <s_m_source_file>  (159) 
/var/tmp/pbs.5076255.sched01/tmp8yzwbncg/40d_vk9m1l.sdf

>  <i_m_source_file_index>  (159) 
25

>  <i_lp_mmshare_version>  (159) 
48012

>  <i_f3d_flags>  (159) 
0

>  <s_epik_input>  (159) 
W0NIM11uMVtjSF1jKFtjSF1uMSlbQ0gyXU4oW0NIMl1bQ0gyXTIpW0NIMl1bQ0BASF0oW0NASF0yMylbQ0gyXVtDSDJdTzM=

>  <s_epik_cmdline>  (159) 
J2VwaWtfcHl0aG9uJywgJy1waHQnLCAnMi4wJywgJy1waCcsICc3LjAnLCAnLXRuJywgJzgnLCAnLW1hJywgJzIwMCcsICctaW1hZScsICc8aW5maWxlLm1hZT4nLCAnLW9tYWUnLCAnPG91dGZpbGUubWFlPic=

>  <r_lp_tautomer_probability>  (159) 
1

>  <r_epik_Ionization_Penalty>  (159) 
0.0760196

>  <r_epik_Ionization_Penalty_Charging>  (159) 
0.0759431

>  <r_epik_Ionization_Penalty_Neutral>  (159) 
7.65467e-05

>  <r_epik_State_Penalty>  (159) 
0.0669702

>  <r_epik_Charging_Adjusted_Penalty>  (159) 
0.142913

>  <i_epik_Tot_Q>  (159) 
1

>  <i_epik_Tot_abs_Q>  (159) 
1

>  <s_lp_Force_Field>  (159) 
OPLS3e

>  <r_lp_Energy>  (159) 
13.2348

>  <b_lp_Chiralities_Consistent>  (159) 
1

>  <s_lp_Variant>  (159) 
48:0-1

>  <s_i_glide_gridfile>  (159) 
pfpi4k_grid

>  <i_i_glide_lignum>  (159) 
25

>  <i_i_glide_rotatable_bonds>  (159) 
2

>  <r_i_docking_score>  (159) 
-3.35499

>  <r_i_glide_ligand_efficiency>  (159) 
-0.209687

>  <r_i_glide_ligand_efficiency_sa>  (159) 
-0.528378

>  <r_i_glide_ligand_efficiency_ln>  (159) 
-0.889308

>  <r_i_glide_gscore>  (159) 
-3.35499

>  <r_i_glide_lipo>  (159) 
-0.286144

>  <r_i_glide_hbond>  (159) 
-0.050244

>  <r_i_glide_metal>  (159) 
-0

>  <r_i_glide_rewards>  (159) 
-1.89336

>  <r_i_glide_evdw>  (159) 
-17.3017

>  <r_i_glide_ecoul>  (159) 
-5.99187

>  <r_i_glide_erotb>  (159) 
0.683871

>  <r_i_glide_esite>  (159) 
-0.0452486

>  <r_i_glide_emodel>  (159) 
-29.1383

>  <r_i_glide_energy>  (159) 
-23.2936

>  <r_i_glide_einternal>  (159) 
2.63468

>  <r_i_glide_intrahb_reward>  (159) 
-0

>  <i_i_glide_confnum>  (159) 
5

>  <i_i_glide_posenum>  (159) 
2

>  <r_i_glide_eff_state_penalty>  (159) 
0

>  <ligand_id>  (159) 
48

>  <original_smiles>  (159) 
Cn1cc(CN2CCC3OCCC3C2)cn1

>  <smiles>  (159) 
[H]c1nn(C([H])([H])[H])c([H])c1C([H])([H])[N+]1([H])C([H])([H])C([H])([H])C2([H])OC([H])([H])C([H])([H])C2([H])C1([H])[H]

$$$$
48:1:0
     RDKit          3D

 35 37  0  0  1  0  0  0  0  0999 V2000
    2.9352   -0.2267   -4.8657 C   0  0  0  0  0  0  0  0  0  0  0  0
    3.6656   -1.0433   -3.9226 N   0  0  0  0  0  0  0  0  0  0  0  0
    4.2499   -0.6818   -2.7288 C   0  0  0  0  0  0  0  0  0  0  0  0
    4.8351   -1.7942   -2.1947 C   0  0  0  0  0  0  0  0  0  0  0  0
    5.5625   -1.9292   -0.8577 C   0  0  0  0  0  0  0  0  0  0  0  0
    4.8342   -2.6910    0.1559 N   0  0  0  0  0  0  0  0  0  0  0  0
    3.5157   -2.0783    0.4158 C   0  0  0  0  0  0  0  0  0  0  0  0
    2.6832   -2.8675    1.4420 C   0  0  0  0  0  0  0  0  0  0  0  0
    2.6129   -4.3193    0.9831 C   0  0  2  0  0  0  0  0  0  0  0  0
    1.9484   -5.2320    1.8317 O   0  0  0  0  0  0  0  0  0  0  0  0
    2.4192   -6.5429    1.4876 C   0  0  0  0  0  0  0  0  0  0  0  0
    3.7537   -6.3409    0.7413 C   0  0  0  0  0  0  0  0  0  0  0  0
    4.0231   -4.8734    0.9402 C   0  0  1  0  0  0  0  0  0  0  0  0
    4.7905   -4.1292   -0.1471 C   0  0  0  0  0  0  0  0  0  0  0  0
    4.5390   -2.7978   -3.1614 C   0  0  0  0  0  0  0  0  0  0  0  0
    3.8374   -2.3427   -4.1820 N   0  0  0  0  0  0  0  0  0  0  0  0
    3.0239    0.8261   -4.6061 H   0  0  0  0  0  0  0  0  0  0  0  0
    1.8854   -0.5136   -4.8598 H   0  0  0  0  0  0  0  0  0  0  0  0
    3.3436   -0.3881   -5.8615 H   0  0  0  0  0  0  0  0  0  0  0  0
    4.2143    0.3425   -2.3658 H   0  0  0  0  0  0  0  0  0  0  0  0
    6.5392   -2.3846   -0.9992 H   0  0  0  0  0  0  0  0  0  0  0  0
    5.7617   -0.9412   -0.4440 H   0  0  0  0  0  0  0  0  0  0  0  0
    3.6553   -1.0507    0.7552 H   0  0  0  0  0  0  0  0  0  0  0  0
    2.9323   -2.0272   -0.5048 H   0  0  0  0  0  0  0  0  0  0  0  0
    3.1358   -2.8130    2.4319 H   0  0  0  0  0  0  0  0  0  0  0  0
    1.6954   -2.4219    1.5215 H   0  0  0  0  0  0  0  0  0  0  0  0
    2.1485   -4.3862   -0.0109 H   0  0  0  0  0  0  0  0  0  0  0  0
    2.5448   -7.1366    2.3953 H   0  0  0  0  0  0  0  0  0  0  0  0
    1.6802   -7.0441    0.8598 H   0  0  0  0  0  0  0  0  0  0  0  0
    4.5516   -6.9697    1.1416 H   0  0  0  0  0  0  0  0  0  0  0  0
    3.6421   -6.5808   -0.3196 H   0  0  0  0  0  0  0  0  0  0  0  0
    4.5070   -4.7347    1.9139 H   0  0  0  0  0  0  0  0  0  0  0  0
    4.2738   -4.3190   -1.0886 H   0  0  0  0  0  0  0  0  0  0  0  0
    5.8065   -4.5218   -0.2365 H   0  0  0  0  0  0  0  0  0  0  0  0
    4.8056   -3.8495   -3.1646 H   0  0  0  0  0  0  0  0  0  0  0  0
  1  2  1  0
  1 17  1  0
  1 18  1  0
  1 19  1  0
  2 16  1  0
  2  3  1  0
  3  4  2  0
  3 20  1  0
  4  5  1  0
  4 15  1  0
  5  6  1  0
  5 21  1  0
  5 22  1  0
  6 14  1  0
  6  7  1  0
  7  8  1  0
  7 23  1  0
  7 24  1  0
  8  9  1  0
  8 25  1  0
  8 26  1  0
  9 13  1  0
  9 10  1  0
  9 27  1  6
 10 11  1  0
 11 12  1  0
 11 28  1  0
 11 29  1  0
 12 13  1  0
 12 30  1  0
 12 31  1  0
 13 14  1  0
 13 32  1  1
 14 33  1  0
 14 34  1  0
 15 16  2  0
 15 35  1  0
M  END
>  <i_m_ct_stereo_status>  (160) 
1

>  <s_m_source_file>  (160) 
/var/tmp/pbs.5076255.sched01/tmp8yzwbncg/40d_vk9m1l.sdf

>  <i_m_source_file_index>  (160) 
26

>  <i_lp_mmshare_version>  (160) 
48012

>  <i_f3d_flags>  (160) 
0

>  <s_epik_input>  (160) 
W0NIM11uMVtjSF1jKFtjSF1uMSlbQ0gyXU4oW0NIMl1bQ0gyXTIpW0NIMl1bQ0BASF0oW0NASF0yMylbQ0gyXVtDSDJdTzM=

>  <s_epik_cmdline>  (160) 
J2VwaWtfcHl0aG9uJywgJy1waHQnLCAnMi4wJywgJy1waCcsICc3LjAnLCAnLXRuJywgJzgnLCAnLW1hJywgJzIwMCcsICctaW1hZScsICc8aW5maWxlLm1hZT4nLCAnLW9tYWUnLCAnPG91dGZpbGUubWFlPic=

>  <r_lp_tautomer_probability>  (160) 
1

>  <r_epik_Ionization_Penalty>  (160) 
1.25499

>  <r_epik_Ionization_Penalty_Charging>  (160) 
0

>  <r_epik_Ionization_Penalty_Neutral>  (160) 
1.25499

>  <r_epik_State_Penalty>  (160) 
1.32484

>  <r_epik_Charging_Adjusted_Penalty>  (160) 
1.32484

>  <i_epik_Tot_Q>  (160) 
0

>  <i_epik_Tot_abs_Q>  (160) 
0

>  <s_lp_Force_Field>  (160) 
OPLS3e

>  <r_lp_Energy>  (160) 
14.7327

>  <b_lp_Chiralities_Consistent>  (160) 
1

>  <s_lp_Variant>  (160) 
48:0-2

>  <s_i_glide_gridfile>  (160) 
pfpi4k_grid

>  <i_i_glide_lignum>  (160) 
26

>  <i_i_glide_rotatable_bonds>  (160) 
2

>  <r_i_docking_score>  (160) 
-3.95517

>  <r_i_glide_ligand_efficiency>  (160) 
-0.247198

>  <r_i_glide_ligand_efficiency_sa>  (160) 
-0.622901

>  <r_i_glide_ligand_efficiency_ln>  (160) 
-1.0484

>  <r_i_glide_gscore>  (160) 
-3.95517

>  <r_i_glide_lipo>  (160) 
-0.506703

>  <r_i_glide_hbond>  (160) 
-0.331676

>  <r_i_glide_metal>  (160) 
-0

>  <r_i_glide_rewards>  (160) 
-2.11079

>  <r_i_glide_evdw>  (160) 
-21.9422

>  <r_i_glide_ecoul>  (160) 
-3.98688

>  <r_i_glide_erotb>  (160) 
0.689141

>  <r_i_glide_esite>  (160) 
0

>  <r_i_glide_emodel>  (160) 
-31.0211

>  <r_i_glide_energy>  (160) 
-25.9291

>  <r_i_glide_einternal>  (160) 
2.30521

>  <r_i_glide_intrahb_reward>  (160) 
-0

>  <i_i_glide_confnum>  (160) 
3

>  <i_i_glide_posenum>  (160) 
5

>  <r_i_glide_eff_state_penalty>  (160) 
0

>  <ligand_id>  (160) 
48

>  <original_smiles>  (160) 
Cn1cc(CN2CCC3OCCC3C2)cn1

>  <smiles>  (160) 
[H]c1nn(C([H])([H])[H])c([H])c1C([H])([H])N1C([H])([H])C([H])([H])C2([H])OC([H])([H])C([H])([H])C2([H])C1([H])[H]

$$$$
48:1:1
     RDKit          3D

 35 37  0  0  1  0  0  0  0  0999 V2000
    0.9498   -7.2019    2.5358 C   0  0  0  0  0  0  0  0  0  0  0  0
    1.7467   -6.2147    1.8412 N   0  0  0  0  0  0  0  0  0  0  0  0
    2.8949   -5.5542    2.2324 C   0  0  0  0  0  0  0  0  0  0  0  0
    3.2666   -4.7338    1.1839 C   0  0  0  0  0  0  0  0  0  0  0  0
    4.5037   -3.8458    1.1020 C   0  0  0  0  0  0  0  0  0  0  0  0
    4.8542   -3.3623   -0.2433 N   0  0  0  0  0  0  0  0  0  0  0  0
    5.0130   -4.4927   -1.1873 C   0  0  0  0  0  0  0  0  0  0  0  0
    5.1848   -4.0518   -2.6633 C   0  0  0  0  0  0  0  0  0  0  0  0
    4.1173   -3.0139   -3.0165 C   0  0  2  0  0  0  0  0  0  0  0  0
    4.2217   -2.4285   -4.3036 O   0  0  0  0  0  0  0  0  0  0  0  0
    3.5509   -1.1643   -4.2555 C   0  0  0  0  0  0  0  0  0  0  0  0
    3.4486   -0.7850   -2.7746 C   0  0  0  0  0  0  0  0  0  0  0  0
    4.3012   -1.8390   -2.0904 C   0  0  1  0  0  0  0  0  0  0  0  0
    3.9568   -2.2672   -0.6578 C   0  0  0  0  0  0  0  0  0  0  0  0
    2.2388   -4.9673    0.2329 C   0  0  0  0  0  0  0  0  0  0  0  0
    1.3409   -5.8653    0.6141 N   0  0  0  0  0  0  0  0  0  0  0  0
    1.2682   -7.2569    3.5770 H   0  0  0  0  0  0  0  0  0  0  0  0
    1.0565   -8.1769    2.0491 H   0  0  0  0  0  0  0  0  0  0  0  0
   -0.0932   -6.8917    2.4837 H   0  0  0  0  0  0  0  0  0  0  0  0
    3.3539   -5.7432    3.1825 H   0  0  0  0  0  0  0  0  0  0  0  0
    4.4208   -2.9757    1.7601 H   0  0  0  0  0  0  0  0  0  0  0  0
    5.3757   -4.3837    1.4702 H   0  0  0  0  0  0  0  0  0  0  0  0
    5.8398   -5.1365   -0.8543 H   0  0  0  0  0  0  0  0  0  0  0  0
    4.1077   -5.0613   -1.1476 H   0  0  0  0  0  0  0  0  0  0  0  0
    6.1976   -3.6623   -2.8671 H   0  0  0  0  0  0  0  0  0  0  0  0
    5.0198   -4.9194   -3.3049 H   0  0  0  0  0  0  0  0  0  0  0  0
    3.1066   -3.4290   -2.9229 H   0  0  0  0  0  0  0  0  0  0  0  0
    4.1214   -0.4209   -4.8156 H   0  0  0  0  0  0  0  0  0  0  0  0
    2.5588   -1.2299   -4.6985 H   0  0  0  0  0  0  0  0  0  0  0  0
    3.8364    0.2127   -2.5932 H   0  0  0  0  0  0  0  0  0  0  0  0
    2.4177   -0.8411   -2.4267 H   0  0  0  0  0  0  0  0  0  0  0  0
    5.3383   -1.5090   -2.1279 H   0  0  0  0  0  0  0  0  0  0  0  0
    2.9063   -2.5477   -0.6059 H   0  0  0  0  0  0  0  0  0  0  0  0
    4.0747   -1.4230    0.0198 H   0  0  0  0  0  0  0  0  0  0  0  0
    2.0969   -4.5159   -0.7523 H   0  0  0  0  0  0  0  0  0  0  0  0
  1  2  1  0
  1 17  1  0
  1 18  1  0
  1 19  1  0
  2 16  1  0
  2  3  1  0
  3  4  2  0
  3 20  1  0
  4  5  1  0
  4 15  1  0
  5  6  1  0
  5 21  1  0
  5 22  1  0
  6 14  1  0
  6  7  1  0
  7  8  1  0
  7 23  1  0
  7 24  1  0
  8  9  1  0
  8 25  1  0
  8 26  1  0
  9 13  1  0
  9 10  1  0
  9 27  1  6
 10 11  1  0
 11 12  1  0
 11 28  1  0
 11 29  1  0
 12 13  1  0
 12 30  1  0
 12 31  1  0
 13 14  1  0
 13 32  1  1
 14 33  1  0
 14 34  1  0
 15 16  2  0
 15 35  1  0
M  END
>  <i_m_ct_stereo_status>  (161) 
1

>  <s_m_source_file>  (161) 
/var/tmp/pbs.5076255.sched01/tmp8yzwbncg/40d_vk9m1l.sdf

>  <i_m_source_file_index>  (161) 
26

>  <i_lp_mmshare_version>  (161) 
48012

>  <i_f3d_flags>  (161) 
0

>  <s_epik_input>  (161) 
W0NIM11uMVtjSF1jKFtjSF1uMSlbQ0gyXU4oW0NIMl1bQ0gyXTIpW0NIMl1bQ0BASF0oW0NASF0yMylbQ0gyXVtDSDJdTzM=

>  <s_epik_cmdline>  (161) 
J2VwaWtfcHl0aG9uJywgJy1waHQnLCAnMi4wJywgJy1waCcsICc3LjAnLCAnLXRuJywgJzgnLCAnLW1hJywgJzIwMCcsICctaW1hZScsICc8aW5maWxlLm1hZT4nLCAnLW9tYWUnLCAnPG91dGZpbGUubWFlPic=

>  <r_lp_tautomer_probability>  (161) 
1

>  <r_epik_Ionization_Penalty>  (161) 
1.25499

>  <r_epik_Ionization_Penalty_Charging>  (161) 
0

>  <r_epik_Ionization_Penalty_Neutral>  (161) 
1.25499

>  <r_epik_State_Penalty>  (161) 
1.32484

>  <r_epik_Charging_Adjusted_Penalty>  (161) 
1.32484

>  <i_epik_Tot_Q>  (161) 
0

>  <i_epik_Tot_abs_Q>  (161) 
0

>  <s_lp_Force_Field>  (161) 
OPLS3e

>  <r_lp_Energy>  (161) 
14.7327

>  <b_lp_Chiralities_Consistent>  (161) 
1

>  <s_lp_Variant>  (161) 
48:0-2

>  <s_i_glide_gridfile>  (161) 
pfpi4k_grid

>  <i_i_glide_lignum>  (161) 
26

>  <i_i_glide_rotatable_bonds>  (161) 
2

>  <r_i_docking_score>  (161) 
-3.83145

>  <r_i_glide_ligand_efficiency>  (161) 
-0.239466

>  <r_i_glide_ligand_efficiency_sa>  (161) 
-0.603416

>  <r_i_glide_ligand_efficiency_ln>  (161) 
-1.0156

>  <r_i_glide_gscore>  (161) 
-3.83145

>  <r_i_glide_lipo>  (161) 
-0.0958584

>  <r_i_glide_hbond>  (161) 
-0.48

>  <r_i_glide_metal>  (161) 
-0

>  <r_i_glide_rewards>  (161) 
-1.90024

>  <r_i_glide_evdw>  (161) 
-16.5258

>  <r_i_glide_ecoul>  (161) 
-7.85961

>  <r_i_glide_erotb>  (161) 
0.689141

>  <r_i_glide_esite>  (161) 
-0.0392644

>  <r_i_glide_emodel>  (161) 
-28.4089

>  <r_i_glide_energy>  (161) 
-24.3854

>  <r_i_glide_einternal>  (161) 
3.51727

>  <r_i_glide_intrahb_reward>  (161) 
-0

>  <i_i_glide_confnum>  (161) 
3

>  <i_i_glide_posenum>  (161) 
2

>  <r_i_glide_eff_state_penalty>  (161) 
0

>  <ligand_id>  (161) 
48

>  <original_smiles>  (161) 
Cn1cc(CN2CCC3OCCC3C2)cn1

>  <smiles>  (161) 
[H]c1nn(C([H])([H])[H])c([H])c1C([H])([H])N1C([H])([H])C([H])([H])C2([H])OC([H])([H])C([H])([H])C2([H])C1([H])[H]

$$$$
48:1:2
     RDKit          3D

 35 37  0  0  1  0  0  0  0  0999 V2000
    0.0282   -8.0225    2.4523 C   0  0  0  0  0  0  0  0  0  0  0  0
    1.0583   -7.2601    1.8279 N   0  0  0  0  0  0  0  0  0  0  0  0
    2.4336   -7.2852    1.9370 C   0  0  0  0  0  0  0  0  0  0  0  0
    2.9379   -6.3329    1.0898 C   0  0  0  0  0  0  0  0  0  0  0  0
    4.4188   -5.9759    0.8566 C   0  0  0  0  0  0  0  0  0  0  0  0
    4.6952   -4.5530    0.5918 N   0  0  0  0  0  0  0  0  0  0  0  0
    6.1461   -4.2891    0.5709 C   0  0  0  0  0  0  0  0  0  0  0  0
    6.4562   -2.7972    0.2476 C   0  0  0  0  0  0  0  0  0  0  0  0
    5.7714   -2.4025   -1.0674 C   0  0  2  0  0  0  0  0  0  0  0  0
    5.7963   -1.0490   -1.4834 O   0  0  0  0  0  0  0  0  0  0  0  0
    4.6876   -0.8514   -2.3776 C   0  0  0  0  0  0  0  0  0  0  0  0
    3.6749   -1.9654   -2.0911 C   0  0  0  0  0  0  0  0  0  0  0  0
    4.2943   -2.6219   -0.8689 C   0  0  1  0  0  0  0  0  0  0  0  0
    4.0120   -4.1080   -0.6533 C   0  0  0  0  0  0  0  0  0  0  0  0
    1.7426   -5.8251    0.4405 C   0  0  0  0  0  0  0  0  0  0  0  0
    0.6450   -6.3396    0.9401 N   0  0  0  0  0  0  0  0  0  0  0  0
    0.4798   -8.6241    3.2367 H   0  0  0  0  0  0  0  0  0  0  0  0
   -0.4398   -8.6514    1.6939 H   0  0  0  0  0  0  0  0  0  0  0  0
   -0.7137   -7.3324    2.8597 H   0  0  0  0  0  0  0  0  0  0  0  0
    2.9179   -8.0018    2.6189 H   0  0  0  0  0  0  0  0  0  0  0  0
    5.0271   -6.2751    1.7295 H   0  0  0  0  0  0  0  0  0  0  0  0
    4.8498   -6.5794    0.0483 H   0  0  0  0  0  0  0  0  0  0  0  0
    6.5816   -4.5516    1.5464 H   0  0  0  0  0  0  0  0  0  0  0  0
    6.6143   -4.9348   -0.1831 H   0  0  0  0  0  0  0  0  0  0  0  0
    6.1087   -2.1636    1.0659 H   0  0  0  0  0  0  0  0  0  0  0  0
    7.5215   -2.6525    0.1421 H   0  0  0  0  0  0  0  0  0  0  0  0
    6.0983   -3.0541   -1.8879 H   0  0  0  0  0  0  0  0  0  0  0  0
    4.2614    0.1334   -2.2201 H   0  0  0  0  0  0  0  0  0  0  0  0
    5.0078   -0.9066   -3.4139 H   0  0  0  0  0  0  0  0  0  0  0  0
    2.6696   -1.5746   -1.9137 H   0  0  0  0  0  0  0  0  0  0  0  0
    3.6009   -2.6610   -2.9272 H   0  0  0  0  0  0  0  0  0  0  0  0
    3.9215   -2.0714    0.0067 H   0  0  0  0  0  0  0  0  0  0  0  0
    4.3397   -4.7138   -1.5190 H   0  0  0  0  0  0  0  0  0  0  0  0
    2.9836   -4.0270   -0.5467 H   0  0  0  0  0  0  0  0  0  0  0  0
    1.5927   -5.1156   -0.3233 H   0  0  0  0  0  0  0  0  0  0  0  0
  1  2  1  0
  1 17  1  0
  1 18  1  0
  1 19  1  0
  2 16  1  0
  2  3  1  0
  3  4  2  0
  3 20  1  0
  4  5  1  0
  4 15  1  0
  5  6  1  0
  5 21  1  0
  5 22  1  0
  6 14  1  0
  6  7  1  0
  7  8  1  0
  7 23  1  0
  7 24  1  0
  8  9  1  0
  8 25  1  0
  8 26  1  0
  9 13  1  0
  9 10  1  0
  9 27  1  6
 10 11  1  0
 11 12  1  0
 11 28  1  0
 11 29  1  0
 12 13  1  0
 12 30  1  0
 12 31  1  0
 13 14  1  0
 13 32  1  1
 14 33  1  0
 14 34  1  0
 15 16  2  0
 15 35  1  0
M  END
>  <i_m_ct_stereo_status>  (162) 
1

>  <s_m_source_file>  (162) 
/var/tmp/pbs.5076255.sched01/tmp8yzwbncg/40d_vk9m1l.sdf

>  <i_m_source_file_index>  (162) 
26

>  <i_lp_mmshare_version>  (162) 
48012

>  <i_f3d_flags>  (162) 
0

>  <s_epik_input>  (162) 
W0NIM11uMVtjSF1jKFtjSF1uMSlbQ0gyXU4oW0NIMl1bQ0gyXTIpW0NIMl1bQ0BASF0oW0NASF0yMylbQ0gyXVtDSDJdTzM=

>  <s_epik_cmdline>  (162) 
J2VwaWtfcHl0aG9uJywgJy1waHQnLCAnMi4wJywgJy1waCcsICc3LjAnLCAnLXRuJywgJzgnLCAnLW1hJywgJzIwMCcsICctaW1hZScsICc8aW5maWxlLm1hZT4nLCAnLW9tYWUnLCAnPG91dGZpbGUubWFlPic=

>  <r_lp_tautomer_probability>  (162) 
1

>  <r_epik_Ionization_Penalty>  (162) 
1.25499

>  <r_epik_Ionization_Penalty_Charging>  (162) 
0

>  <r_epik_Ionization_Penalty_Neutral>  (162) 
1.25499

>  <r_epik_State_Penalty>  (162) 
1.32484

>  <r_epik_Charging_Adjusted_Penalty>  (162) 
1.32484

>  <i_epik_Tot_Q>  (162) 
0

>  <i_epik_Tot_abs_Q>  (162) 
0

>  <s_lp_Force_Field>  (162) 
OPLS3e

>  <r_lp_Energy>  (162) 
14.7327

>  <b_lp_Chiralities_Consistent>  (162) 
1

>  <s_lp_Variant>  (162) 
48:0-2

>  <s_i_glide_gridfile>  (162) 
pfpi4k_grid

>  <i_i_glide_lignum>  (162) 
26

>  <i_i_glide_rotatable_bonds>  (162) 
2

>  <r_i_docking_score>  (162) 
-3.38645

>  <r_i_glide_ligand_efficiency>  (162) 
-0.211653

>  <r_i_glide_ligand_efficiency_sa>  (162) 
-0.533333

>  <r_i_glide_ligand_efficiency_ln>  (162) 
-0.897647

>  <r_i_glide_gscore>  (162) 
-3.38645

>  <r_i_glide_lipo>  (162) 
-0.262064

>  <r_i_glide_hbond>  (162) 
-0.224539

>  <r_i_glide_metal>  (162) 
-0

>  <r_i_glide_rewards>  (162) 
-1.90024

>  <r_i_glide_evdw>  (162) 
-16.2939

>  <r_i_glide_ecoul>  (162) 
-5.51162

>  <r_i_glide_erotb>  (162) 
0.689141

>  <r_i_glide_esite>  (162) 
-0.0473172

>  <r_i_glide_emodel>  (162) 
-24.784

>  <r_i_glide_energy>  (162) 
-21.8055

>  <r_i_glide_einternal>  (162) 
1.12305

>  <r_i_glide_intrahb_reward>  (162) 
-0

>  <i_i_glide_confnum>  (162) 
2

>  <i_i_glide_posenum>  (162) 
4

>  <r_i_glide_eff_state_penalty>  (162) 
0

>  <ligand_id>  (162) 
48

>  <original_smiles>  (162) 
Cn1cc(CN2CCC3OCCC3C2)cn1

>  <smiles>  (162) 
[H]c1nn(C([H])([H])[H])c([H])c1C([H])([H])N1C([H])([H])C([H])([H])C2([H])OC([H])([H])C([H])([H])C2([H])C1([H])[H]

$$$$
49:0:0
     RDKit          3D

 86 93  0  0  1  0  0  0  0  0999 V2000
    5.5543   -9.7276    9.5252 C   0  0  0  0  0  0  0  0  0  0  0  0
    5.8331   -8.9445    8.3812 O   0  0  0  0  0  0  0  0  0  0  0  0
    5.6814   -9.4814    7.1653 C   0  0  0  0  0  0  0  0  0  0  0  0
    5.3424  -10.6430    6.9383 O   0  0  0  0  0  0  0  0  0  0  0  0
    6.0945   -8.5001    6.0576 C   0  0  2  0  0  0  0  0  0  0  0  0
    5.4460   -7.1078    6.1237 C   0  0  0  0  0  0  0  0  0  0  0  0
    5.0267   -7.0180    4.6563 C   0  0  1  0  0  0  0  0  0  0  0  0
    4.4180   -5.7810    4.2774 O   0  0  0  0  0  0  0  0  0  0  0  0
    5.2762   -4.6504    4.2951 C   0  0  0  0  0  0  0  0  0  0  0  0
    6.2066   -7.5822    3.8007 C   0  0  2  0  0  0  0  0  0  0  0  0
    6.4561   -7.6496    2.2974 C   0  0  0  0  0  0  0  0  0  0  0  0
    5.4733   -6.8921    1.4689 C   0  0  0  0  0  0  0  0  0  0  0  0
    5.7229   -5.8174    0.6077 C   0  0  0  0  0  0  0  0  0  0  0  0
    4.6479   -5.0634    0.0795 C   0  0  0  0  0  0  0  0  0  0  0  0
    3.3043   -5.3594    0.4833 C   0  0  0  0  0  0  0  0  0  0  0  0
    2.2161   -4.6397    0.0648 O   0  0  0  0  0  0  0  0  0  0  0  0
    2.4130   -3.5439   -0.8110 C   0  0  0  0  0  0  0  0  0  0  0  0
    3.0594   -6.4285    1.3497 C   0  0  0  0  0  0  0  0  0  0  0  0
    4.1356   -7.1961    1.7899 C   0  0  0  0  0  0  0  0  0  0  0  0
    3.6347   -8.3122    2.7078 C   0  0  1  0  0  0  0  0  0  0  0  0
    3.7512   -9.7602    2.1400 C   0  0  0  0  0  0  0  0  0  0  0  0
    3.2042  -10.8843    3.0781 C   0  0  0  0  0  0  0  0  0  0  0  0
    1.9258  -10.6263    3.8116 N   0  0  2  0  0  0  0  0  0  0  0  0
    0.7026  -11.0665    3.1092 C   0  0  0  0  0  0  0  0  0  0  0  0
    1.8056   -9.3281    4.5456 C   0  0  1  0  0  0  0  0  0  0  0  0
    3.1449   -8.8798    5.1477 C   0  0  0  0  0  0  0  0  0  0  0  0
    4.2317   -8.2831    4.1906 C   0  0  2  0  0  0  0  0  0  0  0  0
    5.7024   -8.7868    4.5902 C   0  0  2  0  0  0  0  0  0  0  0  0
    6.1174  -10.0432    4.0478 O   0  0  0  0  0  0  0  0  0  0  0  0
    7.5104  -10.3315    4.1085 C   0  0  0  0  0  0  0  0  0  0  0  0
    1.1572   -8.1973    3.7392 C   0  0  1  0  0  0  0  0  0  0  0  0
    0.9187   -6.8950    4.5361 C   0  0  0  0  0  0  0  0  0  0  0  0
   -0.2928   -6.9137    5.5021 C   0  0  0  0  0  0  0  0  0  0  0  0
   -0.6520   -5.5236    6.0847 C   0  0  0  0  0  0  0  0  0  0  0  0
    0.1832   -5.1383    7.2932 C   0  0  0  0  0  0  0  0  0  0  0  0
    1.5752   -4.9134    7.1599 C   0  0  0  0  0  0  0  0  0  0  0  0
    2.3694   -4.6395    8.2876 C   0  0  0  0  0  0  0  0  0  0  0  0
    1.7691   -4.5051    9.5549 C   0  0  0  0  0  0  0  0  0  0  0  0
    0.3718   -4.6712    9.6901 C   0  0  0  0  0  0  0  0  0  0  0  0
   -0.4221   -4.9988    8.5660 C   0  0  0  0  0  0  0  0  0  0  0  0
    2.0796   -8.0001    2.5435 C   0  0  1  0  0  0  0  0  0  0  0  0
    1.8533   -6.7852    1.8558 O   0  0  0  0  0  0  0  0  0  0  0  0
    5.7597   -9.1373   10.4184 H   0  0  0  0  0  0  0  0  0  0  0  0
    6.1739  -10.6272    9.5584 H   0  0  0  0  0  0  0  0  0  0  0  0
    4.5031  -10.0197    9.5369 H   0  0  0  0  0  0  0  0  0  0  0  0
    7.1786   -8.3925    6.1394 H   0  0  0  0  0  0  0  0  0  0  0  0
    4.5976   -7.0361    6.8030 H   0  0  0  0  0  0  0  0  0  0  0  0
    6.1796   -6.3479    6.4002 H   0  0  0  0  0  0  0  0  0  0  0  0
    4.7332   -3.7864    3.9101 H   0  0  0  0  0  0  0  0  0  0  0  0
    6.1578   -4.7863    3.6665 H   0  0  0  0  0  0  0  0  0  0  0  0
    5.5964   -4.4059    5.3076 H   0  0  0  0  0  0  0  0  0  0  0  0
    7.1309   -7.2247    4.2588 H   0  0  0  0  0  0  0  0  0  0  0  0
    7.4096   -7.1518    2.1122 H   0  0  0  0  0  0  0  0  0  0  0  0
    6.6075   -8.6638    1.9195 H   0  0  0  0  0  0  0  0  0  0  0  0
    6.7398   -5.5341    0.3617 H   0  0  0  0  0  0  0  0  0  0  0  0
    4.8624   -4.2571   -0.5891 H   0  0  0  0  0  0  0  0  0  0  0  0
    1.4491   -3.0939   -1.0306 H   0  0  0  0  0  0  0  0  0  0  0  0
    2.8421   -3.8583   -1.7626 H   0  0  0  0  0  0  0  0  0  0  0  0
    3.0398   -2.7734   -0.3577 H   0  0  0  0  0  0  0  0  0  0  0  0
    3.2701   -9.8362    1.1617 H   0  0  0  0  0  0  0  0  0  0  0  0
    4.7885  -10.0014    1.9246 H   0  0  0  0  0  0  0  0  0  0  0  0
    3.0947  -11.7921    2.4899 H   0  0  0  0  0  0  0  0  0  0  0  0
    3.9619  -11.1377    3.8123 H   0  0  0  0  0  0  0  0  0  0  0  0
    0.5515  -10.5371    2.1685 H   0  0  0  0  0  0  0  0  0  0  0  0
   -0.1827  -10.9109    3.7273 H   0  0  0  0  0  0  0  0  0  0  0  0
    0.7552  -12.1289    2.8814 H   0  0  0  0  0  0  0  0  0  0  0  0
    1.1492   -9.5354    5.3847 H   0  0  0  0  0  0  0  0  0  0  0  0
    2.9444   -8.2013    5.9679 H   0  0  0  0  0  0  0  0  0  0  0  0
    3.5151   -9.7712    5.6371 H   0  0  0  0  0  0  0  0  0  0  0  0
    7.6919  -11.2953    3.6317 H   0  0  0  0  0  0  0  0  0  0  0  0
    7.8681  -10.4067    5.1355 H   0  0  0  0  0  0  0  0  0  0  0  0
    8.1168   -9.5947    3.5793 H   0  0  0  0  0  0  0  0  0  0  0  0
    0.1760   -8.4981    3.3715 H   0  0  0  0  0  0  0  0  0  0  0  0
    1.8438   -6.6553    5.0499 H   0  0  0  0  0  0  0  0  0  0  0  0
    0.7587   -6.0568    3.8566 H   0  0  0  0  0  0  0  0  0  0  0  0
   -1.1556   -7.2704    4.9406 H   0  0  0  0  0  0  0  0  0  0  0  0
   -0.1433   -7.6325    6.3069 H   0  0  0  0  0  0  0  0  0  0  0  0
   -0.5679   -4.7454    5.3256 H   0  0  0  0  0  0  0  0  0  0  0  0
   -1.7041   -5.5194    6.3766 H   0  0  0  0  0  0  0  0  0  0  0  0
    2.0703   -4.9353    6.2037 H   0  0  0  0  0  0  0  0  0  0  0  0
    3.4319   -4.5188    8.1547 H   0  0  0  0  0  0  0  0  0  0  0  0
    2.3813   -4.2553   10.4060 H   0  0  0  0  0  0  0  0  0  0  0  0
   -0.0878   -4.5481   10.6590 H   0  0  0  0  0  0  0  0  0  0  0  0
   -1.4878   -5.1278    8.6844 H   0  0  0  0  0  0  0  0  0  0  0  0
    1.6738   -8.6781    1.7964 H   0  0  0  0  0  0  0  0  0  0  0  0
    1.9858  -11.3028    4.5739 H   0  0  0  0  0  0  0  0  0  0  0  0
  1  2  1  0
  1 43  1  0
  1 44  1  0
  1 45  1  0
  2  3  1  0
  3  4  2  0
  3  5  1  0
  5 28  1  0
  5  6  1  0
  5 46  1  6
  6  7  1  0
  6 47  1  0
  6 48  1  0
  7 27  1  0
  7  8  1  6
  7 10  1  0
  8  9  1  0
  9 49  1  0
  9 50  1  0
  9 51  1  0
 10 28  1  0
 10 11  1  0
 10 52  1  1
 11 12  1  0
 11 53  1  0
 11 54  1  0
 12 19  2  0
 12 13  1  0
 13 14  2  0
 13 55  1  0
 14 15  1  0
 14 56  1  0
 15 16  1  0
 15 18  2  0
 16 17  1  0
 17 57  1  0
 17 58  1  0
 17 59  1  0
 18 42  1  0
 18 19  1  0
 19 20  1  0
 20 27  1  0
 20 41  1  0
 20 21  1  6
 21 22  1  0
 21 60  1  0
 21 61  1  0
 22 23  1  0
 22 62  1  0
 22 63  1  0
 23 24  1  0
 23 25  1  0
 23 86  1  1
 24 64  1  0
 24 65  1  0
 24 66  1  0
 25 26  1  0
 25 31  1  0
 25 67  1  1
 27 26  1  1
 26 68  1  0
 26 69  1  0
 27 28  1  0
 28 29  1  6
 29 30  1  0
 30 70  1  0
 30 71  1  0
 30 72  1  0
 31 32  1  0
 31 41  1  0
 31 73  1  6
 32 33  1  0
 32 74  1  0
 32 75  1  0
 33 34  1  0
 33 76  1  0
 33 77  1  0
 34 35  1  0
 34 78  1  0
 34 79  1  0
 35 40  1  0
 35 36  2  0
 36 37  1  0
 36 80  1  0
 37 38  2  0
 37 81  1  0
 38 39  1  0
 38 82  1  0
 39 40  2  0
 39 83  1  0
 40 84  1  0
 41 42  1  0
 41 85  1  6
M  CHG  1  23   1
M  END
>  <i_m_ct_stereo_status>  (163) 
1

>  <s_m_source_file>  (163) 
/var/tmp/pbs.5076255.sched01/tmp8yzwbncg/40d_vk9m1l.sdf

>  <i_m_source_file_index>  (163) 
27

>  <i_lp_mmshare_version>  (163) 
48012

>  <i_f3d_flags>  (163) 
0

>  <s_epik_input>  (163) 
W0NIM11PQyg9TylbQ0BIXShbQ0gyXTEpW0NAXTIoT1tDSDNdKVtDQEhdKFtDQF0xKFtDQEBdMjNbQ0BAXTQ1NilPW0NIM10pW0NIMl1jN2M0YyhjKFtjSF1bY0hdNylPW0NIM10pT1tDQEBIXTZbQ0BASF0oW0NASF0oW0NIMl0zKU4oW0NIM10pW0NIMl1bQ0gyXTUpW0NIMl1bQ0gyXVtDSDJdYzhbY0hdW2NIXVtjSF1bY0hdW2NIXTg=

>  <s_epik_cmdline>  (163) 
J2VwaWtfcHl0aG9uJywgJy1waHQnLCAnMi4wJywgJy1waCcsICc3LjAnLCAnLXRuJywgJzgnLCAnLW1hJywgJzIwMCcsICctaW1hZScsICc8aW5maWxlLm1hZT4nLCAnLW9tYWUnLCAnPG91dGZpbGUubWFlPic=

>  <r_lp_tautomer_probability>  (163) 
1

>  <r_epik_Ionization_Penalty>  (163) 
0.017209

>  <r_epik_Ionization_Penalty_Charging>  (163) 
0.017209

>  <r_epik_Ionization_Penalty_Neutral>  (163) 
7.22123e-13

>  <r_epik_State_Penalty>  (163) 
0.0136271

>  <r_epik_Charging_Adjusted_Penalty>  (163) 
0.0308361

>  <i_epik_Tot_Q>  (163) 
1

>  <i_epik_Tot_abs_Q>  (163) 
1

>  <s_epik_Chemistry_Notes>  (163) 
This compound has an ester and may undergo hydrolysis at high or low pH.

>  <s_lp_Force_Field>  (163) 
OPLS3e

>  <r_lp_Energy>  (163) 
124.574

>  <b_lp_Chiralities_Consistent>  (163) 
1

>  <s_lp_Variant>  (163) 
49:0-1

>  <s_i_glide_gridfile>  (163) 
pfpi4k_grid

>  <i_i_glide_lignum>  (163) 
27

>  <i_i_glide_rotatable_bonds>  (163) 
9

>  <r_i_docking_score>  (163) 
-2.30513

>  <r_i_glide_ligand_efficiency>  (163) 
-0.0548842

>  <r_i_glide_ligand_efficiency_sa>  (163) 
-0.190779

>  <r_i_glide_ligand_efficiency_ln>  (163) 
-0.486555

>  <r_i_glide_gscore>  (163) 
-2.30513

>  <r_i_glide_lipo>  (163) 
-0.48274

>  <r_i_glide_hbond>  (163) 
-0.00668251

>  <r_i_glide_metal>  (163) 
-0

>  <r_i_glide_rewards>  (163) 
0

>  <r_i_glide_evdw>  (163) 
-26.4055

>  <r_i_glide_ecoul>  (163) 
-4.35476

>  <r_i_glide_erotb>  (163) 
0.158294

>  <r_i_glide_esite>  (163) 
-0.000515875

>  <r_i_glide_emodel>  (163) 
-35.0222

>  <r_i_glide_energy>  (163) 
-30.7603

>  <r_i_glide_einternal>  (163) 
2.77999

>  <r_i_glide_intrahb_reward>  (163) 
-0

>  <i_i_glide_confnum>  (163) 
2

>  <i_i_glide_posenum>  (163) 
37

>  <r_i_glide_eff_state_penalty>  (163) 
0

>  <ligand_id>  (163) 
49

>  <original_smiles>  (163) 
COC(=O)C1CC2(OC)C3Cc4ccc(OC)c5c4C46CCN(C)C(CC24C13OC)C(CCCc1ccccc1)C6O5

>  <smiles>  (163) 
[H]c1c([H])c([H])c(C([H])([H])C([H])([H])C([H])([H])C2([H])C3([H])Oc4c(OC([H])([H])[H])c([H])c([H])c5c4C34C([H])([H])C([H])([H])[N+]([H])(C([H])([H])[H])C2([H])C([H])([H])C42C3(OC([H])([H])[H])C([H])([H])C([H])(C(=O)OC([H])([H])[H])C2(OC([H])([H])[H])C3([H])C5([H])[H])c([H])c1[H]

$$$$
49:0:1
     RDKit          3D

 86 93  0  0  1  0  0  0  0  0999 V2000
    4.1534  -11.6545    8.5013 C   0  0  0  0  0  0  0  0  0  0  0  0
    4.6980  -10.7872    7.5226 O   0  0  0  0  0  0  0  0  0  0  0  0
    3.9224   -9.8026    7.0116 C   0  0  0  0  0  0  0  0  0  0  0  0
    2.8137   -9.5107    7.3883 O   0  0  0  0  0  0  0  0  0  0  0  0
    4.6989   -8.9968    5.9358 C   0  0  2  0  0  0  0  0  0  0  0  0
    4.5973   -7.4746    6.0572 C   0  0  0  0  0  0  0  0  0  0  0  0
    4.3012   -7.1739    4.5786 C   0  0  1  0  0  0  0  0  0  0  0  0
    4.2156   -5.7907    4.2477 O   0  0  0  0  0  0  0  0  0  0  0  0
    5.4250   -5.0575    4.3520 C   0  0  0  0  0  0  0  0  0  0  0  0
    5.2168   -8.1119    3.7289 C   0  0  2  0  0  0  0  0  0  0  0  0
    5.4742   -8.1987    2.2120 C   0  0  0  0  0  0  0  0  0  0  0  0
    4.8697   -7.0946    1.4087 C   0  0  0  0  0  0  0  0  0  0  0  0
    5.5367   -6.1406    0.6089 C   0  0  0  0  0  0  0  0  0  0  0  0
    4.8169   -5.0339    0.1047 C   0  0  0  0  0  0  0  0  0  0  0  0
    3.4714   -4.8118    0.4497 C   0  0  0  0  0  0  0  0  0  0  0  0
    2.7119   -3.7373    0.0537 O   0  0  0  0  0  0  0  0  0  0  0  0
    3.3451   -2.7696   -0.7714 C   0  0  0  0  0  0  0  0  0  0  0  0
    2.7999   -5.7713    1.2768 C   0  0  0  0  0  0  0  0  0  0  0  0
    3.5197   -6.8826    1.6774 C   0  0  0  0  0  0  0  0  0  0  0  0
    2.6075   -7.7750    2.5366 C   0  0  1  0  0  0  0  0  0  0  0  0
    2.2127   -9.1474    1.8998 C   0  0  0  0  0  0  0  0  0  0  0  0
    1.2472  -10.0240    2.7583 C   0  0  0  0  0  0  0  0  0  0  0  0
    0.1224   -9.3323    3.4757 N   0  0  2  0  0  0  0  0  0  0  0  0
   -1.1559   -9.2512    2.7252 C   0  0  0  0  0  0  0  0  0  0  0  0
    0.4744   -8.1194    4.2793 C   0  0  1  0  0  0  0  0  0  0  0  0
    1.8572   -8.2490    4.9143 C   0  0  0  0  0  0  0  0  0  0  0  0
    3.1187   -8.0313    4.0250 C   0  0  2  0  0  0  0  0  0  0  0  0
    4.2689   -9.0696    4.4421 C   0  0  2  0  0  0  0  0  0  0  0  0
    4.2044  -10.3690    3.8565 O   0  0  0  0  0  0  0  0  0  0  0  0
    5.3972  -11.1462    3.9089 C   0  0  0  0  0  0  0  0  0  0  0  0
    0.3289   -6.7934    3.5456 C   0  0  1  0  0  0  0  0  0  0  0  0
    0.5640   -5.5323    4.4211 C   0  0  0  0  0  0  0  0  0  0  0  0
   -0.3166   -5.4367    5.6938 C   0  0  0  0  0  0  0  0  0  0  0  0
   -0.3633   -4.0255    6.3139 C   0  0  0  0  0  0  0  0  0  0  0  0
    1.0089   -3.4909    6.6783 C   0  0  0  0  0  0  0  0  0  0  0  0
    1.7250   -2.6903    5.7608 C   0  0  0  0  0  0  0  0  0  0  0  0
    3.0130   -2.2241    6.0794 C   0  0  0  0  0  0  0  0  0  0  0  0
    3.5933   -2.5475    7.3230 C   0  0  0  0  0  0  0  0  0  0  0  0
    2.8800   -3.3423    8.2441 C   0  0  0  0  0  0  0  0  0  0  0  0
    1.5925   -3.8134    7.9225 C   0  0  0  0  0  0  0  0  0  0  0  0
    1.2827   -6.9067    2.3609 C   0  0  1  0  0  0  0  0  0  0  0  0
    1.5444   -5.6597    1.7352 O   0  0  0  0  0  0  0  0  0  0  0  0
    4.9389  -12.2779    8.9453 H   0  0  0  0  0  0  0  0  0  0  0  0
    3.4228  -12.2936    8.0073 H   0  0  0  0  0  0  0  0  0  0  0  0
    3.6505  -11.0972    9.2961 H   0  0  0  0  0  0  0  0  0  0  0  0
    5.7439   -9.2869    6.0162 H   0  0  0  0  0  0  0  0  0  0  0  0
    3.8131   -7.1269    6.7235 H   0  0  0  0  0  0  0  0  0  0  0  0
    5.5519   -7.0622    6.3853 H   0  0  0  0  0  0  0  0  0  0  0  0
    5.2483   -4.0389    4.0009 H   0  0  0  0  0  0  0  0  0  0  0  0
    6.2245   -5.4812    3.7395 H   0  0  0  0  0  0  0  0  0  0  0  0
    5.7638   -4.9898    5.3865 H   0  0  0  0  0  0  0  0  0  0  0  0
    6.1888   -8.1356    4.2083 H   0  0  0  0  0  0  0  0  0  0  0  0
    6.5447   -8.0875    2.0750 H   0  0  0  0  0  0  0  0  0  0  0  0
    5.2537   -9.1835    1.7841 H   0  0  0  0  0  0  0  0  0  0  0  0
    6.5945   -6.2344    0.4093 H   0  0  0  0  0  0  0  0  0  0  0  0
    5.3570   -4.3357   -0.5263 H   0  0  0  0  0  0  0  0  0  0  0  0
    2.6345   -1.9827   -0.9760 H   0  0  0  0  0  0  0  0  0  0  0  0
    3.6490   -3.2001   -1.7269 H   0  0  0  0  0  0  0  0  0  0  0  0
    4.2111   -2.3183   -0.2815 H   0  0  0  0  0  0  0  0  0  0  0  0
    1.8032   -8.9898    0.8996 H   0  0  0  0  0  0  0  0  0  0  0  0
    3.0970   -9.7544    1.7006 H   0  0  0  0  0  0  0  0  0  0  0  0
    0.8078  -10.7802    2.1317 H   0  0  0  0  0  0  0  0  0  0  0  0
    1.8213  -10.5779    3.4882 H   0  0  0  0  0  0  0  0  0  0  0  0
   -1.0563   -8.6568    1.8222 H   0  0  0  0  0  0  0  0  0  0  0  0
   -1.9360   -8.8223    3.3508 H   0  0  0  0  0  0  0  0  0  0  0  0
   -1.4842  -10.2395    2.4305 H   0  0  0  0  0  0  0  0  0  0  0  0
   -0.2360   -8.1172    5.0860 H   0  0  0  0  0  0  0  0  0  0  0  0
    1.8821   -7.5673    5.7591 H   0  0  0  0  0  0  0  0  0  0  0  0
    1.8762   -9.2584    5.2967 H   0  0  0  0  0  0  0  0  0  0  0  0
    5.2261  -12.0858    3.3824 H   0  0  0  0  0  0  0  0  0  0  0  0
    5.6757  -11.3973    4.9332 H   0  0  0  0  0  0  0  0  0  0  0  0
    6.2523  -10.6665    3.4260 H   0  0  0  0  0  0  0  0  0  0  0  0
   -0.6891   -6.6879    3.1721 H   0  0  0  0  0  0  0  0  0  0  0  0
    1.6217   -5.4352    4.6915 H   0  0  0  0  0  0  0  0  0  0  0  0
    0.3533   -4.6589    3.7972 H   0  0  0  0  0  0  0  0  0  0  0  0
   -1.3292   -5.7782    5.4778 H   0  0  0  0  0  0  0  0  0  0  0  0
    0.0623   -6.1309    6.4414 H   0  0  0  0  0  0  0  0  0  0  0  0
   -0.8454   -3.3247    5.6305 H   0  0  0  0  0  0  0  0  0  0  0  0
   -0.9862   -4.0419    7.2093 H   0  0  0  0  0  0  0  0  0  0  0  0
    1.2918   -2.4505    4.8003 H   0  0  0  0  0  0  0  0  0  0  0  0
    3.5576   -1.6226    5.3653 H   0  0  0  0  0  0  0  0  0  0  0  0
    4.5801   -2.1871    7.5682 H   0  0  0  0  0  0  0  0  0  0  0  0
    3.3227   -3.5931    9.1975 H   0  0  0  0  0  0  0  0  0  0  0  0
    1.0556   -4.4321    8.6279 H   0  0  0  0  0  0  0  0  0  0  0  0
    0.6822   -7.3647    1.5770 H   0  0  0  0  0  0  0  0  0  0  0  0
   -0.1083  -10.0062    4.2004 H   0  0  0  0  0  0  0  0  0  0  0  0
  1  2  1  0
  1 43  1  0
  1 44  1  0
  1 45  1  0
  2  3  1  0
  3  4  2  0
  3  5  1  0
  5 28  1  0
  5  6  1  0
  5 46  1  6
  6  7  1  0
  6 47  1  0
  6 48  1  0
  7 27  1  0
  7  8  1  6
  7 10  1  0
  8  9  1  0
  9 49  1  0
  9 50  1  0
  9 51  1  0
 10 28  1  0
 10 11  1  0
 10 52  1  1
 11 12  1  0
 11 53  1  0
 11 54  1  0
 12 19  2  0
 12 13  1  0
 13 14  2  0
 13 55  1  0
 14 15  1  0
 14 56  1  0
 15 16  1  0
 15 18  2  0
 16 17  1  0
 17 57  1  0
 17 58  1  0
 17 59  1  0
 18 42  1  0
 18 19  1  0
 19 20  1  0
 20 27  1  0
 20 41  1  0
 20 21  1  6
 21 22  1  0
 21 60  1  0
 21 61  1  0
 22 23  1  0
 22 62  1  0
 22 63  1  0
 23 24  1  0
 23 25  1  0
 23 86  1  1
 24 64  1  0
 24 65  1  0
 24 66  1  0
 25 26  1  0
 25 31  1  0
 25 67  1  1
 27 26  1  1
 26 68  1  0
 26 69  1  0
 27 28  1  0
 28 29  1  6
 29 30  1  0
 30 70  1  0
 30 71  1  0
 30 72  1  0
 31 32  1  0
 31 41  1  0
 31 73  1  6
 32 33  1  0
 32 74  1  0
 32 75  1  0
 33 34  1  0
 33 76  1  0
 33 77  1  0
 34 35  1  0
 34 78  1  0
 34 79  1  0
 35 40  1  0
 35 36  2  0
 36 37  1  0
 36 80  1  0
 37 38  2  0
 37 81  1  0
 38 39  1  0
 38 82  1  0
 39 40  2  0
 39 83  1  0
 40 84  1  0
 41 42  1  0
 41 85  1  6
M  CHG  1  23   1
M  END
>  <i_m_ct_stereo_status>  (164) 
1

>  <s_m_source_file>  (164) 
/var/tmp/pbs.5076255.sched01/tmp8yzwbncg/40d_vk9m1l.sdf

>  <i_m_source_file_index>  (164) 
27

>  <i_lp_mmshare_version>  (164) 
48012

>  <i_f3d_flags>  (164) 
0

>  <s_epik_input>  (164) 
W0NIM11PQyg9TylbQ0BIXShbQ0gyXTEpW0NAXTIoT1tDSDNdKVtDQEhdKFtDQF0xKFtDQEBdMjNbQ0BAXTQ1NilPW0NIM10pW0NIMl1jN2M0YyhjKFtjSF1bY0hdNylPW0NIM10pT1tDQEBIXTZbQ0BASF0oW0NASF0oW0NIMl0zKU4oW0NIM10pW0NIMl1bQ0gyXTUpW0NIMl1bQ0gyXVtDSDJdYzhbY0hdW2NIXVtjSF1bY0hdW2NIXTg=

>  <s_epik_cmdline>  (164) 
J2VwaWtfcHl0aG9uJywgJy1waHQnLCAnMi4wJywgJy1waCcsICc3LjAnLCAnLXRuJywgJzgnLCAnLW1hJywgJzIwMCcsICctaW1hZScsICc8aW5maWxlLm1hZT4nLCAnLW9tYWUnLCAnPG91dGZpbGUubWFlPic=

>  <r_lp_tautomer_probability>  (164) 
1

>  <r_epik_Ionization_Penalty>  (164) 
0.017209

>  <r_epik_Ionization_Penalty_Charging>  (164) 
0.017209

>  <r_epik_Ionization_Penalty_Neutral>  (164) 
7.22123e-13

>  <r_epik_State_Penalty>  (164) 
0.0136271

>  <r_epik_Charging_Adjusted_Penalty>  (164) 
0.0308361

>  <i_epik_Tot_Q>  (164) 
1

>  <i_epik_Tot_abs_Q>  (164) 
1

>  <s_epik_Chemistry_Notes>  (164) 
This compound has an ester and may undergo hydrolysis at high or low pH.

>  <s_lp_Force_Field>  (164) 
OPLS3e

>  <r_lp_Energy>  (164) 
124.574

>  <b_lp_Chiralities_Consistent>  (164) 
1

>  <s_lp_Variant>  (164) 
49:0-1

>  <s_i_glide_gridfile>  (164) 
pfpi4k_grid

>  <i_i_glide_lignum>  (164) 
27

>  <i_i_glide_rotatable_bonds>  (164) 
9

>  <r_i_docking_score>  (164) 
-2.22338

>  <r_i_glide_ligand_efficiency>  (164) 
-0.0529376

>  <r_i_glide_ligand_efficiency_sa>  (164) 
-0.184012

>  <r_i_glide_ligand_efficiency_ln>  (164) 
-0.469298

>  <r_i_glide_gscore>  (164) 
-2.22338

>  <r_i_glide_lipo>  (164) 
-0.522145

>  <r_i_glide_hbond>  (164) 
-0.0746684

>  <r_i_glide_metal>  (164) 
-0

>  <r_i_glide_rewards>  (164) 
0

>  <r_i_glide_evdw>  (164) 
-26.121

>  <r_i_glide_ecoul>  (164) 
-2.7499

>  <r_i_glide_erotb>  (164) 
0.158294

>  <r_i_glide_esite>  (164) 
-0.0663226

>  <r_i_glide_emodel>  (164) 
-31.5026

>  <r_i_glide_energy>  (164) 
-28.8709

>  <r_i_glide_einternal>  (164) 
4.83591

>  <r_i_glide_intrahb_reward>  (164) 
-0

>  <i_i_glide_confnum>  (164) 
2

>  <i_i_glide_posenum>  (164) 
31

>  <r_i_glide_eff_state_penalty>  (164) 
0

>  <ligand_id>  (164) 
49

>  <original_smiles>  (164) 
COC(=O)C1CC2(OC)C3Cc4ccc(OC)c5c4C46CCN(C)C(CC24C13OC)C(CCCc1ccccc1)C6O5

>  <smiles>  (164) 
[H]c1c([H])c([H])c(C([H])([H])C([H])([H])C([H])([H])C2([H])C3([H])Oc4c(OC([H])([H])[H])c([H])c([H])c5c4C34C([H])([H])C([H])([H])[N+]([H])(C([H])([H])[H])C2([H])C([H])([H])C42C3(OC([H])([H])[H])C([H])([H])C([H])(C(=O)OC([H])([H])[H])C2(OC([H])([H])[H])C3([H])C5([H])[H])c([H])c1[H]

$$$$
49:0:2
     RDKit          3D

 86 93  0  0  1  0  0  0  0  0999 V2000
    6.1526   -8.4266    9.4783 C   0  0  0  0  0  0  0  0  0  0  0  0
    6.2986   -7.6001    8.3383 O   0  0  0  0  0  0  0  0  0  0  0  0
    6.4047   -8.1591    7.1246 C   0  0  0  0  0  0  0  0  0  0  0  0
    6.4135   -9.3706    6.8988 O   0  0  0  0  0  0  0  0  0  0  0  0
    6.6115   -7.1036    6.0265 C   0  0  2  0  0  0  0  0  0  0  0  0
    5.5859   -5.9579    5.9999 C   0  0  0  0  0  0  0  0  0  0  0  0
    5.2911   -5.9934    4.4939 C   0  0  1  0  0  0  0  0  0  0  0  0
    4.3936   -4.9861    4.0322 O   0  0  0  0  0  0  0  0  0  0  0  0
    4.8965   -3.6586    4.0596 C   0  0  0  0  0  0  0  0  0  0  0  0
    6.6640   -6.1913    3.7752 C   0  0  2  0  0  0  0  0  0  0  0  0
    7.0501   -6.1849    2.2916 C   0  0  0  0  0  0  0  0  0  0  0  0
    5.9598   -5.7634    1.3611 C   0  0  0  0  0  0  0  0  0  0  0  0
    5.9675   -4.6652    0.4826 C   0  0  0  0  0  0  0  0  0  0  0  0
    4.7661   -4.2588   -0.1440 C   0  0  0  0  0  0  0  0  0  0  0  0
    3.5381   -4.9028    0.1622 C   0  0  0  0  0  0  0  0  0  0  0  0
    2.3082   -4.5179   -0.3259 O   0  0  0  0  0  0  0  0  0  0  0  0
    2.2750   -3.4708   -1.2855 C   0  0  0  0  0  0  0  0  0  0  0  0
    3.5400   -6.0086    1.0348 C   0  0  0  0  0  0  0  0  0  0  0  0
    4.7496   -6.4355    1.5722 C   0  0  0  0  0  0  0  0  0  0  0  0
    4.5056   -7.6451    2.4787 C   0  0  1  0  0  0  0  0  0  0  0  0
    5.0919   -8.9946    1.9640 C   0  0  0  0  0  0  0  0  0  0  0  0
    4.8153  -10.2273    2.8817 C   0  0  0  0  0  0  0  0  0  0  0  0
    3.4612  -10.3443    3.5113 N   0  0  2  0  0  0  0  0  0  0  0  0
    2.4810  -11.1215    2.7198 C   0  0  0  0  0  0  0  0  0  0  0  0
    2.9044   -9.1344    4.2004 C   0  0  1  0  0  0  0  0  0  0  0  0
    3.9919   -8.3105    4.8951 C   0  0  0  0  0  0  0  0  0  0  0  0
    4.9407   -7.4382    4.0103 C   0  0  2  0  0  0  0  0  0  0  0  0
    6.4539   -7.5000    4.5354 C   0  0  2  0  0  0  0  0  0  0  0  0
    7.2603   -8.5878    4.0754 O   0  0  0  0  0  0  0  0  0  0  0  0
    8.6679   -8.4499    4.2506 C   0  0  0  0  0  0  0  0  0  0  0  0
    2.0353   -8.2254    3.3278 C   0  0  1  0  0  0  0  0  0  0  0  0
    1.3602   -7.0443    4.0720 C   0  0  0  0  0  0  0  0  0  0  0  0
    0.5541   -7.4274    5.3390 C   0  0  0  0  0  0  0  0  0  0  0  0
   -0.1869   -6.2480    5.9949 C   0  0  0  0  0  0  0  0  0  0  0  0
    0.6878   -5.0238    6.1838 C   0  0  0  0  0  0  0  0  0  0  0  0
    0.6006   -3.9506    5.2737 C   0  0  0  0  0  0  0  0  0  0  0  0
    1.4369   -2.8294    5.4182 C   0  0  0  0  0  0  0  0  0  0  0  0
    2.3623   -2.7757    6.4781 C   0  0  0  0  0  0  0  0  0  0  0  0
    2.4539   -3.8463    7.3892 C   0  0  0  0  0  0  0  0  0  0  0  0
    1.6182   -4.9702    7.2423 C   0  0  0  0  0  0  0  0  0  0  0  0
    2.9471   -7.7853    2.1861 C   0  0  1  0  0  0  0  0  0  0  0  0
    2.4459   -6.6729    1.4686 O   0  0  0  0  0  0  0  0  0  0  0  0
    6.1104   -7.8000   10.3695 H   0  0  0  0  0  0  0  0  0  0  0  0
    6.9923   -9.1178    9.5833 H   0  0  0  0  0  0  0  0  0  0  0  0
    5.2267   -9.0001    9.4134 H   0  0  0  0  0  0  0  0  0  0  0  0
    7.6063   -6.6893    6.1996 H   0  0  0  0  0  0  0  0  0  0  0  0
    4.6961   -6.1307    6.6043 H   0  0  0  0  0  0  0  0  0  0  0  0
    6.0394   -5.0171    6.3165 H   0  0  0  0  0  0  0  0  0  0  0  0
    4.1561   -2.9945    3.6139 H   0  0  0  0  0  0  0  0  0  0  0  0
    5.8144   -3.5527    3.4848 H   0  0  0  0  0  0  0  0  0  0  0  0
    5.0717   -3.3158    5.0792 H   0  0  0  0  0  0  0  0  0  0  0  0
    7.4063   -5.5803    4.2944 H   0  0  0  0  0  0  0  0  0  0  0  0
    7.8302   -5.4336    2.1742 H   0  0  0  0  0  0  0  0  0  0  0  0
    7.5197   -7.1102    1.9607 H   0  0  0  0  0  0  0  0  0  0  0  0
    6.8740   -4.0984    0.3264 H   0  0  0  0  0  0  0  0  0  0  0  0
    4.8045   -3.4117   -0.8096 H   0  0  0  0  0  0  0  0  0  0  0  0
    1.2440   -3.3175   -1.5977 H   0  0  0  0  0  0  0  0  0  0  0  0
    2.8514   -3.7082   -2.1810 H   0  0  0  0  0  0  0  0  0  0  0  0
    2.6383   -2.5358   -0.8596 H   0  0  0  0  0  0  0  0  0  0  0  0
    4.7405   -9.2098    0.9510 H   0  0  0  0  0  0  0  0  0  0  0  0
    6.1715   -8.9164    1.8470 H   0  0  0  0  0  0  0  0  0  0  0  0
    5.0188  -11.1356    2.3170 H   0  0  0  0  0  0  0  0  0  0  0  0
    5.5407  -10.2480    3.6918 H   0  0  0  0  0  0  0  0  0  0  0  0
    2.2862  -10.6304    1.7680 H   0  0  0  0  0  0  0  0  0  0  0  0
    1.5341  -11.2346    3.2556 H   0  0  0  0  0  0  0  0  0  0  0  0
    2.8611  -12.1242    2.5111 H   0  0  0  0  0  0  0  0  0  0  0  0
    2.2679   -9.5503    4.9754 H   0  0  0  0  0  0  0  0  0  0  0  0
    3.5125   -7.6915    5.6507 H   0  0  0  0  0  0  0  0  0  0  0  0
    4.5555   -9.0544    5.4454 H   0  0  0  0  0  0  0  0  0  0  0  0
    9.1617   -9.3201    3.8193 H   0  0  0  0  0  0  0  0  0  0  0  0
    8.9446   -8.4077    5.3045 H   0  0  0  0  0  0  0  0  0  0  0  0
    9.0731   -7.5705    3.7469 H   0  0  0  0  0  0  0  0  0  0  0  0
    1.2088   -8.8023    2.9105 H   0  0  0  0  0  0  0  0  0  0  0  0
    2.1117   -6.2890    4.3102 H   0  0  0  0  0  0  0  0  0  0  0  0
    0.6729   -6.5583    3.3778 H   0  0  0  0  0  0  0  0  0  0  0  0
   -0.1596   -8.2204    5.1082 H   0  0  0  0  0  0  0  0  0  0  0  0
    1.2327   -7.8385    6.0835 H   0  0  0  0  0  0  0  0  0  0  0  0
   -1.0563   -5.9829    5.3927 H   0  0  0  0  0  0  0  0  0  0  0  0
   -0.5737   -6.5491    6.9688 H   0  0  0  0  0  0  0  0  0  0  0  0
   -0.0944   -3.9974    4.4500 H   0  0  0  0  0  0  0  0  0  0  0  0
    1.3730   -2.0189    4.7080 H   0  0  0  0  0  0  0  0  0  0  0  0
    3.0034   -1.9157    6.5878 H   0  0  0  0  0  0  0  0  0  0  0  0
    3.1689   -3.8095    8.1971 H   0  0  0  0  0  0  0  0  0  0  0  0
    1.7009   -5.7961    7.9330 H   0  0  0  0  0  0  0  0  0  0  0  0
    2.8142   -8.5518    1.4242 H   0  0  0  0  0  0  0  0  0  0  0  0
    3.6404  -10.9738    4.2829 H   0  0  0  0  0  0  0  0  0  0  0  0
  1  2  1  0
  1 43  1  0
  1 44  1  0
  1 45  1  0
  2  3  1  0
  3  4  2  0
  3  5  1  0
  5 28  1  0
  5  6  1  0
  5 46  1  6
  6  7  1  0
  6 47  1  0
  6 48  1  0
  7 27  1  0
  7  8  1  6
  7 10  1  0
  8  9  1  0
  9 49  1  0
  9 50  1  0
  9 51  1  0
 10 28  1  0
 10 11  1  0
 10 52  1  1
 11 12  1  0
 11 53  1  0
 11 54  1  0
 12 19  2  0
 12 13  1  0
 13 14  2  0
 13 55  1  0
 14 15  1  0
 14 56  1  0
 15 16  1  0
 15 18  2  0
 16 17  1  0
 17 57  1  0
 17 58  1  0
 17 59  1  0
 18 42  1  0
 18 19  1  0
 19 20  1  0
 20 27  1  0
 20 41  1  0
 20 21  1  6
 21 22  1  0
 21 60  1  0
 21 61  1  0
 22 23  1  0
 22 62  1  0
 22 63  1  0
 23 24  1  0
 23 25  1  0
 23 86  1  1
 24 64  1  0
 24 65  1  0
 24 66  1  0
 25 26  1  0
 25 31  1  0
 25 67  1  1
 27 26  1  1
 26 68  1  0
 26 69  1  0
 27 28  1  0
 28 29  1  6
 29 30  1  0
 30 70  1  0
 30 71  1  0
 30 72  1  0
 31 32  1  0
 31 41  1  0
 31 73  1  6
 32 33  1  0
 32 74  1  0
 32 75  1  0
 33 34  1  0
 33 76  1  0
 33 77  1  0
 34 35  1  0
 34 78  1  0
 34 79  1  0
 35 40  1  0
 35 36  2  0
 36 37  1  0
 36 80  1  0
 37 38  2  0
 37 81  1  0
 38 39  1  0
 38 82  1  0
 39 40  2  0
 39 83  1  0
 40 84  1  0
 41 42  1  0
 41 85  1  6
M  CHG  1  23   1
M  END
>  <i_m_ct_stereo_status>  (165) 
1

>  <s_m_source_file>  (165) 
/var/tmp/pbs.5076255.sched01/tmp8yzwbncg/40d_vk9m1l.sdf

>  <i_m_source_file_index>  (165) 
27

>  <i_lp_mmshare_version>  (165) 
48012

>  <i_f3d_flags>  (165) 
0

>  <s_epik_input>  (165) 
W0NIM11PQyg9TylbQ0BIXShbQ0gyXTEpW0NAXTIoT1tDSDNdKVtDQEhdKFtDQF0xKFtDQEBdMjNbQ0BAXTQ1NilPW0NIM10pW0NIMl1jN2M0YyhjKFtjSF1bY0hdNylPW0NIM10pT1tDQEBIXTZbQ0BASF0oW0NASF0oW0NIMl0zKU4oW0NIM10pW0NIMl1bQ0gyXTUpW0NIMl1bQ0gyXVtDSDJdYzhbY0hdW2NIXVtjSF1bY0hdW2NIXTg=

>  <s_epik_cmdline>  (165) 
J2VwaWtfcHl0aG9uJywgJy1waHQnLCAnMi4wJywgJy1waCcsICc3LjAnLCAnLXRuJywgJzgnLCAnLW1hJywgJzIwMCcsICctaW1hZScsICc8aW5maWxlLm1hZT4nLCAnLW9tYWUnLCAnPG91dGZpbGUubWFlPic=

>  <r_lp_tautomer_probability>  (165) 
1

>  <r_epik_Ionization_Penalty>  (165) 
0.017209

>  <r_epik_Ionization_Penalty_Charging>  (165) 
0.017209

>  <r_epik_Ionization_Penalty_Neutral>  (165) 
7.22123e-13

>  <r_epik_State_Penalty>  (165) 
0.0136271

>  <r_epik_Charging_Adjusted_Penalty>  (165) 
0.0308361

>  <i_epik_Tot_Q>  (165) 
1

>  <i_epik_Tot_abs_Q>  (165) 
1

>  <s_epik_Chemistry_Notes>  (165) 
This compound has an ester and may undergo hydrolysis at high or low pH.

>  <s_lp_Force_Field>  (165) 
OPLS3e

>  <r_lp_Energy>  (165) 
124.574

>  <b_lp_Chiralities_Consistent>  (165) 
1

>  <s_lp_Variant>  (165) 
49:0-1

>  <s_i_glide_gridfile>  (165) 
pfpi4k_grid

>  <i_i_glide_lignum>  (165) 
27

>  <i_i_glide_rotatable_bonds>  (165) 
9

>  <r_i_docking_score>  (165) 
-2.02281

>  <r_i_glide_ligand_efficiency>  (165) 
-0.0481621

>  <r_i_glide_ligand_efficiency_sa>  (165) 
-0.167413

>  <r_i_glide_ligand_efficiency_ln>  (165) 
-0.426963

>  <r_i_glide_gscore>  (165) 
-2.02281

>  <r_i_glide_lipo>  (165) 
-0.38635

>  <r_i_glide_hbond>  (165) 
0

>  <r_i_glide_metal>  (165) 
-0

>  <r_i_glide_rewards>  (165) 
0

>  <r_i_glide_evdw>  (165) 
-23.5063

>  <r_i_glide_ecoul>  (165) 
-4.01216

>  <r_i_glide_erotb>  (165) 
0.158294

>  <r_i_glide_esite>  (165) 
-0.0176131

>  <r_i_glide_emodel>  (165) 
-31.8108

>  <r_i_glide_energy>  (165) 
-27.5185

>  <r_i_glide_einternal>  (165) 
1.72441

>  <r_i_glide_intrahb_reward>  (165) 
-0

>  <i_i_glide_confnum>  (165) 
2

>  <i_i_glide_posenum>  (165) 
24

>  <r_i_glide_eff_state_penalty>  (165) 
0

>  <ligand_id>  (165) 
49

>  <original_smiles>  (165) 
COC(=O)C1CC2(OC)C3Cc4ccc(OC)c5c4C46CCN(C)C(CC24C13OC)C(CCCc1ccccc1)C6O5

>  <smiles>  (165) 
[H]c1c([H])c([H])c(C([H])([H])C([H])([H])C([H])([H])C2([H])C3([H])Oc4c(OC([H])([H])[H])c([H])c([H])c5c4C34C([H])([H])C([H])([H])[N+]([H])(C([H])([H])[H])C2([H])C([H])([H])C42C3(OC([H])([H])[H])C([H])([H])C([H])(C(=O)OC([H])([H])[H])C2(OC([H])([H])[H])C3([H])C5([H])[H])c([H])c1[H]

$$$$
49:1:0
     RDKit          3D

 85 92  0  0  1  0  0  0  0  0999 V2000
    3.8316  -11.2241    8.8274 C   0  0  0  0  0  0  0  0  0  0  0  0
    3.8286   -9.8796    8.3826 O   0  0  0  0  0  0  0  0  0  0  0  0
    4.8727   -9.4132    7.6871 C   0  0  0  0  0  0  0  0  0  0  0  0
    5.9305  -10.0168    7.5023 O   0  0  0  0  0  0  0  0  0  0  0  0
    4.6459   -7.9701    7.2119 C   0  0  2  0  0  0  0  0  0  0  0  0
    3.2652   -7.7018    6.6115 C   0  0  0  0  0  0  0  0  0  0  0  0
    3.7311   -7.0007    5.3320 C   0  0  1  0  0  0  0  0  0  0  0  0
    2.6795   -6.5056    4.5043 O   0  0  0  0  0  0  0  0  0  0  0  0
    1.9177   -5.4342    5.0449 C   0  0  0  0  0  0  0  0  0  0  0  0
    4.8807   -6.0254    5.7362 C   0  0  2  0  0  0  0  0  0  0  0  0
    5.6529   -4.9771    4.9469 C   0  0  0  0  0  0  0  0  0  0  0  0
    5.1057   -4.6845    3.5866 C   0  0  0  0  0  0  0  0  0  0  0  0
    4.5952   -3.4720    3.0929 C   0  0  0  0  0  0  0  0  0  0  0  0
    3.8932   -3.4475    1.8605 C   0  0  0  0  0  0  0  0  0  0  0  0
    3.6355   -4.6607    1.1545 C   0  0  0  0  0  0  0  0  0  0  0  0
    2.8882   -4.7238   -0.0034 O   0  0  0  0  0  0  0  0  0  0  0  0
    2.5779   -3.5175   -0.6736 C   0  0  0  0  0  0  0  0  0  0  0  0
    4.1411   -5.8730    1.6486 C   0  0  0  0  0  0  0  0  0  0  0  0
    4.8999   -5.8497    2.8251 C   0  0  0  0  0  0  0  0  0  0  0  0
    5.3600   -7.2677    3.1636 C   0  0  1  0  0  0  0  0  0  0  0  0
    6.8879   -7.5391    3.0628 C   0  0  0  0  0  0  0  0  0  0  0  0
    7.3080   -9.0160    3.3289 C   0  0  0  0  0  0  0  0  0  0  0  0
    6.4437  -10.0480    2.7232 N   0  0  0  0  0  0  0  0  0  0  0  0
    7.0243  -11.3766    2.9307 C   0  0  0  0  0  0  0  0  0  0  0  0
    5.0166  -10.0346    3.1224 C   0  0  1  0  0  0  0  0  0  0  0  0
    4.7445   -9.3507    4.4675 C   0  0  0  0  0  0  0  0  0  0  0  0
    4.8451   -7.8109    4.5850 C   0  0  2  0  0  0  0  0  0  0  0  0
    5.4560   -7.4140    6.0053 C   0  0  2  0  0  0  0  0  0  0  0  0
    6.8792   -7.4716    6.1061 O   0  0  0  0  0  0  0  0  0  0  0  0
    7.4449   -6.8181    7.2355 C   0  0  0  0  0  0  0  0  0  0  0  0
    4.1978   -9.3950    2.0124 C   0  0  1  0  0  0  0  0  0  0  0  0
    2.6655   -9.4485    2.2163 C   0  0  0  0  0  0  0  0  0  0  0  0
    2.0900  -10.7641    2.8280 C   0  0  0  0  0  0  0  0  0  0  0  0
    0.5541  -10.8450    2.8267 C   0  0  0  0  0  0  0  0  0  0  0  0
   -0.1227   -9.5772    3.3172 C   0  0  0  0  0  0  0  0  0  0  0  0
   -1.1765   -9.0065    2.5743 C   0  0  0  0  0  0  0  0  0  0  0  0
   -1.7887   -7.8181    3.0204 C   0  0  0  0  0  0  0  0  0  0  0  0
   -1.3714   -7.2049    4.2182 C   0  0  0  0  0  0  0  0  0  0  0  0
   -0.3596   -7.8067    4.9872 C   0  0  0  0  0  0  0  0  0  0  0  0
    0.2787   -8.9709    4.5268 C   0  0  0  0  0  0  0  0  0  0  0  0
    4.7550   -7.9826    1.8649 C   0  0  1  0  0  0  0  0  0  0  0  0
    3.9125   -7.1126    1.1279 O   0  0  0  0  0  0  0  0  0  0  0  0
    2.9333  -11.4062    9.4210 H   0  0  0  0  0  0  0  0  0  0  0  0
    4.7073  -11.4468    9.4461 H   0  0  0  0  0  0  0  0  0  0  0  0
    3.8193  -11.9027    7.9700 H   0  0  0  0  0  0  0  0  0  0  0  0
    4.7873   -7.3344    8.0861 H   0  0  0  0  0  0  0  0  0  0  0  0
    2.6908   -8.6036    6.4202 H   0  0  0  0  0  0  0  0  0  0  0  0
    2.6715   -7.0593    7.2603 H   0  0  0  0  0  0  0  0  0  0  0  0
    1.1730   -5.1425    4.3040 H   0  0  0  0  0  0  0  0  0  0  0  0
    2.5204   -4.5629    5.2931 H   0  0  0  0  0  0  0  0  0  0  0  0
    1.3889   -5.7233    5.9473 H   0  0  0  0  0  0  0  0  0  0  0  0
    4.6004   -5.5738    6.6883 H   0  0  0  0  0  0  0  0  0  0  0  0
    5.5485   -4.0404    5.4850 H   0  0  0  0  0  0  0  0  0  0  0  0
    6.7253   -5.1538    4.9155 H   0  0  0  0  0  0  0  0  0  0  0  0
    4.6910   -2.5680    3.6657 H   0  0  0  0  0  0  0  0  0  0  0  0
    3.5112   -2.5022    1.5129 H   0  0  0  0  0  0  0  0  0  0  0  0
    1.9989   -3.7592   -1.5614 H   0  0  0  0  0  0  0  0  0  0  0  0
    3.4781   -2.9938   -0.9924 H   0  0  0  0  0  0  0  0  0  0  0  0
    1.9729   -2.8596   -0.0545 H   0  0  0  0  0  0  0  0  0  0  0  0
    7.2486   -7.2452    2.0754 H   0  0  0  0  0  0  0  0  0  0  0  0
    7.4379   -6.8988    3.7520 H   0  0  0  0  0  0  0  0  0  0  0  0
    8.3127   -9.1390    2.9359 H   0  0  0  0  0  0  0  0  0  0  0  0
    7.3972   -9.2025    4.3963 H   0  0  0  0  0  0  0  0  0  0  0  0
    6.4578  -12.1391    2.3828 H   0  0  0  0  0  0  0  0  0  0  0  0
    7.0541  -11.6672    3.9862 H   0  0  0  0  0  0  0  0  0  0  0  0
    8.0465  -11.4165    2.5480 H   0  0  0  0  0  0  0  0  0  0  0  0
    4.6893  -11.0678    3.1978 H   0  0  0  0  0  0  0  0  0  0  0  0
    3.7617   -9.6121    4.8355 H   0  0  0  0  0  0  0  0  0  0  0  0
    5.4362   -9.8469    5.1374 H   0  0  0  0  0  0  0  0  0  0  0  0
    8.5254   -6.9544    7.1981 H   0  0  0  0  0  0  0  0  0  0  0  0
    7.0932   -7.2474    8.1766 H   0  0  0  0  0  0  0  0  0  0  0  0
    7.2469   -5.7428    7.2345 H   0  0  0  0  0  0  0  0  0  0  0  0
    4.3939   -9.9223    1.0823 H   0  0  0  0  0  0  0  0  0  0  0  0
    2.3624   -8.5784    2.7986 H   0  0  0  0  0  0  0  0  0  0  0  0
    2.2038   -9.2991    1.2372 H   0  0  0  0  0  0  0  0  0  0  0  0
    2.5424  -11.6409    2.3645 H   0  0  0  0  0  0  0  0  0  0  0  0
    2.3512  -10.8863    3.8734 H   0  0  0  0  0  0  0  0  0  0  0  0
    0.1791  -11.0686    1.8265 H   0  0  0  0  0  0  0  0  0  0  0  0
    0.2431  -11.6603    3.4843 H   0  0  0  0  0  0  0  0  0  0  0  0
   -1.5146   -9.4870    1.6695 H   0  0  0  0  0  0  0  0  0  0  0  0
   -2.6056   -7.4072    2.4512 H   0  0  0  0  0  0  0  0  0  0  0  0
   -1.8368   -6.2987    4.5647 H   0  0  0  0  0  0  0  0  0  0  0  0
   -0.0758   -7.3936    5.9409 H   0  0  0  0  0  0  0  0  0  0  0  0
    1.0810   -9.3954    5.1037 H   0  0  0  0  0  0  0  0  0  0  0  0
    5.5713   -8.0990    1.1479 H   0  0  0  0  0  0  0  0  0  0  0  0
  1  2  1  0
  1 43  1  0
  1 44  1  0
  1 45  1  0
  2  3  1  0
  3  4  2  0
  3  5  1  0
  5 28  1  0
  5  6  1  0
  5 46  1  1
  6  7  1  0
  6 47  1  0
  6 48  1  0
  7 27  1  0
  7  8  1  6
  7 10  1  0
  8  9  1  0
  9 49  1  0
  9 50  1  0
  9 51  1  0
 10 28  1  0
 10 11  1  0
 10 52  1  1
 11 12  1  0
 11 53  1  0
 11 54  1  0
 12 19  2  0
 12 13  1  0
 13 14  2  0
 13 55  1  0
 14 15  1  0
 14 56  1  0
 15 16  1  0
 15 18  2  0
 16 17  1  0
 17 57  1  0
 17 58  1  0
 17 59  1  0
 18 42  1  0
 18 19  1  0
 19 20  1  0
 20 27  1  0
 20 41  1  0
 20 21  1  1
 21 22  1  0
 21 60  1  0
 21 61  1  0
 22 23  1  0
 22 62  1  0
 22 63  1  0
 23 24  1  0
 23 25  1  0
 24 64  1  0
 24 65  1  0
 24 66  1  0
 25 26  1  0
 25 31  1  0
 25 67  1  1
 27 26  1  6
 26 68  1  0
 26 69  1  0
 27 28  1  0
 28 29  1  6
 29 30  1  0
 30 70  1  0
 30 71  1  0
 30 72  1  0
 31 32  1  0
 31 41  1  0
 31 73  1  6
 32 33  1  0
 32 74  1  0
 32 75  1  0
 33 34  1  0
 33 76  1  0
 33 77  1  0
 34 35  1  0
 34 78  1  0
 34 79  1  0
 35 40  1  0
 35 36  2  0
 36 37  1  0
 36 80  1  0
 37 38  2  0
 37 81  1  0
 38 39  1  0
 38 82  1  0
 39 40  2  0
 39 83  1  0
 40 84  1  0
 41 42  1  0
 41 85  1  6
M  END
>  <i_m_ct_stereo_status>  (166) 
1

>  <s_m_source_file>  (166) 
/var/tmp/pbs.5076255.sched01/tmp8yzwbncg/40d_vk9m1l.sdf

>  <i_m_source_file_index>  (166) 
28

>  <i_lp_mmshare_version>  (166) 
48012

>  <i_f3d_flags>  (166) 
0

>  <s_epik_input>  (166) 
W0NIM11PQyg9TylbQ0BIXShbQ0gyXTEpW0NAXTIoT1tDSDNdKVtDQEhdKFtDQF0xKFtDQEBdMjNbQ0BAXTQ1NilPW0NIM10pW0NIMl1jN2M0YyhjKFtjSF1bY0hdNylPW0NIM10pT1tDQEBIXTZbQ0BASF0oW0NASF0oW0NIMl0zKU4oW0NIM10pW0NIMl1bQ0gyXTUpW0NIMl1bQ0gyXVtDSDJdYzhbY0hdW2NIXVtjSF1bY0hdW2NIXTg=

>  <s_epik_cmdline>  (166) 
J2VwaWtfcHl0aG9uJywgJy1waHQnLCAnMi4wJywgJy1waCcsICc3LjAnLCAnLXRuJywgJzgnLCAnLW1hJywgJzIwMCcsICctaW1hZScsICc8aW5maWxlLm1hZT4nLCAnLW9tYWUnLCAnPG91dGZpbGUubWFlPic=

>  <r_lp_tautomer_probability>  (166) 
1

>  <r_epik_Ionization_Penalty>  (166) 
2.10533

>  <r_epik_Ionization_Penalty_Charging>  (166) 
0

>  <r_epik_Ionization_Penalty_Neutral>  (166) 
2.10533

>  <r_epik_State_Penalty>  (166) 
2.24182

>  <r_epik_Charging_Adjusted_Penalty>  (166) 
2.24182

>  <i_epik_Tot_Q>  (166) 
0

>  <i_epik_Tot_abs_Q>  (166) 
0

>  <s_epik_Chemistry_Notes>  (166) 
This compound has an ester and may undergo hydrolysis at high or low pH.

>  <s_lp_Force_Field>  (166) 
OPLS3e

>  <r_lp_Energy>  (166) 
115.726

>  <b_lp_Chiralities_Consistent>  (166) 
1

>  <s_lp_Variant>  (166) 
49:0-2

>  <s_i_glide_gridfile>  (166) 
pfpi4k_grid

>  <i_i_glide_lignum>  (166) 
28

>  <i_i_glide_rotatable_bonds>  (166) 
9

>  <r_i_docking_score>  (166) 
-1.85778

>  <r_i_glide_ligand_efficiency>  (166) 
-0.0442328

>  <r_i_glide_ligand_efficiency_sa>  (166) 
-0.153754

>  <r_i_glide_ligand_efficiency_ln>  (166) 
-0.392129

>  <r_i_glide_gscore>  (166) 
-1.85778

>  <r_i_glide_lipo>  (166) 
-0.386676

>  <r_i_glide_hbond>  (166) 
0

>  <r_i_glide_metal>  (166) 
-0

>  <r_i_glide_rewards>  (166) 
0

>  <r_i_glide_evdw>  (166) 
-29.2073

>  <r_i_glide_ecoul>  (166) 
-1.11412

>  <r_i_glide_erotb>  (166) 
0.160087

>  <r_i_glide_esite>  (166) 
-0.00370559

>  <r_i_glide_emodel>  (166) 
-30.6172

>  <r_i_glide_energy>  (166) 
-30.3214

>  <r_i_glide_einternal>  (166) 
4.82569

>  <r_i_glide_intrahb_reward>  (166) 
-0

>  <i_i_glide_confnum>  (166) 
2

>  <i_i_glide_posenum>  (166) 
25

>  <r_i_glide_eff_state_penalty>  (166) 
0

>  <ligand_id>  (166) 
49

>  <original_smiles>  (166) 
COC(=O)C1CC2(OC)C3Cc4ccc(OC)c5c4C46CCN(C)C(CC24C13OC)C(CCCc1ccccc1)C6O5

>  <smiles>  (166) 
[H]c1c([H])c([H])c(C([H])([H])C([H])([H])C([H])([H])C2([H])C3([H])Oc4c(OC([H])([H])[H])c([H])c([H])c5c4C34C([H])([H])C([H])([H])N(C([H])([H])[H])C2([H])C([H])([H])C42C3(OC([H])([H])[H])C([H])([H])C([H])(C(=O)OC([H])([H])[H])C2(OC([H])([H])[H])C3([H])C5([H])[H])c([H])c1[H]

$$$$
49:1:1
     RDKit          3D

 85 92  0  0  1  0  0  0  0  0999 V2000
    4.8520   -9.3717    9.5357 C   0  0  0  0  0  0  0  0  0  0  0  0
    5.2662   -8.6558    8.3885 O   0  0  0  0  0  0  0  0  0  0  0  0
    5.2142   -9.2559    7.1907 C   0  0  0  0  0  0  0  0  0  0  0  0
    4.8906  -10.4287    7.0032 O   0  0  0  0  0  0  0  0  0  0  0  0
    5.7197   -8.3425    6.0640 C   0  0  2  0  0  0  0  0  0  0  0  0
    5.1055   -6.9380    6.0341 C   0  0  0  0  0  0  0  0  0  0  0  0
    4.7616   -6.9013    4.5469 C   0  0  1  0  0  0  0  0  0  0  0  0
    4.2018   -5.6628    4.0955 O   0  0  0  0  0  0  0  0  0  0  0  0
    5.0739   -4.5409    4.1282 C   0  0  0  0  0  0  0  0  0  0  0  0
    5.9820   -7.5128    3.7791 C   0  0  2  0  0  0  0  0  0  0  0  0
    6.2991   -7.6342    2.2926 C   0  0  0  0  0  0  0  0  0  0  0  0
    5.3679   -6.8790    1.3979 C   0  0  0  0  0  0  0  0  0  0  0  0
    5.6720   -5.8232    0.5316 C   0  0  0  0  0  0  0  0  0  0  0  0
    4.6328   -5.0586   -0.0534 C   0  0  0  0  0  0  0  0  0  0  0  0
    3.2723   -5.3222    0.2976 C   0  0  0  0  0  0  0  0  0  0  0  0
    2.2089   -4.6028   -0.1988 O   0  0  0  0  0  0  0  0  0  0  0  0
    2.4611   -3.5211   -1.0806 C   0  0  0  0  0  0  0  0  0  0  0  0
    2.9688   -6.3771    1.1694 C   0  0  0  0  0  0  0  0  0  0  0  0
    4.0124   -7.1594    1.6645 C   0  0  0  0  0  0  0  0  0  0  0  0
    3.4509   -8.2515    2.5810 C   0  0  1  0  0  0  0  0  0  0  0  0
    3.6039   -9.7127    2.0740 C   0  0  0  0  0  0  0  0  0  0  0  0
    2.9457  -10.7849    2.9973 C   0  0  0  0  0  0  0  0  0  0  0  0
    1.6187  -10.4389    3.5463 N   0  0  0  0  0  0  0  0  0  0  0  0
    1.0606  -11.5856    4.2626 C   0  0  0  0  0  0  0  0  0  0  0  0
    1.5122   -9.2013    4.3501 C   0  0  1  0  0  0  0  0  0  0  0  0
    2.8398   -8.7599    4.9961 C   0  0  0  0  0  0  0  0  0  0  0  0
    3.9709   -8.1766    4.0892 C   0  0  2  0  0  0  0  0  0  0  0  0
    5.4093   -8.6817    4.5853 C   0  0  2  0  0  0  0  0  0  0  0  0
    5.8269   -9.9724    4.1289 O   0  0  0  0  0  0  0  0  0  0  0  0
    7.2096  -10.2799    4.2696 C   0  0  0  0  0  0  0  0  0  0  0  0
    0.9122   -8.1015    3.4796 C   0  0  1  0  0  0  0  0  0  0  0  0
    0.6618   -6.7772    4.2442 C   0  0  0  0  0  0  0  0  0  0  0  0
   -0.4692   -6.8360    5.3070 C   0  0  0  0  0  0  0  0  0  0  0  0
   -0.6697   -5.5094    6.0796 C   0  0  0  0  0  0  0  0  0  0  0  0
    0.2886   -5.3288    7.2495 C   0  0  0  0  0  0  0  0  0  0  0  0
   -0.1934   -5.3531    8.5817 C   0  0  0  0  0  0  0  0  0  0  0  0
    0.7054   -5.2134    9.6641 C   0  0  0  0  0  0  0  0  0  0  0  0
    2.0901   -5.0732    9.4272 C   0  0  0  0  0  0  0  0  0  0  0  0
    2.5688   -5.0356    8.1033 C   0  0  0  0  0  0  0  0  0  0  0  0
    1.6726   -5.1232    7.0209 C   0  0  0  0  0  0  0  0  0  0  0  0
    1.9033   -7.9286    2.3307 C   0  0  1  0  0  0  0  0  0  0  0  0
    1.7360   -6.7121    1.6208 O   0  0  0  0  0  0  0  0  0  0  0  0
    5.0317   -8.7596   10.4206 H   0  0  0  0  0  0  0  0  0  0  0  0
    5.3978  -10.3128    9.6475 H   0  0  0  0  0  0  0  0  0  0  0  0
    3.7845   -9.5890    9.4706 H   0  0  0  0  0  0  0  0  0  0  0  0
    6.7980   -8.2592    6.2176 H   0  0  0  0  0  0  0  0  0  0  0  0
    4.2231   -6.8350    6.6608 H   0  0  0  0  0  0  0  0  0  0  0  0
    5.8398   -6.1820    6.3248 H   0  0  0  0  0  0  0  0  0  0  0  0
    4.5648   -3.6894    3.6759 H   0  0  0  0  0  0  0  0  0  0  0  0
    5.9920   -4.7106    3.5637 H   0  0  0  0  0  0  0  0  0  0  0  0
    5.3281   -4.2618    5.1504 H   0  0  0  0  0  0  0  0  0  0  0  0
    6.8954   -7.1523    4.2717 H   0  0  0  0  0  0  0  0  0  0  0  0
    7.2713   -7.1630    2.1320 H   0  0  0  0  0  0  0  0  0  0  0  0
    6.4432   -8.6605    1.9537 H   0  0  0  0  0  0  0  0  0  0  0  0
    6.7008   -5.5564    0.3236 H   0  0  0  0  0  0  0  0  0  0  0  0
    4.8890   -4.2739   -0.7348 H   0  0  0  0  0  0  0  0  0  0  0  0
    1.5139   -3.0619   -1.3498 H   0  0  0  0  0  0  0  0  0  0  0  0
    2.9341   -3.8415   -2.0092 H   0  0  0  0  0  0  0  0  0  0  0  0
    3.0798   -2.7562   -0.6088 H   0  0  0  0  0  0  0  0  0  0  0  0
    3.1805   -9.8112    1.0748 H   0  0  0  0  0  0  0  0  0  0  0  0
    4.6502   -9.9812    1.9396 H   0  0  0  0  0  0  0  0  0  0  0  0
    2.8323  -11.7002    2.4226 H   0  0  0  0  0  0  0  0  0  0  0  0
    3.6177  -11.0581    3.8072 H   0  0  0  0  0  0  0  0  0  0  0  0
    0.0343  -11.3839    4.5717 H   0  0  0  0  0  0  0  0  0  0  0  0
    1.6369  -11.8596    5.1497 H   0  0  0  0  0  0  0  0  0  0  0  0
    1.0191  -12.4455    3.5958 H   0  0  0  0  0  0  0  0  0  0  0  0
    0.8242   -9.3914    5.1724 H   0  0  0  0  0  0  0  0  0  0  0  0
    2.6161   -8.0502    5.7938 H   0  0  0  0  0  0  0  0  0  0  0  0
    3.1769   -9.6544    5.5030 H   0  0  0  0  0  0  0  0  0  0  0  0
    7.3723  -11.2944    3.9057 H   0  0  0  0  0  0  0  0  0  0  0  0
    7.5332  -10.2549    5.3110 H   0  0  0  0  0  0  0  0  0  0  0  0
    7.8488   -9.6189    3.6807 H   0  0  0  0  0  0  0  0  0  0  0  0
   -0.0430   -8.4395    3.0808 H   0  0  0  0  0  0  0  0  0  0  0  0
    1.6144   -6.4830    4.6632 H   0  0  0  0  0  0  0  0  0  0  0  0
    0.4033   -5.9773    3.5419 H   0  0  0  0  0  0  0  0  0  0  0  0
   -1.3959   -7.0832    4.7920 H   0  0  0  0  0  0  0  0  0  0  0  0
   -0.3030   -7.6463    6.0131 H   0  0  0  0  0  0  0  0  0  0  0  0
   -0.5854   -4.6559    5.4087 H   0  0  0  0  0  0  0  0  0  0  0  0
   -1.6906   -5.4677    6.4561 H   0  0  0  0  0  0  0  0  0  0  0  0
   -1.2486   -5.4556    8.7741 H   0  0  0  0  0  0  0  0  0  0  0  0
    0.3356   -5.2049   10.6781 H   0  0  0  0  0  0  0  0  0  0  0  0
    2.7851   -4.9647   10.2411 H   0  0  0  0  0  0  0  0  0  0  0  0
    3.6189   -4.9226    7.8956 H   0  0  0  0  0  0  0  0  0  0  0  0
    2.0822   -5.0189    6.0283 H   0  0  0  0  0  0  0  0  0  0  0  0
    1.5374   -8.6316    1.5824 H   0  0  0  0  0  0  0  0  0  0  0  0
  1  2  1  0
  1 43  1  0
  1 44  1  0
  1 45  1  0
  2  3  1  0
  3  4  2  0
  3  5  1  0
  5 28  1  0
  5  6  1  0
  5 46  1  6
  6  7  1  0
  6 47  1  0
  6 48  1  0
  7 27  1  0
  7  8  1  6
  7 10  1  0
  8  9  1  0
  9 49  1  0
  9 50  1  0
  9 51  1  0
 10 28  1  0
 10 11  1  0
 10 52  1  1
 11 12  1  0
 11 53  1  0
 11 54  1  0
 12 19  2  0
 12 13  1  0
 13 14  2  0
 13 55  1  0
 14 15  1  0
 14 56  1  0
 15 16  1  0
 15 18  2  0
 16 17  1  0
 17 57  1  0
 17 58  1  0
 17 59  1  0
 18 42  1  0
 18 19  1  0
 19 20  1  0
 20 27  1  0
 20 41  1  0
 20 21  1  6
 21 22  1  0
 21 60  1  0
 21 61  1  0
 22 23  1  0
 22 62  1  0
 22 63  1  0
 23 24  1  0
 23 25  1  0
 24 64  1  0
 24 65  1  0
 24 66  1  0
 25 26  1  0
 25 31  1  0
 25 67  1  1
 27 26  1  1
 26 68  1  0
 26 69  1  0
 27 28  1  0
 28 29  1  6
 29 30  1  0
 30 70  1  0
 30 71  1  0
 30 72  1  0
 31 32  1  0
 31 41  1  0
 31 73  1  6
 32 33  1  0
 32 74  1  0
 32 75  1  0
 33 34  1  0
 33 76  1  0
 33 77  1  0
 34 35  1  0
 34 78  1  0
 34 79  1  0
 35 40  1  0
 35 36  2  0
 36 37  1  0
 36 80  1  0
 37 38  2  0
 37 81  1  0
 38 39  1  0
 38 82  1  0
 39 40  2  0
 39 83  1  0
 40 84  1  0
 41 42  1  0
 41 85  1  6
M  END
>  <i_m_ct_stereo_status>  (167) 
1

>  <s_m_source_file>  (167) 
/var/tmp/pbs.5076255.sched01/tmp8yzwbncg/40d_vk9m1l.sdf

>  <i_m_source_file_index>  (167) 
28

>  <i_lp_mmshare_version>  (167) 
48012

>  <i_f3d_flags>  (167) 
0

>  <s_epik_input>  (167) 
W0NIM11PQyg9TylbQ0BIXShbQ0gyXTEpW0NAXTIoT1tDSDNdKVtDQEhdKFtDQF0xKFtDQEBdMjNbQ0BAXTQ1NilPW0NIM10pW0NIMl1jN2M0YyhjKFtjSF1bY0hdNylPW0NIM10pT1tDQEBIXTZbQ0BASF0oW0NASF0oW0NIMl0zKU4oW0NIM10pW0NIMl1bQ0gyXTUpW0NIMl1bQ0gyXVtDSDJdYzhbY0hdW2NIXVtjSF1bY0hdW2NIXTg=

>  <s_epik_cmdline>  (167) 
J2VwaWtfcHl0aG9uJywgJy1waHQnLCAnMi4wJywgJy1waCcsICc3LjAnLCAnLXRuJywgJzgnLCAnLW1hJywgJzIwMCcsICctaW1hZScsICc8aW5maWxlLm1hZT4nLCAnLW9tYWUnLCAnPG91dGZpbGUubWFlPic=

>  <r_lp_tautomer_probability>  (167) 
1

>  <r_epik_Ionization_Penalty>  (167) 
2.10533

>  <r_epik_Ionization_Penalty_Charging>  (167) 
0

>  <r_epik_Ionization_Penalty_Neutral>  (167) 
2.10533

>  <r_epik_State_Penalty>  (167) 
2.24182

>  <r_epik_Charging_Adjusted_Penalty>  (167) 
2.24182

>  <i_epik_Tot_Q>  (167) 
0

>  <i_epik_Tot_abs_Q>  (167) 
0

>  <s_epik_Chemistry_Notes>  (167) 
This compound has an ester and may undergo hydrolysis at high or low pH.

>  <s_lp_Force_Field>  (167) 
OPLS3e

>  <r_lp_Energy>  (167) 
115.726

>  <b_lp_Chiralities_Consistent>  (167) 
1

>  <s_lp_Variant>  (167) 
49:0-2

>  <s_i_glide_gridfile>  (167) 
pfpi4k_grid

>  <i_i_glide_lignum>  (167) 
28

>  <i_i_glide_rotatable_bonds>  (167) 
9

>  <r_i_docking_score>  (167) 
-1.74486

>  <r_i_glide_ligand_efficiency>  (167) 
-0.0415443

>  <r_i_glide_ligand_efficiency_sa>  (167) 
-0.144409

>  <r_i_glide_ligand_efficiency_ln>  (167) 
-0.368295

>  <r_i_glide_gscore>  (167) 
-1.74486

>  <r_i_glide_lipo>  (167) 
-0.450234

>  <r_i_glide_hbond>  (167) 
-0.000336961

>  <r_i_glide_metal>  (167) 
-0

>  <r_i_glide_rewards>  (167) 
0

>  <r_i_glide_evdw>  (167) 
-26.5783

>  <r_i_glide_ecoul>  (167) 
-0.836413

>  <r_i_glide_erotb>  (167) 
0.160087

>  <r_i_glide_esite>  (167) 
0

>  <r_i_glide_emodel>  (167) 
-29.1966

>  <r_i_glide_energy>  (167) 
-27.4147

>  <r_i_glide_einternal>  (167) 
2.02769

>  <r_i_glide_intrahb_reward>  (167) 
-0

>  <i_i_glide_confnum>  (167) 
2

>  <i_i_glide_posenum>  (167) 
2

>  <r_i_glide_eff_state_penalty>  (167) 
0

>  <ligand_id>  (167) 
49

>  <original_smiles>  (167) 
COC(=O)C1CC2(OC)C3Cc4ccc(OC)c5c4C46CCN(C)C(CC24C13OC)C(CCCc1ccccc1)C6O5

>  <smiles>  (167) 
[H]c1c([H])c([H])c(C([H])([H])C([H])([H])C([H])([H])C2([H])C3([H])Oc4c(OC([H])([H])[H])c([H])c([H])c5c4C34C([H])([H])C([H])([H])N(C([H])([H])[H])C2([H])C([H])([H])C42C3(OC([H])([H])[H])C([H])([H])C([H])(C(=O)OC([H])([H])[H])C2(OC([H])([H])[H])C3([H])C5([H])[H])c([H])c1[H]

$$$$
49:1:2
     RDKit          3D

 85 92  0  0  1  0  0  0  0  0999 V2000
    5.8108   -8.4419    9.3236 C   0  0  0  0  0  0  0  0  0  0  0  0
    6.0459   -7.6189    8.1968 O   0  0  0  0  0  0  0  0  0  0  0  0
    6.1515   -8.1821    6.9852 C   0  0  0  0  0  0  0  0  0  0  0  0
    6.1257   -9.3929    6.7670 O   0  0  0  0  0  0  0  0  0  0  0  0
    6.4238   -7.1425    5.8858 C   0  0  2  0  0  0  0  0  0  0  0  0
    5.4717   -5.9351    5.8673 C   0  0  0  0  0  0  0  0  0  0  0  0
    5.1662   -5.9532    4.3736 C   0  0  1  0  0  0  0  0  0  0  0  0
    4.3212   -4.8856    3.9211 O   0  0  0  0  0  0  0  0  0  0  0  0
    4.8827   -3.5838    3.9876 C   0  0  0  0  0  0  0  0  0  0  0  0
    6.5179   -6.2169    3.6249 C   0  0  2  0  0  0  0  0  0  0  0  0
    6.8820   -6.2156    2.1486 C   0  0  0  0  0  0  0  0  0  0  0  0
    5.8111   -5.7129    1.2402 C   0  0  0  0  0  0  0  0  0  0  0  0
    5.8562   -4.5941    0.3865 C   0  0  0  0  0  0  0  0  0  0  0  0
    4.6658   -4.1171   -0.2173 C   0  0  0  0  0  0  0  0  0  0  0  0
    3.4178   -4.7116    0.0913 C   0  0  0  0  0  0  0  0  0  0  0  0
    2.2111   -4.2667   -0.3926 O   0  0  0  0  0  0  0  0  0  0  0  0
    2.2163   -3.3108   -1.4380 C   0  0  0  0  0  0  0  0  0  0  0  0
    3.3645   -5.8380    0.9543 C   0  0  0  0  0  0  0  0  0  0  0  0
    4.5678   -6.3263    1.4571 C   0  0  0  0  0  0  0  0  0  0  0  0
    4.2802   -7.5464    2.3508 C   0  0  1  0  0  0  0  0  0  0  0  0
    4.8073   -8.9072    1.8185 C   0  0  0  0  0  0  0  0  0  0  0  0
    4.4261  -10.1345    2.7039 C   0  0  0  0  0  0  0  0  0  0  0  0
    3.0500  -10.1463    3.2335 N   0  0  0  0  0  0  0  0  0  0  0  0
    2.7805  -11.4207    3.9050 C   0  0  0  0  0  0  0  0  0  0  0  0
    2.6299   -8.9954    4.0642 C   0  0  1  0  0  0  0  0  0  0  0  0
    3.7783   -8.2422    4.7440 C   0  0  0  0  0  0  0  0  0  0  0  0
    4.7373   -7.3763    3.8689 C   0  0  2  0  0  0  0  0  0  0  0  0
    6.2453   -7.5127    4.3954 C   0  0  2  0  0  0  0  0  0  0  0  0
    6.9838   -8.6509    3.9279 O   0  0  0  0  0  0  0  0  0  0  0  0
    8.3991   -8.5863    4.0718 C   0  0  0  0  0  0  0  0  0  0  0  0
    1.7935   -8.0385    3.2273 C   0  0  1  0  0  0  0  0  0  0  0  0
    1.1940   -6.8480    4.0201 C   0  0  0  0  0  0  0  0  0  0  0  0
    0.4578   -7.2263    5.3320 C   0  0  0  0  0  0  0  0  0  0  0  0
   -0.2238   -6.0407    6.0369 C   0  0  0  0  0  0  0  0  0  0  0  0
    0.6790   -4.8372    6.2021 C   0  0  0  0  0  0  0  0  0  0  0  0
    1.6285   -4.7965    7.2467 C   0  0  0  0  0  0  0  0  0  0  0  0
    2.4888   -3.6865    7.3784 C   0  0  0  0  0  0  0  0  0  0  0  0
    2.4059   -2.6159    6.4624 C   0  0  0  0  0  0  0  0  0  0  0  0
    1.4631   -2.6581    5.4131 C   0  0  0  0  0  0  0  0  0  0  0  0
    0.6020   -3.7652    5.2856 C   0  0  0  0  0  0  0  0  0  0  0  0
    2.7052   -7.6091    2.0780 C   0  0  1  0  0  0  0  0  0  0  0  0
    2.2505   -6.4543    1.3875 O   0  0  0  0  0  0  0  0  0  0  0  0
    5.8333   -7.8285   10.2266 H   0  0  0  0  0  0  0  0  0  0  0  0
    6.5664   -9.2273    9.4174 H   0  0  0  0  0  0  0  0  0  0  0  0
    4.8271   -8.9077    9.2400 H   0  0  0  0  0  0  0  0  0  0  0  0
    7.4417   -6.7915    6.0690 H   0  0  0  0  0  0  0  0  0  0  0  0
    4.5777   -6.0552    6.4792 H   0  0  0  0  0  0  0  0  0  0  0  0
    5.9877   -5.0275    6.1884 H   0  0  0  0  0  0  0  0  0  0  0  0
    4.1797   -2.8800    3.5413 H   0  0  0  0  0  0  0  0  0  0  0  0
    5.8117   -3.5067    3.4293 H   0  0  0  0  0  0  0  0  0  0  0  0
    5.0529   -3.2685    5.0167 H   0  0  0  0  0  0  0  0  0  0  0  0
    7.3021   -5.6497    4.1493 H   0  0  0  0  0  0  0  0  0  0  0  0
    7.7057   -5.5132    2.0187 H   0  0  0  0  0  0  0  0  0  0  0  0
    7.2888   -7.1646    1.7918 H   0  0  0  0  0  0  0  0  0  0  0  0
    6.7808   -4.0666    0.2220 H   0  0  0  0  0  0  0  0  0  0  0  0
    4.7287   -3.2585   -0.8616 H   0  0  0  0  0  0  0  0  0  0  0  0
    1.1847   -3.0841   -1.6992 H   0  0  0  0  0  0  0  0  0  0  0  0
    2.7001   -3.7009   -2.3334 H   0  0  0  0  0  0  0  0  0  0  0  0
    2.6879   -2.3751   -1.1366 H   0  0  0  0  0  0  0  0  0  0  0  0
    4.4425   -9.0867    0.8077 H   0  0  0  0  0  0  0  0  0  0  0  0
    5.8915   -8.8944    1.7093 H   0  0  0  0  0  0  0  0  0  0  0  0
    4.5552  -11.0282    2.0981 H   0  0  0  0  0  0  0  0  0  0  0  0
    5.1304  -10.2500    3.5235 H   0  0  0  0  0  0  0  0  0  0  0  0
    1.7275  -11.4990    4.1916 H   0  0  0  0  0  0  0  0  0  0  0  0
    3.3843  -11.5608    4.8051 H   0  0  0  0  0  0  0  0  0  0  0  0
    2.9848  -12.2518    3.2261 H   0  0  0  0  0  0  0  0  0  0  0  0
    1.9887   -9.3836    4.8518 H   0  0  0  0  0  0  0  0  0  0  0  0
    3.3607   -7.6091    5.5260 H   0  0  0  0  0  0  0  0  0  0  0  0
    4.3161   -9.0315    5.2443 H   0  0  0  0  0  0  0  0  0  0  0  0
    8.8235   -9.5187    3.6971 H   0  0  0  0  0  0  0  0  0  0  0  0
    8.7026   -8.4878    5.1155 H   0  0  0  0  0  0  0  0  0  0  0  0
    8.8488   -7.7758    3.4934 H   0  0  0  0  0  0  0  0  0  0  0  0
    0.9494   -8.5928    2.8165 H   0  0  0  0  0  0  0  0  0  0  0  0
    1.9813   -6.1216    4.2241 H   0  0  0  0  0  0  0  0  0  0  0  0
    0.4850   -6.3358    3.3681 H   0  0  0  0  0  0  0  0  0  0  0  0
   -0.2773   -8.0094    5.1390 H   0  0  0  0  0  0  0  0  0  0  0  0
    1.1657   -7.6524    6.0413 H   0  0  0  0  0  0  0  0  0  0  0  0
   -1.1133   -5.7628    5.4737 H   0  0  0  0  0  0  0  0  0  0  0  0
   -0.5712   -6.3494    7.0237 H   0  0  0  0  0  0  0  0  0  0  0  0
    1.7052   -5.6188    7.9378 H   0  0  0  0  0  0  0  0  0  0  0  0
    3.2147   -3.6608    8.1739 H   0  0  0  0  0  0  0  0  0  0  0  0
    3.0644   -1.7715    6.5578 H   0  0  0  0  0  0  0  0  0  0  0  0
    1.4081   -1.8524    4.6996 H   0  0  0  0  0  0  0  0  0  0  0  0
   -0.1022   -3.8031    4.4738 H   0  0  0  0  0  0  0  0  0  0  0  0
    2.5340   -8.3689    1.3142 H   0  0  0  0  0  0  0  0  0  0  0  0
  1  2  1  0
  1 43  1  0
  1 44  1  0
  1 45  1  0
  2  3  1  0
  3  4  2  0
  3  5  1  0
  5 28  1  0
  5  6  1  0
  5 46  1  6
  6  7  1  0
  6 47  1  0
  6 48  1  0
  7 27  1  0
  7  8  1  6
  7 10  1  0
  8  9  1  0
  9 49  1  0
  9 50  1  0
  9 51  1  0
 10 28  1  0
 10 11  1  0
 10 52  1  1
 11 12  1  0
 11 53  1  0
 11 54  1  0
 12 19  2  0
 12 13  1  0
 13 14  2  0
 13 55  1  0
 14 15  1  0
 14 56  1  0
 15 16  1  0
 15 18  2  0
 16 17  1  0
 17 57  1  0
 17 58  1  0
 17 59  1  0
 18 42  1  0
 18 19  1  0
 19 20  1  0
 20 27  1  0
 20 41  1  0
 20 21  1  6
 21 22  1  0
 21 60  1  0
 21 61  1  0
 22 23  1  0
 22 62  1  0
 22 63  1  0
 23 24  1  0
 23 25  1  0
 24 64  1  0
 24 65  1  0
 24 66  1  0
 25 26  1  0
 25 31  1  0
 25 67  1  1
 27 26  1  1
 26 68  1  0
 26 69  1  0
 27 28  1  0
 28 29  1  6
 29 30  1  0
 30 70  1  0
 30 71  1  0
 30 72  1  0
 31 32  1  0
 31 41  1  0
 31 73  1  6
 32 33  1  0
 32 74  1  0
 32 75  1  0
 33 34  1  0
 33 76  1  0
 33 77  1  0
 34 35  1  0
 34 78  1  0
 34 79  1  0
 35 40  1  0
 35 36  2  0
 36 37  1  0
 36 80  1  0
 37 38  2  0
 37 81  1  0
 38 39  1  0
 38 82  1  0
 39 40  2  0
 39 83  1  0
 40 84  1  0
 41 42  1  0
 41 85  1  6
M  END
>  <i_m_ct_stereo_status>  (168) 
1

>  <s_m_source_file>  (168) 
/var/tmp/pbs.5076255.sched01/tmp8yzwbncg/40d_vk9m1l.sdf

>  <i_m_source_file_index>  (168) 
28

>  <i_lp_mmshare_version>  (168) 
48012

>  <i_f3d_flags>  (168) 
0

>  <s_epik_input>  (168) 
W0NIM11PQyg9TylbQ0BIXShbQ0gyXTEpW0NAXTIoT1tDSDNdKVtDQEhdKFtDQF0xKFtDQEBdMjNbQ0BAXTQ1NilPW0NIM10pW0NIMl1jN2M0YyhjKFtjSF1bY0hdNylPW0NIM10pT1tDQEBIXTZbQ0BASF0oW0NASF0oW0NIMl0zKU4oW0NIM10pW0NIMl1bQ0gyXTUpW0NIMl1bQ0gyXVtDSDJdYzhbY0hdW2NIXVtjSF1bY0hdW2NIXTg=

>  <s_epik_cmdline>  (168) 
J2VwaWtfcHl0aG9uJywgJy1waHQnLCAnMi4wJywgJy1waCcsICc3LjAnLCAnLXRuJywgJzgnLCAnLW1hJywgJzIwMCcsICctaW1hZScsICc8aW5maWxlLm1hZT4nLCAnLW9tYWUnLCAnPG91dGZpbGUubWFlPic=

>  <r_lp_tautomer_probability>  (168) 
1

>  <r_epik_Ionization_Penalty>  (168) 
2.10533

>  <r_epik_Ionization_Penalty_Charging>  (168) 
0

>  <r_epik_Ionization_Penalty_Neutral>  (168) 
2.10533

>  <r_epik_State_Penalty>  (168) 
2.24182

>  <r_epik_Charging_Adjusted_Penalty>  (168) 
2.24182

>  <i_epik_Tot_Q>  (168) 
0

>  <i_epik_Tot_abs_Q>  (168) 
0

>  <s_epik_Chemistry_Notes>  (168) 
This compound has an ester and may undergo hydrolysis at high or low pH.

>  <s_lp_Force_Field>  (168) 
OPLS3e

>  <r_lp_Energy>  (168) 
115.726

>  <b_lp_Chiralities_Consistent>  (168) 
1

>  <s_lp_Variant>  (168) 
49:0-2

>  <s_i_glide_gridfile>  (168) 
pfpi4k_grid

>  <i_i_glide_lignum>  (168) 
28

>  <i_i_glide_rotatable_bonds>  (168) 
9

>  <r_i_docking_score>  (168) 
-1.72389

>  <r_i_glide_ligand_efficiency>  (168) 
-0.0410451

>  <r_i_glide_ligand_efficiency_sa>  (168) 
-0.142674

>  <r_i_glide_ligand_efficiency_ln>  (168) 
-0.36387

>  <r_i_glide_gscore>  (168) 
-1.72389

>  <r_i_glide_lipo>  (168) 
-0.419892

>  <r_i_glide_hbond>  (168) 
0

>  <r_i_glide_metal>  (168) 
-0

>  <r_i_glide_rewards>  (168) 
0

>  <r_i_glide_evdw>  (168) 
-25.1761

>  <r_i_glide_ecoul>  (168) 
-1.36855

>  <r_i_glide_erotb>  (168) 
0.160087

>  <r_i_glide_esite>  (168) 
0

>  <r_i_glide_emodel>  (168) 
-28.5352

>  <r_i_glide_energy>  (168) 
-26.5447

>  <r_i_glide_einternal>  (168) 
2.05399

>  <r_i_glide_intrahb_reward>  (168) 
-0

>  <i_i_glide_confnum>  (168) 
2

>  <i_i_glide_posenum>  (168) 
36

>  <r_i_glide_eff_state_penalty>  (168) 
0

>  <ligand_id>  (168) 
49

>  <original_smiles>  (168) 
COC(=O)C1CC2(OC)C3Cc4ccc(OC)c5c4C46CCN(C)C(CC24C13OC)C(CCCc1ccccc1)C6O5

>  <smiles>  (168) 
[H]c1c([H])c([H])c(C([H])([H])C([H])([H])C([H])([H])C2([H])C3([H])Oc4c(OC([H])([H])[H])c([H])c([H])c5c4C34C([H])([H])C([H])([H])N(C([H])([H])[H])C2([H])C([H])([H])C42C3(OC([H])([H])[H])C([H])([H])C([H])(C(=O)OC([H])([H])[H])C2(OC([H])([H])[H])C3([H])C5([H])[H])c([H])c1[H]

$$$$
50:0:0
     RDKit          3D

 46 50  0  0  1  0  0  0  0  0999 V2000
    2.2913   -3.6030   -1.5370 C   0  0  0  0  0  0  0  0  0  0  0  0
    3.5288   -3.8561   -0.6961 C   0  0  0  0  0  0  0  0  0  0  0  0
    3.6194   -4.8869    0.1783 C   0  0  0  0  0  0  0  0  0  0  0  0
    2.5402   -5.6943    0.4261 O   0  0  0  0  0  0  0  0  0  0  0  0
    2.7513   -6.5106    1.5796 C   0  0  2  0  0  0  0  0  0  0  0  0
    1.6192   -6.1645    2.5518 C   0  0  1  0  0  0  0  0  0  0  0  0
    1.3049   -7.3006    3.5348 C   0  0  0  0  0  0  0  0  0  0  0  0
    2.1296   -4.9048    3.2538 C   0  0  0  0  0  0  0  0  0  0  0  0
    3.6400   -5.1158    3.3956 C   0  0  0  0  0  0  0  0  0  0  0  0
    4.0697   -6.0171    2.2149 C   0  0  1  0  0  0  0  0  0  0  0  0
    4.8635   -7.0803    2.6990 O   0  0  0  0  0  0  0  0  0  0  0  0
    4.7761   -5.3637    1.0251 C   0  0  2  0  0  0  0  0  0  0  0  0
    5.9995   -4.4389    1.2433 C   0  0  0  0  0  0  0  0  0  0  0  0
    5.7644   -3.0195    1.7833 C   0  0  2  0  0  0  0  0  0  0  0  0
    4.4810   -2.1489    1.6365 C   0  0  1  0  0  0  0  0  0  0  0  0
    5.4048   -0.9796    2.0604 C   0  0  0  0  0  0  0  0  0  0  0  0
    6.1379   -1.7683    0.9562 C   0  0  1  0  0  0  0  0  0  0  0  0
    7.4258   -1.4466    0.4762 O   0  0  0  0  0  0  0  0  0  0  0  0
    4.8043   -1.8127    0.1467 C   0  0  2  0  0  0  0  0  0  0  0  0
    4.2388   -0.5471   -0.5264 C   0  0  0  0  0  0  0  0  0  0  0  0
    4.6411   -2.9116   -0.8996 C   0  0  0  0  0  0  0  0  0  0  0  0
    5.3608   -2.9960   -1.8925 O   0  0  0  0  0  0  0  0  0  0  0  0
    2.5393   -3.5830   -2.5985 H   0  0  0  0  0  0  0  0  0  0  0  0
    1.8352   -2.6637   -1.2810 H   0  0  0  0  0  0  0  0  0  0  0  0
    1.5325   -4.3743   -1.3971 H   0  0  0  0  0  0  0  0  0  0  0  0
    2.7759   -7.5671    1.2991 H   0  0  0  0  0  0  0  0  0  0  0  0
    0.7083   -5.9465    1.9960 H   0  0  0  0  0  0  0  0  0  0  0  0
    2.1817   -7.5837    4.1194 H   0  0  0  0  0  0  0  0  0  0  0  0
    0.9555   -8.1858    3.0010 H   0  0  0  0  0  0  0  0  0  0  0  0
    0.5188   -7.0027    4.2317 H   0  0  0  0  0  0  0  0  0  0  0  0
    1.9452   -4.0398    2.6174 H   0  0  0  0  0  0  0  0  0  0  0  0
    1.6382   -4.7175    4.2089 H   0  0  0  0  0  0  0  0  0  0  0  0
    4.1802   -4.1772    3.4630 H   0  0  0  0  0  0  0  0  0  0  0  0
    3.8262   -5.6281    4.3410 H   0  0  0  0  0  0  0  0  0  0  0  0
    4.3405   -7.5961    3.2941 H   0  0  0  0  0  0  0  0  0  0  0  0
    5.1819   -6.1907    0.4352 H   0  0  0  0  0  0  0  0  0  0  0  0
    6.6962   -4.9570    1.9010 H   0  0  0  0  0  0  0  0  0  0  0  0
    6.5583   -4.3803    0.3086 H   0  0  0  0  0  0  0  0  0  0  0  0
    6.1401   -3.0106    2.8092 H   0  0  0  0  0  0  0  0  0  0  0  0
    3.5033   -2.3407    2.0738 H   0  0  0  0  0  0  0  0  0  0  0  0
    5.0842    0.0371    1.8566 H   0  0  0  0  0  0  0  0  0  0  0  0
    5.8192   -1.0129    3.0756 H   0  0  0  0  0  0  0  0  0  0  0  0
    7.7595   -0.7650    1.0475 H   0  0  0  0  0  0  0  0  0  0  0  0
    4.2467    0.3560    0.0739 H   0  0  0  0  0  0  0  0  0  0  0  0
    3.2002   -0.6956   -0.8097 H   0  0  0  0  0  0  0  0  0  0  0  0
    4.7947   -0.3092   -1.4323 H   0  0  0  0  0  0  0  0  0  0  0  0
  1  2  1  0
  1 23  1  0
  1 24  1  0
  1 25  1  0
  2 21  1  0
  2  3  2  3
  3 12  1  0
  3  4  1  0
  4  5  1  0
  5 10  1  0
  5  6  1  0
  5 26  1  6
  6  7  1  0
  6  8  1  0
  6 27  1  6
  7 28  1  0
  7 29  1  0
  7 30  1  0
  8  9  1  0
  8 31  1  0
  8 32  1  0
  9 10  1  0
  9 33  1  0
  9 34  1  0
 10 11  1  1
 10 12  1  0
 11 35  1  0
 12 13  1  0
 12 36  1  6
 13 14  1  0
 13 37  1  0
 13 38  1  0
 14 17  1  0
 14 15  1  0
 14 39  1  1
 15 19  1  0
 15 16  1  0
 15 40  1  6
 16 17  1  0
 16 41  1  0
 16 42  1  0
 17 18  1  6
 17 19  1  0
 18 43  1  0
 19 20  1  6
 19 21  1  0
 20 44  1  0
 20 45  1  0
 20 46  1  0
 21 22  2  0
M  END
>  <i_m_ct_stereo_status>  (169) 
1

>  <s_m_source_file>  (169) 
/var/tmp/pbs.5076255.sched01/tmp8yzwbncg/40d_vk9m1l.sdf

>  <i_m_source_file_index>  (169) 
29

>  <i_lp_mmshare_version>  (169) 
48012

>  <i_f3d_flags>  (169) 
0

>  <s_epik_input>  (169) 
W0NIM10vQz0xQyg9TylbQ0BdKFtDSDNdKShbQ0BdMihbQ0gyXTMpW09IXSlbQ0BIXTNbQ0BIXTJbQ0gyXVtDQEBIXTRDMVxPW0NAQEhdKFtDQEBdNDVbT0hdKVtDQEBIXShbQ0gzXSlbQ0gyXVtDSDJdNQ==

>  <s_epik_cmdline>  (169) 
J2VwaWtfcHl0aG9uJywgJy1waHQnLCAnMi4wJywgJy1waCcsICc3LjAnLCAnLXRuJywgJzgnLCAnLW1hJywgJzIwMCcsICctaW1hZScsICc8aW5maWxlLm1hZT4nLCAnLW9tYWUnLCAnPG91dGZpbGUubWFlPic=

>  <r_lp_tautomer_probability>  (169) 
1

>  <r_epik_Ionization_Penalty>  (169) 
9.19975e-08

>  <r_epik_Ionization_Penalty_Charging>  (169) 
0

>  <r_epik_Ionization_Penalty_Neutral>  (169) 
9.19975e-08

>  <r_epik_State_Penalty>  (169) 
-0

>  <r_epik_Charging_Adjusted_Penalty>  (169) 
0

>  <i_epik_Tot_Q>  (169) 
0

>  <i_epik_Tot_abs_Q>  (169) 
0

>  <s_lp_Force_Field>  (169) 
OPLS3e

>  <r_lp_Energy>  (169) 
92.6082

>  <b_lp_Chiralities_Consistent>  (169) 
1

>  <s_lp_Variant>  (169) 
50:0-1

>  <s_i_glide_gridfile>  (169) 
pfpi4k_grid

>  <i_i_glide_lignum>  (169) 
29

>  <i_i_glide_rotatable_bonds>  (169) 
2

>  <r_i_docking_score>  (169) 
-3.53829

>  <r_i_glide_ligand_efficiency>  (169) 
-0.160831

>  <r_i_glide_ligand_efficiency_sa>  (169) 
-0.450656

>  <r_i_glide_ligand_efficiency_ln>  (169) 
-0.864888

>  <r_i_glide_gscore>  (169) 
-3.53829

>  <r_i_glide_lipo>  (169) 
-0.531936

>  <r_i_glide_hbond>  (169) 
-0.232745

>  <r_i_glide_metal>  (169) 
-0

>  <r_i_glide_rewards>  (169) 
-1.33377

>  <r_i_glide_evdw>  (169) 
-18.2387

>  <r_i_glide_ecoul>  (169) 
-3.51149

>  <r_i_glide_erotb>  (169) 
0

>  <r_i_glide_esite>  (169) 
-0.00118474

>  <r_i_glide_emodel>  (169) 
-26.12

>  <r_i_glide_energy>  (169) 
-21.7502

>  <r_i_glide_einternal>  (169) 
0.565506

>  <r_i_glide_intrahb_reward>  (169) 
-0

>  <i_i_glide_confnum>  (169) 
2

>  <i_i_glide_posenum>  (169) 
1

>  <r_i_glide_eff_state_penalty>  (169) 
0

>  <ligand_id>  (169) 
50

>  <original_smiles>  (169) 
CC1=C2OC3C(C)CCC3(O)C2CC2C3CC2(O)C3(C)C1=O

>  <smiles>  (169) 
[H]OC12C([H])([H])C([H])([H])C([H])(C([H])([H])[H])C1([H])OC1=C(C([H])([H])[H])C(=O)C3(C([H])([H])[H])C4([H])C([H])([H])C3(O[H])C4([H])C([H])([H])C12[H]

$$$$
50:0:1
     RDKit          3D

 46 50  0  0  1  0  0  0  0  0999 V2000
    2.0587   -3.7145   -1.4213 C   0  0  0  0  0  0  0  0  0  0  0  0
    3.3770   -3.9752   -0.7096 C   0  0  0  0  0  0  0  0  0  0  0  0
    3.4647   -4.7056    0.4242 C   0  0  0  0  0  0  0  0  0  0  0  0
    2.3424   -5.1628    1.0628 O   0  0  0  0  0  0  0  0  0  0  0  0
    2.6384   -5.6013    2.3930 C   0  0  2  0  0  0  0  0  0  0  0  0
    1.7973   -4.7373    3.3412 C   0  0  1  0  0  0  0  0  0  0  0  0
    1.5006   -5.4335    4.6775 C   0  0  0  0  0  0  0  0  0  0  0  0
    2.6398   -3.4719    3.5132 C   0  0  0  0  0  0  0  0  0  0  0  0
    4.0912   -3.9567    3.5083 C   0  0  0  0  0  0  0  0  0  0  0  0
    4.1213   -5.2398    2.6463 C   0  0  1  0  0  0  0  0  0  0  0  0
    4.8118   -6.2525    3.3476 O   0  0  0  0  0  0  0  0  0  0  0  0
    4.6759   -5.1477    1.2240 C   0  0  2  0  0  0  0  0  0  0  0  0
    6.0490   -4.4889    0.9579 C   0  0  0  0  0  0  0  0  0  0  0  0
    6.1602   -2.9578    1.0216 C   0  0  2  0  0  0  0  0  0  0  0  0
    5.0359   -1.9095    0.7741 C   0  0  1  0  0  0  0  0  0  0  0  0
    6.2082   -0.9021    0.6571 C   0  0  0  0  0  0  0  0  0  0  0  0
    6.5725   -2.1197   -0.2110 C   0  0  1  0  0  0  0  0  0  0  0  0
    7.7766   -2.2550   -0.9312 O   0  0  0  0  0  0  0  0  0  0  0  0
    5.1106   -2.1044   -0.7757 C   0  0  2  0  0  0  0  0  0  0  0  0
    4.6380   -1.0132   -1.7600 C   0  0  0  0  0  0  0  0  0  0  0  0
    4.5627   -3.3923   -1.3604 C   0  0  0  0  0  0  0  0  0  0  0  0
    5.0496   -3.9023   -2.3683 O   0  0  0  0  0  0  0  0  0  0  0  0
    2.0873   -4.0411   -2.4567 H   0  0  0  0  0  0  0  0  0  0  0  0
    1.8353   -2.6580   -1.4349 H   0  0  0  0  0  0  0  0  0  0  0  0
    1.2346   -4.2397   -0.9482 H   0  0  0  0  0  0  0  0  0  0  0  0
    2.4353   -6.6704    2.4861 H   0  0  0  0  0  0  0  0  0  0  0  0
    0.8408   -4.4892    2.8828 H   0  0  0  0  0  0  0  0  0  0  0  0
    2.4162   -5.7137    5.1987 H   0  0  0  0  0  0  0  0  0  0  0  0
    0.9108   -6.3378    4.5186 H   0  0  0  0  0  0  0  0  0  0  0  0
    0.9283   -4.7739    5.3330 H   0  0  0  0  0  0  0  0  0  0  0  0
    2.4761   -2.8161    2.6570 H   0  0  0  0  0  0  0  0  0  0  0  0
    2.3856   -2.9054    4.4095 H   0  0  0  0  0  0  0  0  0  0  0  0
    4.7805   -3.1845    3.1883 H   0  0  0  0  0  0  0  0  0  0  0  0
    4.3742   -4.1902    4.5367 H   0  0  0  0  0  0  0  0  0  0  0  0
    4.3656   -6.4057    4.1674 H   0  0  0  0  0  0  0  0  0  0  0  0
    4.8165   -6.1774    0.8943 H   0  0  0  0  0  0  0  0  0  0  0  0
    6.7675   -4.9271    1.6483 H   0  0  0  0  0  0  0  0  0  0  0  0
    6.4127   -4.8375   -0.0106 H   0  0  0  0  0  0  0  0  0  0  0  0
    6.7275   -2.7329    1.9299 H   0  0  0  0  0  0  0  0  0  0  0  0
    4.1472   -1.7398    1.3795 H   0  0  0  0  0  0  0  0  0  0  0  0
    6.0297    0.0487    0.1692 H   0  0  0  0  0  0  0  0  0  0  0  0
    6.8072   -0.7294    1.5592 H   0  0  0  0  0  0  0  0  0  0  0  0
    7.8064   -3.1378   -1.2584 H   0  0  0  0  0  0  0  0  0  0  0  0
    4.9165   -0.0022   -1.5084 H   0  0  0  0  0  0  0  0  0  0  0  0
    3.5520   -0.9961   -1.8356 H   0  0  0  0  0  0  0  0  0  0  0  0
    5.0344   -1.1883   -2.7594 H   0  0  0  0  0  0  0  0  0  0  0  0
  1  2  1  0
  1 23  1  0
  1 24  1  0
  1 25  1  0
  2 21  1  0
  2  3  2  3
  3 12  1  0
  3  4  1  0
  4  5  1  0
  5 10  1  0
  5  6  1  0
  5 26  1  6
  6  7  1  0
  6  8  1  0
  6 27  1  6
  7 28  1  0
  7 29  1  0
  7 30  1  0
  8  9  1  0
  8 31  1  0
  8 32  1  0
  9 10  1  0
  9 33  1  0
  9 34  1  0
 10 11  1  1
 10 12  1  0
 11 35  1  0
 12 13  1  0
 12 36  1  6
 13 14  1  0
 13 37  1  0
 13 38  1  0
 14 17  1  0
 14 15  1  0
 14 39  1  1
 15 19  1  0
 15 16  1  0
 15 40  1  1
 16 17  1  0
 16 41  1  0
 16 42  1  0
 17 18  1  6
 17 19  1  0
 18 43  1  0
 19 20  1  6
 19 21  1  0
 20 44  1  0
 20 45  1  0
 20 46  1  0
 21 22  2  0
M  END
>  <i_m_ct_stereo_status>  (170) 
1

>  <s_m_source_file>  (170) 
/var/tmp/pbs.5076255.sched01/tmp8yzwbncg/40d_vk9m1l.sdf

>  <i_m_source_file_index>  (170) 
29

>  <i_lp_mmshare_version>  (170) 
48012

>  <i_f3d_flags>  (170) 
0

>  <s_epik_input>  (170) 
W0NIM10vQz0xQyg9TylbQ0BdKFtDSDNdKShbQ0BdMihbQ0gyXTMpW09IXSlbQ0BIXTNbQ0BIXTJbQ0gyXVtDQEBIXTRDMVxPW0NAQEhdKFtDQEBdNDVbT0hdKVtDQEBIXShbQ0gzXSlbQ0gyXVtDSDJdNQ==

>  <s_epik_cmdline>  (170) 
J2VwaWtfcHl0aG9uJywgJy1waHQnLCAnMi4wJywgJy1waCcsICc3LjAnLCAnLXRuJywgJzgnLCAnLW1hJywgJzIwMCcsICctaW1hZScsICc8aW5maWxlLm1hZT4nLCAnLW9tYWUnLCAnPG91dGZpbGUubWFlPic=

>  <r_lp_tautomer_probability>  (170) 
1

>  <r_epik_Ionization_Penalty>  (170) 
9.19975e-08

>  <r_epik_Ionization_Penalty_Charging>  (170) 
0

>  <r_epik_Ionization_Penalty_Neutral>  (170) 
9.19975e-08

>  <r_epik_State_Penalty>  (170) 
-0

>  <r_epik_Charging_Adjusted_Penalty>  (170) 
0

>  <i_epik_Tot_Q>  (170) 
0

>  <i_epik_Tot_abs_Q>  (170) 
0

>  <s_lp_Force_Field>  (170) 
OPLS3e

>  <r_lp_Energy>  (170) 
92.6082

>  <b_lp_Chiralities_Consistent>  (170) 
1

>  <s_lp_Variant>  (170) 
50:0-1

>  <s_i_glide_gridfile>  (170) 
pfpi4k_grid

>  <i_i_glide_lignum>  (170) 
29

>  <i_i_glide_rotatable_bonds>  (170) 
2

>  <r_i_docking_score>  (170) 
-3.07316

>  <r_i_glide_ligand_efficiency>  (170) 
-0.139689

>  <r_i_glide_ligand_efficiency_sa>  (170) 
-0.391414

>  <r_i_glide_ligand_efficiency_ln>  (170) 
-0.751193

>  <r_i_glide_gscore>  (170) 
-3.07316

>  <r_i_glide_lipo>  (170) 
-0.354395

>  <r_i_glide_hbond>  (170) 
0

>  <r_i_glide_metal>  (170) 
-0

>  <r_i_glide_rewards>  (170) 
-1.34742

>  <r_i_glide_evdw>  (170) 
-16.311

>  <r_i_glide_ecoul>  (170) 
-3.7053

>  <r_i_glide_erotb>  (170) 
0

>  <r_i_glide_esite>  (170) 
0

>  <r_i_glide_emodel>  (170) 
-24.0156

>  <r_i_glide_energy>  (170) 
-20.0162

>  <r_i_glide_einternal>  (170) 
0.011475

>  <r_i_glide_intrahb_reward>  (170) 
-0

>  <i_i_glide_confnum>  (170) 
1

>  <i_i_glide_posenum>  (170) 
5

>  <r_i_glide_eff_state_penalty>  (170) 
0

>  <ligand_id>  (170) 
50

>  <original_smiles>  (170) 
CC1=C2OC3C(C)CCC3(O)C2CC2C3CC2(O)C3(C)C1=O

>  <smiles>  (170) 
[H]OC12C([H])([H])C([H])([H])C([H])(C([H])([H])[H])C1([H])OC1=C(C([H])([H])[H])C(=O)C3(C([H])([H])[H])C4([H])C([H])([H])C3(O[H])C4([H])C([H])([H])C12[H]

$$$$
50:0:2
     RDKit          3D

 46 50  0  0  1  0  0  0  0  0999 V2000
    2.1647   -3.7206   -1.5266 C   0  0  0  0  0  0  0  0  0  0  0  0
    3.3971   -4.0261   -0.6886 C   0  0  0  0  0  0  0  0  0  0  0  0
    3.4069   -4.9775    0.2728 C   0  0  0  0  0  0  0  0  0  0  0  0
    2.2608   -5.6467    0.6173 O   0  0  0  0  0  0  0  0  0  0  0  0
    2.4196   -6.3485    1.8542 C   0  0  2  0  0  0  0  0  0  0  0  0
    1.3625   -5.7824    2.8100 C   0  0  1  0  0  0  0  0  0  0  0  0
    0.9553   -6.7708    3.9111 C   0  0  0  0  0  0  0  0  0  0  0  0
    2.0265   -4.5219    3.3666 C   0  0  0  0  0  0  0  0  0  0  0  0
    3.5086   -4.8843    3.4988 C   0  0  0  0  0  0  0  0  0  0  0  0
    3.8028   -5.9405    2.4079 C   0  0  1  0  0  0  0  0  0  0  0  0
    4.4883   -7.0331    2.9835 O   0  0  0  0  0  0  0  0  0  0  0  0
    4.5313   -5.4905    1.1410 C   0  0  2  0  0  0  0  0  0  0  0  0
    5.8528   -4.6889    1.2357 C   0  0  0  0  0  0  0  0  0  0  0  0
    5.7966   -3.2043    1.6310 C   0  0  2  0  0  0  0  0  0  0  0  0
    4.6077   -2.2174    1.4270 C   0  0  1  0  0  0  0  0  0  0  0  0
    5.6629   -1.1191    1.7122 C   0  0  0  0  0  0  0  0  0  0  0  0
    6.2711   -2.0776    0.6762 C   0  0  1  0  0  0  0  0  0  0  0  0
    7.5723   -1.9520    0.1429 O   0  0  0  0  0  0  0  0  0  0  0  0
    4.9172   -2.0636   -0.0989 C   0  0  2  0  0  0  0  0  0  0  0  0
    4.4688   -0.8144   -0.8927 C   0  0  0  0  0  0  0  0  0  0  0  0
    4.5984   -3.2355   -1.0176 C   0  0  0  0  0  0  0  0  0  0  0  0
    5.2765   -3.5104   -2.0080 O   0  0  0  0  0  0  0  0  0  0  0  0
    2.3871   -3.8453   -2.5903 H   0  0  0  0  0  0  0  0  0  0  0  0
    1.8276   -2.6962   -1.3720 H   0  0  0  0  0  0  0  0  0  0  0  0
    1.3388   -4.3987   -1.2987 H   0  0  0  0  0  0  0  0  0  0  0  0
    2.3163   -7.4235    1.6852 H   0  0  0  0  0  0  0  0  0  0  0  0
    0.4640   -5.5205    2.2543 H   0  0  0  0  0  0  0  0  0  0  0  0
    1.8138   -7.0906    4.5039 H   0  0  0  0  0  0  0  0  0  0  0  0
    0.4950   -7.6614    3.4793 H   0  0  0  0  0  0  0  0  0  0  0  0
    0.2297   -6.3184    4.5886 H   0  0  0  0  0  0  0  0  0  0  0  0
    1.9145   -3.7093    2.6485 H   0  0  0  0  0  0  0  0  0  0  0  0
    1.5890   -4.1864    4.3078 H   0  0  0  0  0  0  0  0  0  0  0  0
    4.1480   -4.0093    3.4565 H   0  0  0  0  0  0  0  0  0  0  0  0
    3.6676   -5.3153    4.4877 H   0  0  0  0  0  0  0  0  0  0  0  0
    3.9371   -7.4180    3.6486 H   0  0  0  0  0  0  0  0  0  0  0  0
    4.8265   -6.4133    0.6329 H   0  0  0  0  0  0  0  0  0  0  0  0
    6.5106   -5.2135    1.9322 H   0  0  0  0  0  0  0  0  0  0  0  0
    6.3845   -4.7933    0.2883 H   0  0  0  0  0  0  0  0  0  0  0  0
    6.2070   -3.1410    2.6422 H   0  0  0  0  0  0  0  0  0  0  0  0
    3.6267   -2.2572    1.9012 H   0  0  0  0  0  0  0  0  0  0  0  0
    5.4550   -0.0992    1.4063 H   0  0  0  0  0  0  0  0  0  0  0  0
    6.1148   -1.1007    2.7072 H   0  0  0  0  0  0  0  0  0  0  0  0
    7.8525   -2.8243   -0.0916 H   0  0  0  0  0  0  0  0  0  0  0  0
    4.5961    0.1371   -0.3862 H   0  0  0  0  0  0  0  0  0  0  0  0
    3.4112   -0.8750   -1.1446 H   0  0  0  0  0  0  0  0  0  0  0  0
    5.0220   -0.7302   -1.8279 H   0  0  0  0  0  0  0  0  0  0  0  0
  1  2  1  0
  1 23  1  0
  1 24  1  0
  1 25  1  0
  2 21  1  0
  2  3  2  3
  3 12  1  0
  3  4  1  0
  4  5  1  0
  5 10  1  0
  5  6  1  0
  5 26  1  6
  6  7  1  0
  6  8  1  0
  6 27  1  6
  7 28  1  0
  7 29  1  0
  7 30  1  0
  8  9  1  0
  8 31  1  0
  8 32  1  0
  9 10  1  0
  9 33  1  0
  9 34  1  0
 10 11  1  1
 10 12  1  0
 11 35  1  0
 12 13  1  0
 12 36  1  6
 13 14  1  0
 13 37  1  0
 13 38  1  0
 14 17  1  0
 14 15  1  0
 14 39  1  1
 15 19  1  0
 15 16  1  0
 15 40  1  6
 16 17  1  0
 16 41  1  0
 16 42  1  0
 17 18  1  6
 17 19  1  0
 18 43  1  0
 19 20  1  6
 19 21  1  0
 20 44  1  0
 20 45  1  0
 20 46  1  0
 21 22  2  0
M  END
>  <i_m_ct_stereo_status>  (171) 
1

>  <s_m_source_file>  (171) 
/var/tmp/pbs.5076255.sched01/tmp8yzwbncg/40d_vk9m1l.sdf

>  <i_m_source_file_index>  (171) 
29

>  <i_lp_mmshare_version>  (171) 
48012

>  <i_f3d_flags>  (171) 
0

>  <s_epik_input>  (171) 
W0NIM10vQz0xQyg9TylbQ0BdKFtDSDNdKShbQ0BdMihbQ0gyXTMpW09IXSlbQ0BIXTNbQ0BIXTJbQ0gyXVtDQEBIXTRDMVxPW0NAQEhdKFtDQEBdNDVbT0hdKVtDQEBIXShbQ0gzXSlbQ0gyXVtDSDJdNQ==

>  <s_epik_cmdline>  (171) 
J2VwaWtfcHl0aG9uJywgJy1waHQnLCAnMi4wJywgJy1waCcsICc3LjAnLCAnLXRuJywgJzgnLCAnLW1hJywgJzIwMCcsICctaW1hZScsICc8aW5maWxlLm1hZT4nLCAnLW9tYWUnLCAnPG91dGZpbGUubWFlPic=

>  <r_lp_tautomer_probability>  (171) 
1

>  <r_epik_Ionization_Penalty>  (171) 
9.19975e-08

>  <r_epik_Ionization_Penalty_Charging>  (171) 
0

>  <r_epik_Ionization_Penalty_Neutral>  (171) 
9.19975e-08

>  <r_epik_State_Penalty>  (171) 
-0

>  <r_epik_Charging_Adjusted_Penalty>  (171) 
0

>  <i_epik_Tot_Q>  (171) 
0

>  <i_epik_Tot_abs_Q>  (171) 
0

>  <s_lp_Force_Field>  (171) 
OPLS3e

>  <r_lp_Energy>  (171) 
92.6082

>  <b_lp_Chiralities_Consistent>  (171) 
1

>  <s_lp_Variant>  (171) 
50:0-1

>  <s_i_glide_gridfile>  (171) 
pfpi4k_grid

>  <i_i_glide_lignum>  (171) 
29

>  <i_i_glide_rotatable_bonds>  (171) 
2

>  <r_i_docking_score>  (171) 
-3.03136

>  <r_i_glide_ligand_efficiency>  (171) 
-0.137789

>  <r_i_glide_ligand_efficiency_sa>  (171) 
-0.386091

>  <r_i_glide_ligand_efficiency_ln>  (171) 
-0.740976

>  <r_i_glide_gscore>  (171) 
-3.03136

>  <r_i_glide_lipo>  (171) 
-0.442515

>  <r_i_glide_hbond>  (171) 
-0.0538509

>  <r_i_glide_metal>  (171) 
-0

>  <r_i_glide_rewards>  (171) 
-1.36422

>  <r_i_glide_evdw>  (171) 
-18.2604

>  <r_i_glide_ecoul>  (171) 
-1.71836

>  <r_i_glide_erotb>  (171) 
0

>  <r_i_glide_esite>  (171) 
0

>  <r_i_glide_emodel>  (171) 
-23.8499

>  <r_i_glide_energy>  (171) 
-19.9787

>  <r_i_glide_einternal>  (171) 
0.144649

>  <r_i_glide_intrahb_reward>  (171) 
-0

>  <i_i_glide_confnum>  (171) 
2

>  <i_i_glide_posenum>  (171) 
13

>  <r_i_glide_eff_state_penalty>  (171) 
0

>  <ligand_id>  (171) 
50

>  <original_smiles>  (171) 
CC1=C2OC3C(C)CCC3(O)C2CC2C3CC2(O)C3(C)C1=O

>  <smiles>  (171) 
[H]OC12C([H])([H])C([H])([H])C([H])(C([H])([H])[H])C1([H])OC1=C(C([H])([H])[H])C(=O)C3(C([H])([H])[H])C4([H])C([H])([H])C3(O[H])C4([H])C([H])([H])C12[H]

$$$$
50:1:0
     RDKit          3D

 46 50  0  0  1  0  0  0  0  0999 V2000
    8.2591   -3.4322   -0.5276 C   0  0  0  0  0  0  0  0  0  0  0  0
    7.1144   -2.4362   -0.6966 C   0  0  0  0  0  0  0  0  0  0  0  0
    6.2190   -2.4026   -1.6843 C   0  0  0  0  0  0  0  0  0  0  0  0
    5.4312   -1.3170   -1.9911 O   0  0  0  0  0  0  0  0  0  0  0  0
    4.6563   -1.6801   -3.1274 C   0  0  2  0  0  0  0  0  0  0  0  0
    3.3117   -0.9919   -3.2272 C   0  0  1  0  0  0  0  0  0  0  0  0
    3.2032   -0.0395   -4.4323 C   0  0  0  0  0  0  0  0  0  0  0  0
    2.3358   -2.1579   -3.2909 C   0  0  0  0  0  0  0  0  0  0  0  0
    2.9670   -3.3461   -2.6274 C   0  0  0  0  0  0  0  0  0  0  0  0
    4.4313   -3.1961   -2.9961 C   0  0  1  0  0  0  0  0  0  0  0  0
    4.6092   -3.8255   -4.2532 O   0  0  0  0  0  0  0  0  0  0  0  0
    5.5302   -3.6585   -2.0419 C   0  0  2  0  0  0  0  0  0  0  0  0
    5.1640   -4.3502   -0.6897 C   0  0  0  0  0  0  0  0  0  0  0  0
    4.4179   -3.5287    0.4100 C   0  0  2  0  0  0  0  0  0  0  0  0
    4.1359   -1.9934    0.4800 C   0  0  1  0  0  0  0  0  0  0  0  0
    3.6117   -2.3162    1.9189 C   0  0  0  0  0  0  0  0  0  0  0  0
    4.9903   -2.9916    1.7613 C   0  0  1  0  0  0  0  0  0  0  0  0
    5.5993   -3.7479    2.7841 O   0  0  0  0  0  0  0  0  0  0  0  0
    5.4883   -1.6100    1.1885 C   0  0  2  0  0  0  0  0  0  0  0  0
    5.4479   -0.3078    2.0257 C   0  0  0  0  0  0  0  0  0  0  0  0
    6.8810   -1.6278    0.4584 C   0  0  0  0  0  0  0  0  0  0  0  0
    7.9035   -1.0560    0.8376 O   0  0  0  0  0  0  0  0  0  0  0  0
    9.2094   -2.9523   -0.7459 H   0  0  0  0  0  0  0  0  0  0  0  0
    8.1969   -4.2485   -1.2251 H   0  0  0  0  0  0  0  0  0  0  0  0
    8.3205   -3.8185    0.4878 H   0  0  0  0  0  0  0  0  0  0  0  0
    5.1896   -1.5015   -4.0524 H   0  0  0  0  0  0  0  0  0  0  0  0
    3.1485   -0.4219   -2.3158 H   0  0  0  0  0  0  0  0  0  0  0  0
    3.3483   -0.5702   -5.3754 H   0  0  0  0  0  0  0  0  0  0  0  0
    3.9343    0.7709   -4.3827 H   0  0  0  0  0  0  0  0  0  0  0  0
    2.2166    0.4162   -4.4680 H   0  0  0  0  0  0  0  0  0  0  0  0
    1.4845   -1.9339   -2.6920 H   0  0  0  0  0  0  0  0  0  0  0  0
    2.0442   -2.3900   -4.3114 H   0  0  0  0  0  0  0  0  0  0  0  0
    2.8163   -3.2568   -1.5554 H   0  0  0  0  0  0  0  0  0  0  0  0
    2.4846   -4.2534   -2.9816 H   0  0  0  0  0  0  0  0  0  0  0  0
    4.4457   -4.7451   -4.1179 H   0  0  0  0  0  0  0  0  0  0  0  0
    6.2497   -4.2456   -2.6060 H   0  0  0  0  0  0  0  0  0  0  0  0
    4.5738   -5.2267   -0.9304 H   0  0  0  0  0  0  0  0  0  0  0  0
    6.0478   -4.7785   -0.2321 H   0  0  0  0  0  0  0  0  0  0  0  0
    3.5102   -4.1149    0.5768 H   0  0  0  0  0  0  0  0  0  0  0  0
    3.5559   -1.3958   -0.2168 H   0  0  0  0  0  0  0  0  0  0  0  0
    3.5120   -1.5217    2.6609 H   0  0  0  0  0  0  0  0  0  0  0  0
    2.7332   -2.9602    2.0134 H   0  0  0  0  0  0  0  0  0  0  0  0
    4.9004   -4.1547    3.2714 H   0  0  0  0  0  0  0  0  0  0  0  0
    4.4981    0.2051    1.9325 H   0  0  0  0  0  0  0  0  0  0  0  0
    6.1546    0.4144    1.6545 H   0  0  0  0  0  0  0  0  0  0  0  0
    5.6519   -0.4880    3.0780 H   0  0  0  0  0  0  0  0  0  0  0  0
  1  2  1  0
  1 23  1  0
  1 24  1  0
  1 25  1  0
  2 21  1  0
  2  3  2  3
  3 12  1  0
  3  4  1  0
  4  5  1  0
  5 10  1  0
  5  6  1  0
  5 26  1  6
  6  7  1  0
  6  8  1  0
  6 27  1  1
  7 28  1  0
  7 29  1  0
  7 30  1  0
  8  9  1  0
  8 31  1  0
  8 32  1  0
  9 10  1  0
  9 33  1  0
  9 34  1  0
 10 11  1  6
 10 12  1  0
 11 35  1  0
 12 13  1  0
 12 36  1  6
 13 14  1  0
 13 37  1  0
 13 38  1  0
 14 17  1  0
 14 15  1  0
 14 39  1  1
 15 19  1  0
 15 16  1  0
 15 40  1  6
 16 17  1  0
 16 41  1  0
 16 42  1  0
 17 18  1  1
 17 19  1  0
 18 43  1  0
 19 20  1  1
 19 21  1  0
 20 44  1  0
 20 45  1  0
 20 46  1  0
 21 22  2  0
M  END
>  <i_m_ct_stereo_status>  (172) 
1

>  <s_m_source_file>  (172) 
/var/tmp/pbs.5076255.sched01/tmp8yzwbncg/40d_vk9m1l.sdf

>  <i_m_source_file_index>  (172) 
30

>  <i_lp_mmshare_version>  (172) 
48012

>  <i_f3d_flags>  (172) 
0

>  <s_epik_input>  (172) 
W0NIM10vQz0xQyg9TylbQ0BdKFtDSDNdKShbQ0BdMihbQ0gyXTMpW09IXSlbQ0BIXTNbQ0BIXTJbQ0gyXVtDQEBIXTRDMVxPW0NAQEhdKFtDQEBdNDVbT0hdKVtDQEBIXShbQ0gzXSlbQ0gyXVtDSDJdNQ==

>  <s_epik_cmdline>  (172) 
J2VwaWtfcHl0aG9uJywgJy1waHQnLCAnMi4wJywgJy1waCcsICc3LjAnLCAnLXRuJywgJzgnLCAnLW1hJywgJzIwMCcsICctaW1hZScsICc8aW5maWxlLm1hZT4nLCAnLW9tYWUnLCAnPG91dGZpbGUubWFlPic=

>  <r_lp_tautomer_probability>  (172) 
1

>  <r_epik_Ionization_Penalty>  (172) 
9.19975e-08

>  <r_epik_Ionization_Penalty_Charging>  (172) 
0

>  <r_epik_Ionization_Penalty_Neutral>  (172) 
9.19975e-08

>  <r_epik_State_Penalty>  (172) 
-0

>  <r_epik_Charging_Adjusted_Penalty>  (172) 
0

>  <i_epik_Tot_Q>  (172) 
0

>  <i_epik_Tot_abs_Q>  (172) 
0

>  <s_lp_Force_Field>  (172) 
OPLS3e

>  <r_lp_Energy>  (172) 
132.957

>  <b_lp_Chiralities_Consistent>  (172) 
1

>  <s_lp_Variant>  (172) 
50:0-2

>  <s_i_glide_gridfile>  (172) 
pfpi4k_grid

>  <i_i_glide_lignum>  (172) 
30

>  <i_i_glide_rotatable_bonds>  (172) 
2

>  <r_i_docking_score>  (172) 
-3.5274

>  <r_i_glide_ligand_efficiency>  (172) 
-0.160336

>  <r_i_glide_ligand_efficiency_sa>  (172) 
-0.449269

>  <r_i_glide_ligand_efficiency_ln>  (172) 
-0.862226

>  <r_i_glide_gscore>  (172) 
-3.5274

>  <r_i_glide_lipo>  (172) 
-1.04551

>  <r_i_glide_hbond>  (172) 
-0.000244597

>  <r_i_glide_metal>  (172) 
-0

>  <r_i_glide_rewards>  (172) 
-1.33377

>  <r_i_glide_evdw>  (172) 
-12.562

>  <r_i_glide_ecoul>  (172) 
-3.39078

>  <r_i_glide_erotb>  (172) 
0

>  <r_i_glide_esite>  (172) 
-0.0111603

>  <r_i_glide_emodel>  (172) 
-14.0775

>  <r_i_glide_energy>  (172) 
-15.9528

>  <r_i_glide_einternal>  (172) 
0.481024

>  <r_i_glide_intrahb_reward>  (172) 
-0

>  <i_i_glide_confnum>  (172) 
2

>  <i_i_glide_posenum>  (172) 
4

>  <r_i_glide_eff_state_penalty>  (172) 
0

>  <ligand_id>  (172) 
50

>  <original_smiles>  (172) 
CC1=C2OC3C(C)CCC3(O)C2CC2C3CC2(O)C3(C)C1=O

>  <smiles>  (172) 
[H]OC12C([H])([H])C([H])([H])C([H])(C([H])([H])[H])C1([H])OC1=C(C([H])([H])[H])C(=O)C3(C([H])([H])[H])C4([H])C([H])([H])C3(O[H])C4([H])C([H])([H])C12[H]

$$$$
50:1:1
     RDKit          3D

 46 50  0  0  1  0  0  0  0  0999 V2000
    7.6295   -3.7898    0.2442 C   0  0  0  0  0  0  0  0  0  0  0  0
    6.7452   -2.6674   -0.2779 C   0  0  0  0  0  0  0  0  0  0  0  0
    5.9677   -2.7295   -1.3568 C   0  0  0  0  0  0  0  0  0  0  0  0
    5.4035   -1.6395   -1.9667 O   0  0  0  0  0  0  0  0  0  0  0  0
    4.7069   -2.0862   -3.1212 C   0  0  2  0  0  0  0  0  0  0  0  0
    3.4822   -1.2485   -3.5247 C   0  0  1  0  0  0  0  0  0  0  0  0
    3.6753   -0.5103   -4.8657 C   0  0  0  0  0  0  0  0  0  0  0  0
    2.3763   -2.2999   -3.5915 C   0  0  0  0  0  0  0  0  0  0  0  0
    2.7539   -3.3894   -2.6405 C   0  0  0  0  0  0  0  0  0  0  0  0
    4.2539   -3.5001   -2.8010 C   0  0  1  0  0  0  0  0  0  0  0  0
    4.5495   -4.3012   -3.9236 O   0  0  0  0  0  0  0  0  0  0  0  0
    5.1262   -3.9241   -1.6188 C   0  0  2  0  0  0  0  0  0  0  0  0
    4.4862   -4.3422   -0.2564 C   0  0  0  0  0  0  0  0  0  0  0  0
    3.7091   -3.2833    0.5676 C   0  0  2  0  0  0  0  0  0  0  0  0
    3.6492   -1.7442    0.3304 C   0  0  1  0  0  0  0  0  0  0  0  0
    2.8823   -1.7496    1.6942 C   0  0  0  0  0  0  0  0  0  0  0  0
    4.1742   -2.5820    1.8790 C   0  0  1  0  0  0  0  0  0  0  0  0
    4.5080   -3.2150    3.0893 O   0  0  0  0  0  0  0  0  0  0  0  0
    4.9451   -1.4153    1.1690 C   0  0  2  0  0  0  0  0  0  0  0  0
    4.9568    0.0039    1.7640 C   0  0  0  0  0  0  0  0  0  0  0  0
    6.4326   -1.6572    0.7129 C   0  0  0  0  0  0  0  0  0  0  0  0
    7.3906   -1.0817    1.2306 O   0  0  0  0  0  0  0  0  0  0  0  0
    8.6616   -3.4884    0.0766 H   0  0  0  0  0  0  0  0  0  0  0  0
    7.4930   -4.7205   -0.3093 H   0  0  0  0  0  0  0  0  0  0  0  0
    7.5057   -3.9769    1.3114 H   0  0  0  0  0  0  0  0  0  0  0  0
    5.4118   -2.1533   -3.9270 H   0  0  0  0  0  0  0  0  0  0  0  0
    3.2786   -0.5266   -2.7370 H   0  0  0  0  0  0  0  0  0  0  0  0
    3.8488   -1.2116   -5.6715 H   0  0  0  0  0  0  0  0  0  0  0  0
    4.5180    0.1848   -4.8427 H   0  0  0  0  0  0  0  0  0  0  0  0
    2.7657    0.0247   -5.1412 H   0  0  0  0  0  0  0  0  0  0  0  0
    1.4460   -1.9763   -3.2031 H   0  0  0  0  0  0  0  0  0  0  0  0
    2.2599   -2.7234   -4.5954 H   0  0  0  0  0  0  0  0  0  0  0  0
    2.4637   -3.1065   -1.6391 H   0  0  0  0  0  0  0  0  0  0  0  0
    2.2217   -4.2524   -2.9517 H   0  0  0  0  0  0  0  0  0  0  0  0
    4.3117   -5.1963   -3.6993 H   0  0  0  0  0  0  0  0  0  0  0  0
    5.8070   -4.6723   -1.9261 H   0  0  0  0  0  0  0  0  0  0  0  0
    3.8275   -5.1799   -0.4695 H   0  0  0  0  0  0  0  0  0  0  0  0
    5.2393   -4.8010    0.3831 H   0  0  0  0  0  0  0  0  0  0  0  0
    2.7201   -3.7440    0.6471 H   0  0  0  0  0  0  0  0  0  0  0  0
    3.2581   -1.2123   -0.5409 H   0  0  0  0  0  0  0  0  0  0  0  0
    2.7794   -0.8303    2.2674 H   0  0  0  0  0  0  0  0  0  0  0  0
    1.9156   -2.2634    1.7474 H   0  0  0  0  0  0  0  0  0  0  0  0
    4.2987   -2.6048    3.7796 H   0  0  0  0  0  0  0  0  0  0  0  0
    4.1231    0.6262    1.4286 H   0  0  0  0  0  0  0  0  0  0  0  0
    5.8127    0.5391    1.3963 H   0  0  0  0  0  0  0  0  0  0  0  0
    4.9906    0.0180    2.8548 H   0  0  0  0  0  0  0  0  0  0  0  0
  1  2  1  0
  1 23  1  0
  1 24  1  0
  1 25  1  0
  2 21  1  0
  2  3  2  3
  3 12  1  0
  3  4  1  0
  4  5  1  0
  5 10  1  0
  5  6  1  0
  5 26  1  6
  6  7  1  0
  6  8  1  0
  6 27  1  1
  7 28  1  0
  7 29  1  0
  7 30  1  0
  8  9  1  0
  8 31  1  0
  8 32  1  0
  9 10  1  0
  9 33  1  0
  9 34  1  0
 10 11  1  6
 10 12  1  0
 11 35  1  0
 12 13  1  0
 12 36  1  6
 13 14  1  0
 13 37  1  0
 13 38  1  0
 14 17  1  0
 14 15  1  0
 14 39  1  1
 15 19  1  0
 15 16  1  0
 15 40  1  6
 16 17  1  0
 16 41  1  0
 16 42  1  0
 17 18  1  1
 17 19  1  0
 18 43  1  0
 19 20  1  1
 19 21  1  0
 20 44  1  0
 20 45  1  0
 20 46  1  0
 21 22  2  0
M  END
>  <i_m_ct_stereo_status>  (173) 
1

>  <s_m_source_file>  (173) 
/var/tmp/pbs.5076255.sched01/tmp8yzwbncg/40d_vk9m1l.sdf

>  <i_m_source_file_index>  (173) 
30

>  <i_lp_mmshare_version>  (173) 
48012

>  <i_f3d_flags>  (173) 
0

>  <s_epik_input>  (173) 
W0NIM10vQz0xQyg9TylbQ0BdKFtDSDNdKShbQ0BdMihbQ0gyXTMpW09IXSlbQ0BIXTNbQ0BIXTJbQ0gyXVtDQEBIXTRDMVxPW0NAQEhdKFtDQEBdNDVbT0hdKVtDQEBIXShbQ0gzXSlbQ0gyXVtDSDJdNQ==

>  <s_epik_cmdline>  (173) 
J2VwaWtfcHl0aG9uJywgJy1waHQnLCAnMi4wJywgJy1waCcsICc3LjAnLCAnLXRuJywgJzgnLCAnLW1hJywgJzIwMCcsICctaW1hZScsICc8aW5maWxlLm1hZT4nLCAnLW9tYWUnLCAnPG91dGZpbGUubWFlPic=

>  <r_lp_tautomer_probability>  (173) 
1

>  <r_epik_Ionization_Penalty>  (173) 
9.19975e-08

>  <r_epik_Ionization_Penalty_Charging>  (173) 
0

>  <r_epik_Ionization_Penalty_Neutral>  (173) 
9.19975e-08

>  <r_epik_State_Penalty>  (173) 
-0

>  <r_epik_Charging_Adjusted_Penalty>  (173) 
0

>  <i_epik_Tot_Q>  (173) 
0

>  <i_epik_Tot_abs_Q>  (173) 
0

>  <s_lp_Force_Field>  (173) 
OPLS3e

>  <r_lp_Energy>  (173) 
132.957

>  <b_lp_Chiralities_Consistent>  (173) 
1

>  <s_lp_Variant>  (173) 
50:0-2

>  <s_i_glide_gridfile>  (173) 
pfpi4k_grid

>  <i_i_glide_lignum>  (173) 
30

>  <i_i_glide_rotatable_bonds>  (173) 
2

>  <r_i_docking_score>  (173) 
-3.51638

>  <r_i_glide_ligand_efficiency>  (173) 
-0.159835

>  <r_i_glide_ligand_efficiency_sa>  (173) 
-0.447865

>  <r_i_glide_ligand_efficiency_ln>  (173) 
-0.859531

>  <r_i_glide_gscore>  (173) 
-3.51638

>  <r_i_glide_lipo>  (173) 
-1.08337

>  <r_i_glide_hbond>  (173) 
0

>  <r_i_glide_metal>  (173) 
-0

>  <r_i_glide_rewards>  (173) 
-1.42381

>  <r_i_glide_evdw>  (173) 
-10.8282

>  <r_i_glide_ecoul>  (173) 
-3.11861

>  <r_i_glide_erotb>  (173) 
0

>  <r_i_glide_esite>  (173) 
0

>  <r_i_glide_emodel>  (173) 
-12.8934

>  <r_i_glide_energy>  (173) 
-13.9468

>  <r_i_glide_einternal>  (173) 
0.166006

>  <r_i_glide_intrahb_reward>  (173) 
-0

>  <i_i_glide_confnum>  (173) 
1

>  <i_i_glide_posenum>  (173) 
1

>  <r_i_glide_eff_state_penalty>  (173) 
0

>  <ligand_id>  (173) 
50

>  <original_smiles>  (173) 
CC1=C2OC3C(C)CCC3(O)C2CC2C3CC2(O)C3(C)C1=O

>  <smiles>  (173) 
[H]OC12C([H])([H])C([H])([H])C([H])(C([H])([H])[H])C1([H])OC1=C(C([H])([H])[H])C(=O)C3(C([H])([H])[H])C4([H])C([H])([H])C3(O[H])C4([H])C([H])([H])C12[H]

$$$$
50:1:2
     RDKit          3D

 46 50  0  0  1  0  0  0  0  0999 V2000
    8.2940   -3.4246   -0.7449 C   0  0  0  0  0  0  0  0  0  0  0  0
    7.1679   -2.3979   -0.8420 C   0  0  0  0  0  0  0  0  0  0  0  0
    6.2187   -2.3696   -1.7852 C   0  0  0  0  0  0  0  0  0  0  0  0
    5.4178   -1.2996   -2.0871 O   0  0  0  0  0  0  0  0  0  0  0  0
    4.6107   -1.6658   -3.2048 C   0  0  2  0  0  0  0  0  0  0  0  0
    3.2463   -0.9855   -3.2641 C   0  0  1  0  0  0  0  0  0  0  0  0
    3.0914   -0.0228   -4.4649 C   0  0  0  0  0  0  0  0  0  0  0  0
    2.2584   -2.1508   -3.3022 C   0  0  0  0  0  0  0  0  0  0  0  0
    2.9386   -3.3429   -2.6702 C   0  0  0  0  0  0  0  0  0  0  0  0
    4.4100   -3.1773   -3.0663 C   0  0  1  0  0  0  0  0  0  0  0  0
    4.6003   -3.8042   -4.3137 O   0  0  0  0  0  0  0  0  0  0  0  0
    5.5400   -3.6339   -2.1409 C   0  0  2  0  0  0  0  0  0  0  0  0
    5.1918   -4.3549   -0.7997 C   0  0  0  0  0  0  0  0  0  0  0  0
    4.4710   -3.5510    0.3234 C   0  0  2  0  0  0  0  0  0  0  0  0
    4.1943   -2.0193    0.4033 C   0  0  1  0  0  0  0  0  0  0  0  0
    3.7027   -2.3598    1.8485 C   0  0  0  0  0  0  0  0  0  0  0  0
    5.0841   -3.0174    1.6559 C   0  0  1  0  0  0  0  0  0  0  0  0
    5.6994   -3.8099    2.6354 O   0  0  0  0  0  0  0  0  0  0  0  0
    5.5680   -1.6445    1.0815 C   0  0  2  0  0  0  0  0  0  0  0  0
    5.5337   -0.3375    1.9124 C   0  0  0  0  0  0  0  0  0  0  0  0
    6.9465   -1.6328    0.3606 C   0  0  0  0  0  0  0  0  0  0  0  0
    7.9398   -1.0518    0.7906 O   0  0  0  0  0  0  0  0  0  0  0  0
    9.2442   -2.9594   -1.0023 H   0  0  0  0  0  0  0  0  0  0  0  0
    8.2254   -4.2466   -1.4456 H   0  0  0  0  0  0  0  0  0  0  0  0
    8.3833   -3.8233    0.2646 H   0  0  0  0  0  0  0  0  0  0  0  0
    5.1094   -1.4654   -4.1436 H   0  0  0  0  0  0  0  0  0  0  0  0
    3.1084   -0.4191   -2.3467 H   0  0  0  0  0  0  0  0  0  0  0  0
    3.2102   -0.5440   -5.4177 H   0  0  0  0  0  0  0  0  0  0  0  0
    3.8203    0.7892   -4.4307 H   0  0  0  0  0  0  0  0  0  0  0  0
    2.1013    0.4341   -4.4697 H   0  0  0  0  0  0  0  0  0  0  0  0
    1.4096   -1.9492   -2.6976 H   0  0  0  0  0  0  0  0  0  0  0  0
    1.9364   -2.3753   -4.3178 H   0  0  0  0  0  0  0  0  0  0  0  0
    2.8022   -3.2738   -1.5968 H   0  0  0  0  0  0  0  0  0  0  0  0
    2.4563   -4.2525   -3.0283 H   0  0  0  0  0  0  0  0  0  0  0  0
    4.4507   -4.7371   -4.1887 H   0  0  0  0  0  0  0  0  0  0  0  0
    6.2407   -4.2261   -2.7255 H   0  0  0  0  0  0  0  0  0  0  0  0
    4.5988   -5.2356   -1.0507 H   0  0  0  0  0  0  0  0  0  0  0  0
    6.0923   -4.7894   -0.3689 H   0  0  0  0  0  0  0  0  0  0  0  0
    3.5680   -4.1389    0.4933 H   0  0  0  0  0  0  0  0  0  0  0  0
    3.5865   -1.4230   -0.2767 H   0  0  0  0  0  0  0  0  0  0  0  0
    3.6188   -1.5735    2.5952 H   0  0  0  0  0  0  0  0  0  0  0  0
    2.8370   -3.0123    1.9689 H   0  0  0  0  0  0  0  0  0  0  0  0
    5.4627   -3.4343    3.4717 H   0  0  0  0  0  0  0  0  0  0  0  0
    4.5646    0.1680    1.8596 H   0  0  0  0  0  0  0  0  0  0  0  0
    6.2069    0.4064    1.5163 H   0  0  0  0  0  0  0  0  0  0  0  0
    5.7760   -0.5188    2.9628 H   0  0  0  0  0  0  0  0  0  0  0  0
  1  2  1  0
  1 23  1  0
  1 24  1  0
  1 25  1  0
  2 21  1  0
  2  3  2  3
  3 12  1  0
  3  4  1  0
  4  5  1  0
  5 10  1  0
  5  6  1  0
  5 26  1  6
  6  7  1  0
  6  8  1  0
  6 27  1  1
  7 28  1  0
  7 29  1  0
  7 30  1  0
  8  9  1  0
  8 31  1  0
  8 32  1  0
  9 10  1  0
  9 33  1  0
  9 34  1  0
 10 11  1  6
 10 12  1  0
 11 35  1  0
 12 13  1  0
 12 36  1  6
 13 14  1  0
 13 37  1  0
 13 38  1  0
 14 17  1  0
 14 15  1  0
 14 39  1  1
 15 19  1  0
 15 16  1  0
 15 40  1  6
 16 17  1  0
 16 41  1  0
 16 42  1  0
 17 18  1  1
 17 19  1  0
 18 43  1  0
 19 20  1  1
 19 21  1  0
 20 44  1  0
 20 45  1  0
 20 46  1  0
 21 22  2  0
M  END
>  <i_m_ct_stereo_status>  (174) 
1

>  <s_m_source_file>  (174) 
/var/tmp/pbs.5076255.sched01/tmp8yzwbncg/40d_vk9m1l.sdf

>  <i_m_source_file_index>  (174) 
30

>  <i_lp_mmshare_version>  (174) 
48012

>  <i_f3d_flags>  (174) 
0

>  <s_epik_input>  (174) 
W0NIM10vQz0xQyg9TylbQ0BdKFtDSDNdKShbQ0BdMihbQ0gyXTMpW09IXSlbQ0BIXTNbQ0BIXTJbQ0gyXVtDQEBIXTRDMVxPW0NAQEhdKFtDQEBdNDVbT0hdKVtDQEBIXShbQ0gzXSlbQ0gyXVtDSDJdNQ==

>  <s_epik_cmdline>  (174) 
J2VwaWtfcHl0aG9uJywgJy1waHQnLCAnMi4wJywgJy1waCcsICc3LjAnLCAnLXRuJywgJzgnLCAnLW1hJywgJzIwMCcsICctaW1hZScsICc8aW5maWxlLm1hZT4nLCAnLW9tYWUnLCAnPG91dGZpbGUubWFlPic=

>  <r_lp_tautomer_probability>  (174) 
1

>  <r_epik_Ionization_Penalty>  (174) 
9.19975e-08

>  <r_epik_Ionization_Penalty_Charging>  (174) 
0

>  <r_epik_Ionization_Penalty_Neutral>  (174) 
9.19975e-08

>  <r_epik_State_Penalty>  (174) 
-0

>  <r_epik_Charging_Adjusted_Penalty>  (174) 
0

>  <i_epik_Tot_Q>  (174) 
0

>  <i_epik_Tot_abs_Q>  (174) 
0

>  <s_lp_Force_Field>  (174) 
OPLS3e

>  <r_lp_Energy>  (174) 
132.957

>  <b_lp_Chiralities_Consistent>  (174) 
1

>  <s_lp_Variant>  (174) 
50:0-2

>  <s_i_glide_gridfile>  (174) 
pfpi4k_grid

>  <i_i_glide_lignum>  (174) 
30

>  <i_i_glide_rotatable_bonds>  (174) 
2

>  <r_i_docking_score>  (174) 
-3.36779

>  <r_i_glide_ligand_efficiency>  (174) 
-0.153081

>  <r_i_glide_ligand_efficiency_sa>  (174) 
-0.42894

>  <r_i_glide_ligand_efficiency_ln>  (174) 
-0.823211

>  <r_i_glide_gscore>  (174) 
-3.36779

>  <r_i_glide_lipo>  (174) 
-0.97895

>  <r_i_glide_hbond>  (174) 
0

>  <r_i_glide_metal>  (174) 
-0

>  <r_i_glide_rewards>  (174) 
-1.33377

>  <r_i_glide_evdw>  (174) 
-11.2067

>  <r_i_glide_ecoul>  (174) 
-3.18136

>  <r_i_glide_erotb>  (174) 
0

>  <r_i_glide_esite>  (174) 
-0.0175339

>  <r_i_glide_emodel>  (174) 
-13.1671

>  <r_i_glide_energy>  (174) 
-14.3881

>  <r_i_glide_einternal>  (174) 
0.209464

>  <r_i_glide_intrahb_reward>  (174) 
-0

>  <i_i_glide_confnum>  (174) 
2

>  <i_i_glide_posenum>  (174) 
3

>  <r_i_glide_eff_state_penalty>  (174) 
0

>  <ligand_id>  (174) 
50

>  <original_smiles>  (174) 
CC1=C2OC3C(C)CCC3(O)C2CC2C3CC2(O)C3(C)C1=O

>  <smiles>  (174) 
[H]OC12C([H])([H])C([H])([H])C([H])(C([H])([H])[H])C1([H])OC1=C(C([H])([H])[H])C(=O)C3(C([H])([H])[H])C4([H])C([H])([H])C3(O[H])C4([H])C([H])([H])C12[H]

$$$$
51:0:0
     RDKit          3D

 65 71  0  0  1  0  0  0  0  0999 V2000
    5.1910  -10.1992    7.7845 C   0  0  0  0  0  0  0  0  0  0  0  0
    5.6058   -9.5105    6.6056 O   0  0  0  0  0  0  0  0  0  0  0  0
    4.5701   -9.2545    5.6470 C   0  0  2  0  0  0  0  0  0  0  0  0
    4.3343  -10.6287    4.9281 C   0  0  0  0  0  0  0  0  0  0  0  0
    4.5110  -10.7073    3.3779 C   0  0  1  0  0  0  0  0  0  0  0  0
    3.5968  -11.6709    2.8788 O   0  0  0  0  0  0  0  0  0  0  0  0
    4.5243   -9.3289    2.6026 C   0  0  1  0  0  0  0  0  0  0  0  0
    5.1090   -9.7795    1.3790 O   0  0  0  0  0  0  0  0  0  0  0  0
    2.9462   -8.9838    2.3293 C   0  0  2  0  0  0  0  0  0  0  0  0
    2.3438   -8.0793    1.3631 O   0  0  0  0  0  0  0  0  0  0  0  0
    2.3613   -6.7001    1.3265 C   0  0  0  0  0  0  0  0  0  0  0  0
    1.4305   -6.0540    0.8335 O   0  0  0  0  0  0  0  0  0  0  0  0
    3.6523   -6.1547    1.7983 C   0  0  1  0  0  0  0  0  0  0  0  0
    4.7002   -6.7778    0.8057 C   0  0  0  0  0  0  0  0  0  0  0  0
    5.9478   -7.2149    1.2606 O   0  0  0  0  0  0  0  0  0  0  0  0
    6.2803   -7.1017    2.5852 C   0  0  1  0  0  0  0  0  0  0  0  0
    7.6910   -7.1983    2.5800 O   0  0  0  0  0  0  0  0  0  0  0  0
    6.1329   -5.5875    2.9869 C   0  0  0  0  0  0  0  0  0  0  0  0
    4.7373   -5.0085    3.1541 C   0  0  1  0  0  0  0  0  0  0  0  0
    3.8954   -4.6168    1.9039 C   0  0  1  0  0  0  0  0  0  0  0  0
    4.5575   -3.8800    0.8950 O   0  0  0  0  0  0  0  0  0  0  0  0
    3.6475   -6.0193    3.3754 C   0  0  2  0  0  0  0  0  0  0  0  0
    3.5604   -7.0884    4.4994 C   0  0  1  0  0  0  0  0  0  0  0  0
    2.1366   -7.7355    4.4072 C   0  0  2  0  0  0  0  0  0  0  0  0
    1.2912   -7.9036    5.6868 C   0  0  0  0  0  0  0  0  0  0  0  0
   -0.0373   -8.2142    5.2729 O   0  0  0  0  0  0  0  0  0  0  0  0
   -0.1224   -9.3202    4.4157 C   0  0  0  0  0  0  0  0  0  0  0  0
    0.6389   -9.1456    3.2504 O   0  0  0  0  0  0  0  0  0  0  0  0
    2.0194   -8.9881    3.5611 C   0  0  1  0  0  0  0  0  0  0  0  0
    4.8677   -7.9495    4.7697 C   0  0  1  0  0  0  0  0  0  0  0  0
    5.7546   -7.0534    5.7013 C   0  0  0  0  0  0  0  0  0  0  0  0
    5.5865   -8.3687    3.4224 C   0  0  1  0  0  0  0  0  0  0  0  0
    6.8554   -9.2591    3.7972 C   0  0  0  0  0  0  0  0  0  0  0  0
    6.0469  -10.3521    8.4413 H   0  0  0  0  0  0  0  0  0  0  0  0
    4.7733  -11.1819    7.5690 H   0  0  0  0  0  0  0  0  0  0  0  0
    4.4460   -9.6337    8.3438 H   0  0  0  0  0  0  0  0  0  0  0  0
    3.7029   -9.0221    6.2583 H   0  0  0  0  0  0  0  0  0  0  0  0
    5.0200  -11.3715    5.3297 H   0  0  0  0  0  0  0  0  0  0  0  0
    3.3812  -11.0386    5.2559 H   0  0  0  0  0  0  0  0  0  0  0  0
    5.4595  -11.2159    3.2034 H   0  0  0  0  0  0  0  0  0  0  0  0
    3.8113  -11.8684    1.9539 H   0  0  0  0  0  0  0  0  0  0  0  0
    4.6139  -10.5157    1.0211 H   0  0  0  0  0  0  0  0  0  0  0  0
    2.6060   -9.8683    1.8000 H   0  0  0  0  0  0  0  0  0  0  0  0
    4.3236   -7.5948    0.1968 H   0  0  0  0  0  0  0  0  0  0  0  0
    4.9383   -6.0727    0.0116 H   0  0  0  0  0  0  0  0  0  0  0  0
    7.9087   -8.0414    2.2022 H   0  0  0  0  0  0  0  0  0  0  0  0
    6.7301   -5.4022    3.8746 H   0  0  0  0  0  0  0  0  0  0  0  0
    6.6563   -5.0094    2.2280 H   0  0  0  0  0  0  0  0  0  0  0  0
    4.6886   -4.1991    3.8865 H   0  0  0  0  0  0  0  0  0  0  0  0
    2.9903   -4.0504    2.1598 H   0  0  0  0  0  0  0  0  0  0  0  0
    3.9290   -3.7175    0.2060 H   0  0  0  0  0  0  0  0  0  0  0  0
    2.7827   -5.3992    3.6571 H   0  0  0  0  0  0  0  0  0  0  0  0
    3.4398   -6.5170    5.4247 H   0  0  0  0  0  0  0  0  0  0  0  0
    1.5182   -7.0132    3.8775 H   0  0  0  0  0  0  0  0  0  0  0  0
    1.6567   -8.6782    6.3597 H   0  0  0  0  0  0  0  0  0  0  0  0
    1.2557   -6.9632    6.2408 H   0  0  0  0  0  0  0  0  0  0  0  0
    0.1625  -10.2399    4.9382 H   0  0  0  0  0  0  0  0  0  0  0  0
   -1.1599   -9.4458    4.1107 H   0  0  0  0  0  0  0  0  0  0  0  0
    2.2005   -9.8619    4.1526 H   0  0  0  0  0  0  0  0  0  0  0  0
    5.6386   -5.9903    5.5233 H   0  0  0  0  0  0  0  0  0  0  0  0
    6.8131   -7.2817    5.6481 H   0  0  0  0  0  0  0  0  0  0  0  0
    5.4714   -7.1472    6.7504 H   0  0  0  0  0  0  0  0  0  0  0  0
    7.6320   -8.7232    4.3334 H   0  0  0  0  0  0  0  0  0  0  0  0
    7.3096   -9.6944    2.9069 H   0  0  0  0  0  0  0  0  0  0  0  0
    6.7125  -10.0875    4.4756 H   0  0  0  0  0  0  0  0  0  0  0  0
  1  2  1  0
  1 34  1  0
  1 35  1  0
  1 36  1  0
  2  3  1  0
  3 30  1  0
  3  4  1  0
  3 37  1  1
  4  5  1  0
  4 38  1  0
  4 39  1  0
  5  6  1  0
  5  7  1  0
  5 40  1  1
  6 41  1  0
  7 32  1  0
  7  8  1  6
  7  9  1  0
  8 42  1  0
  9 29  1  0
  9 10  1  0
  9 43  1  6
 10 11  1  0
 11 12  2  0
 11 13  1  0
 13 20  1  0
 13 22  1  0
 13 14  1  1
 14 15  1  0
 14 44  1  0
 14 45  1  0
 15 16  1  0
 16 32  1  0
 16 17  1  6
 16 18  1  0
 17 46  1  0
 18 19  1  0
 18 47  1  0
 18 48  1  0
 19 20  1  0
 19 22  1  0
 19 49  1  1
 20 21  1  0
 20 50  1  1
 21 51  1  0
 22 23  1  0
 22 52  1  6
 23 24  1  0
 23 30  1  0
 23 53  1  1
 24 29  1  0
 24 25  1  0
 24 54  1  6
 25 26  1  0
 25 55  1  0
 25 56  1  0
 26 27  1  0
 27 28  1  0
 27 57  1  0
 27 58  1  0
 28 29  1  0
 29 59  1  1
 30 31  1  1
 30 32  1  0
 31 60  1  0
 31 61  1  0
 31 62  1  0
 32 33  1  1
 33 63  1  0
 33 64  1  0
 33 65  1  0
M  END
>  <i_m_ct_stereo_status>  (175) 
1

>  <s_m_source_file>  (175) 
/var/tmp/pbs.5076255.sched01/tmp8yzwbncg/40d_vk9m1l.sdf

>  <i_m_source_file_index>  (175) 
31

>  <i_lp_mmshare_version>  (175) 
48012

>  <i_f3d_flags>  (175) 
0

>  <s_epik_input>  (175) 
W09IXVtDQEBIXTFbQ0gyXVtDQEBIXShPW0NIM10pW0NAXTIoW0NIM10pW0NAQEhdM1tDQEhdKFtDSDJdT1tDSDJdTzQpW0NAQEhdNFtDQEBIXShPQzU9TylbQ0BAXTEoW09IXSlbQ0BAXTIoW0NIM10pW0NAQF0oW09IXSkoT1tDSDJdNilbQ0gyXVtDQEhdKFtDQEhdM1tDQF01NjcpW0NASF03W09IXQ==

>  <s_epik_cmdline>  (175) 
J2VwaWtfcHl0aG9uJywgJy1waHQnLCAnMi4wJywgJy1waCcsICc3LjAnLCAnLXRuJywgJzgnLCAnLW1hJywgJzIwMCcsICctaW1hZScsICc8aW5maWxlLm1hZT4nLCAnLW9tYWUnLCAnPG91dGZpbGUubWFlPic=

>  <r_lp_tautomer_probability>  (175) 
1

>  <r_epik_Ionization_Penalty>  (175) 
5.61323e-07

>  <r_epik_Ionization_Penalty_Charging>  (175) 
0

>  <r_epik_Ionization_Penalty_Neutral>  (175) 
5.61323e-07

>  <r_epik_State_Penalty>  (175) 
-0

>  <r_epik_Charging_Adjusted_Penalty>  (175) 
0

>  <i_epik_Tot_Q>  (175) 
0

>  <i_epik_Tot_abs_Q>  (175) 
0

>  <s_epik_Chemistry_Notes>  (175) 
This compound has an ester and may undergo hydrolysis at high or low pH. This compound contains an acetal/aminal-like group ( X-CH(R)-Y where X, Y are N, S, or O) that may be acid/base labile, releasing an aldehyde.

>  <s_lp_Force_Field>  (175) 
OPLS3e

>  <r_lp_Energy>  (175) 
193.208

>  <b_lp_Chiralities_Consistent>  (175) 
1

>  <s_lp_Variant>  (175) 
51:0-1

>  <s_i_glide_gridfile>  (175) 
pfpi4k_grid

>  <i_i_glide_lignum>  (175) 
31

>  <i_i_glide_rotatable_bonds>  (175) 
5

>  <r_i_docking_score>  (175) 
-3.2861

>  <r_i_glide_ligand_efficiency>  (175) 
-0.0995788

>  <r_i_glide_ligand_efficiency_sa>  (175) 
-0.319402

>  <r_i_glide_ligand_efficiency_ln>  (175) 
-0.730812

>  <r_i_glide_gscore>  (175) 
-3.2861

>  <r_i_glide_lipo>  (175) 
-0.184051

>  <r_i_glide_hbond>  (175) 
-0.141264

>  <r_i_glide_metal>  (175) 
-0

>  <r_i_glide_rewards>  (175) 
-0.240358

>  <r_i_glide_evdw>  (175) 
-18.3442

>  <r_i_glide_ecoul>  (175) 
-11.3856

>  <r_i_glide_erotb>  (175) 
0

>  <r_i_glide_esite>  (175) 
-0.0953834

>  <r_i_glide_emodel>  (175) 
-36.8575

>  <r_i_glide_energy>  (175) 
-29.7297

>  <r_i_glide_einternal>  (175) 
1.7169

>  <r_i_glide_intrahb_reward>  (175) 
-0

>  <i_i_glide_confnum>  (175) 
1

>  <i_i_glide_posenum>  (175) 
37

>  <r_i_glide_eff_state_penalty>  (175) 
0

>  <ligand_id>  (175) 
51

>  <original_smiles>  (175) 
COC1CC(O)C2(O)C3OC(=O)C45COC6(O)CC(C4O)C5C(C4COCOC43)C1(C)C62C

>  <smiles>  (175) 
[H]OC1([H])C([H])([H])C([H])(OC([H])([H])[H])C2(C([H])([H])[H])C3([H])C4([H])C([H])([H])OC([H])([H])OC4([H])C4([H])OC(=O)C56C([H])([H])OC(O[H])(C([H])([H])C([H])(C5([H])O[H])C36[H])C2(C([H])([H])[H])C14O[H]

$$$$
51:0:1
     RDKit          3D

 65 71  0  0  1  0  0  0  0  0999 V2000
    2.6368  -10.8127    5.6751 C   0  0  0  0  0  0  0  0  0  0  0  0
    3.5384   -9.7309    5.4162 O   0  0  0  0  0  0  0  0  0  0  0  0
    3.1415   -8.8323    4.3735 C   0  0  2  0  0  0  0  0  0  0  0  0
    3.3979   -9.6243    3.0437 C   0  0  0  0  0  0  0  0  0  0  0  0
    4.3617   -9.0273    1.9833 C   0  0  1  0  0  0  0  0  0  0  0  0
    3.9056   -9.4504    0.7082 O   0  0  0  0  0  0  0  0  0  0  0  0
    4.6875   -7.4822    2.1424 C   0  0  1  0  0  0  0  0  0  0  0  0
    5.8164   -7.3973    1.2884 O   0  0  0  0  0  0  0  0  0  0  0  0
    3.4843   -6.6981    1.3725 C   0  0  2  0  0  0  0  0  0  0  0  0
    3.4429   -5.3429    0.8472 O   0  0  0  0  0  0  0  0  0  0  0  0
    3.3993   -4.1532    1.5276 C   0  0  0  0  0  0  0  0  0  0  0  0
    2.8302   -3.1591    1.0716 O   0  0  0  0  0  0  0  0  0  0  0  0
    4.2047   -4.1945    2.7708 C   0  0  1  0  0  0  0  0  0  0  0  0
    5.6514   -4.4973    2.2463 C   0  0  0  0  0  0  0  0  0  0  0  0
    6.4874   -5.3851    2.9260 O   0  0  0  0  0  0  0  0  0  0  0  0
    6.0812   -5.9601    4.0945 C   0  0  1  0  0  0  0  0  0  0  0  0
    7.3015   -6.3602    4.7048 O   0  0  0  0  0  0  0  0  0  0  0  0
    5.6482   -4.8143    5.0968 C   0  0  0  0  0  0  0  0  0  0  0  0
    4.3394   -4.0756    4.8479 C   0  0  1  0  0  0  0  0  0  0  0  0
    4.2557   -2.9740    3.7474 C   0  0  1  0  0  0  0  0  0  0  0  0
    5.2972   -2.0179    3.7189 O   0  0  0  0  0  0  0  0  0  0  0  0
    3.3573   -4.8017    3.9735 C   0  0  2  0  0  0  0  0  0  0  0  0
    2.7589   -6.2190    4.1805 C   0  0  1  0  0  0  0  0  0  0  0  0
    1.6379   -6.4031    3.1053 C   0  0  2  0  0  0  0  0  0  0  0  0
    0.2557   -6.9353    3.5279 C   0  0  0  0  0  0  0  0  0  0  0  0
   -0.6314   -6.6892    2.4339 O   0  0  0  0  0  0  0  0  0  0  0  0
   -0.1863   -7.2465    1.2314 C   0  0  0  0  0  0  0  0  0  0  0  0
    1.0472   -6.7152    0.8496 O   0  0  0  0  0  0  0  0  0  0  0  0
    2.0516   -7.0509    1.8033 C   0  0  1  0  0  0  0  0  0  0  0  0
    3.7787   -7.3776    4.5580 C   0  0  1  0  0  0  0  0  0  0  0  0
    3.9885   -7.2392    6.1050 C   0  0  0  0  0  0  0  0  0  0  0  0
    5.1232   -7.2781    3.7248 C   0  0  1  0  0  0  0  0  0  0  0  0
    6.0552   -8.5003    4.1434 C   0  0  0  0  0  0  0  0  0  0  0  0
    3.0335  -11.4292    6.4825 H   0  0  0  0  0  0  0  0  0  0  0  0
    2.5047  -11.4696    4.8142 H   0  0  0  0  0  0  0  0  0  0  0  0
    1.6501  -10.4585    5.9788 H   0  0  0  0  0  0  0  0  0  0  0  0
    2.0730   -8.7246    4.5188 H   0  0  0  0  0  0  0  0  0  0  0  0
    3.8239  -10.6043    3.2709 H   0  0  0  0  0  0  0  0  0  0  0  0
    2.4372   -9.9147    2.6156 H   0  0  0  0  0  0  0  0  0  0  0  0
    5.2942   -9.5876    2.0480 H   0  0  0  0  0  0  0  0  0  0  0  0
    3.9956  -10.4014    0.6381 H   0  0  0  0  0  0  0  0  0  0  0  0
    6.5138   -7.9186    1.6490 H   0  0  0  0  0  0  0  0  0  0  0  0
    3.5469   -7.1437    0.3856 H   0  0  0  0  0  0  0  0  0  0  0  0
    5.7048   -4.8242    1.2095 H   0  0  0  0  0  0  0  0  0  0  0  0
    6.2274   -3.5798    2.1604 H   0  0  0  0  0  0  0  0  0  0  0  0
    7.0818   -6.8292    5.4915 H   0  0  0  0  0  0  0  0  0  0  0  0
    5.6758   -5.1966    6.1158 H   0  0  0  0  0  0  0  0  0  0  0  0
    6.4557   -4.0812    5.1164 H   0  0  0  0  0  0  0  0  0  0  0  0
    3.8711   -3.7124    5.7632 H   0  0  0  0  0  0  0  0  0  0  0  0
    3.3237   -2.4032    3.7874 H   0  0  0  0  0  0  0  0  0  0  0  0
    5.1027   -1.4116    3.0228 H   0  0  0  0  0  0  0  0  0  0  0  0
    2.4366   -4.2100    4.0708 H   0  0  0  0  0  0  0  0  0  0  0  0
    2.1420   -6.1229    5.0744 H   0  0  0  0  0  0  0  0  0  0  0  0
    1.3525   -5.3951    2.8058 H   0  0  0  0  0  0  0  0  0  0  0  0
    0.2518   -7.9949    3.7790 H   0  0  0  0  0  0  0  0  0  0  0  0
   -0.1183   -6.3885    4.3949 H   0  0  0  0  0  0  0  0  0  0  0  0
   -0.1418   -8.3320    1.3113 H   0  0  0  0  0  0  0  0  0  0  0  0
   -0.8980   -7.0400    0.4405 H   0  0  0  0  0  0  0  0  0  0  0  0
    1.9533   -8.1156    1.8583 H   0  0  0  0  0  0  0  0  0  0  0  0
    3.9204   -6.2176    6.4672 H   0  0  0  0  0  0  0  0  0  0  0  0
    4.9295   -7.6543    6.4595 H   0  0  0  0  0  0  0  0  0  0  0  0
    3.2006   -7.7398    6.6687 H   0  0  0  0  0  0  0  0  0  0  0  0
    6.3970   -8.4676    5.1732 H   0  0  0  0  0  0  0  0  0  0  0  0
    6.9398   -8.5558    3.5079 H   0  0  0  0  0  0  0  0  0  0  0  0
    5.6246   -9.4944    4.1288 H   0  0  0  0  0  0  0  0  0  0  0  0
  1  2  1  0
  1 34  1  0
  1 35  1  0
  1 36  1  0
  2  3  1  0
  3 30  1  0
  3  4  1  0
  3 37  1  1
  4  5  1  0
  4 38  1  0
  4 39  1  0
  5  6  1  0
  5  7  1  0
  5 40  1  1
  6 41  1  0
  7 32  1  0
  7  8  1  6
  7  9  1  0
  8 42  1  0
  9 29  1  0
  9 10  1  0
  9 43  1  6
 10 11  1  0
 11 12  2  0
 11 13  1  0
 13 20  1  0
 13 22  1  0
 13 14  1  6
 14 15  1  0
 14 44  1  0
 14 45  1  0
 15 16  1  0
 16 32  1  0
 16 17  1  1
 16 18  1  0
 17 46  1  0
 18 19  1  0
 18 47  1  0
 18 48  1  0
 19 20  1  0
 19 22  1  0
 19 49  1  1
 20 21  1  0
 20 50  1  1
 21 51  1  0
 22 23  1  0
 22 52  1  6
 23 24  1  0
 23 30  1  0
 23 53  1  1
 24 29  1  0
 24 25  1  0
 24 54  1  6
 25 26  1  0
 25 55  1  0
 25 56  1  0
 26 27  1  0
 27 28  1  0
 27 57  1  0
 27 58  1  0
 28 29  1  0
 29 59  1  1
 30 31  1  1
 30 32  1  0
 31 60  1  0
 31 61  1  0
 31 62  1  0
 32 33  1  1
 33 63  1  0
 33 64  1  0
 33 65  1  0
M  END
>  <i_m_ct_stereo_status>  (176) 
1

>  <s_m_source_file>  (176) 
/var/tmp/pbs.5076255.sched01/tmp8yzwbncg/40d_vk9m1l.sdf

>  <i_m_source_file_index>  (176) 
31

>  <i_lp_mmshare_version>  (176) 
48012

>  <i_f3d_flags>  (176) 
0

>  <s_epik_input>  (176) 
W09IXVtDQEBIXTFbQ0gyXVtDQEBIXShPW0NIM10pW0NAXTIoW0NIM10pW0NAQEhdM1tDQEhdKFtDSDJdT1tDSDJdTzQpW0NAQEhdNFtDQEBIXShPQzU9TylbQ0BAXTEoW09IXSlbQ0BAXTIoW0NIM10pW0NAQF0oW09IXSkoT1tDSDJdNilbQ0gyXVtDQEhdKFtDQEhdM1tDQF01NjcpW0NASF03W09IXQ==

>  <s_epik_cmdline>  (176) 
J2VwaWtfcHl0aG9uJywgJy1waHQnLCAnMi4wJywgJy1waCcsICc3LjAnLCAnLXRuJywgJzgnLCAnLW1hJywgJzIwMCcsICctaW1hZScsICc8aW5maWxlLm1hZT4nLCAnLW9tYWUnLCAnPG91dGZpbGUubWFlPic=

>  <r_lp_tautomer_probability>  (176) 
1

>  <r_epik_Ionization_Penalty>  (176) 
5.61323e-07

>  <r_epik_Ionization_Penalty_Charging>  (176) 
0

>  <r_epik_Ionization_Penalty_Neutral>  (176) 
5.61323e-07

>  <r_epik_State_Penalty>  (176) 
-0

>  <r_epik_Charging_Adjusted_Penalty>  (176) 
0

>  <i_epik_Tot_Q>  (176) 
0

>  <i_epik_Tot_abs_Q>  (176) 
0

>  <s_epik_Chemistry_Notes>  (176) 
This compound has an ester and may undergo hydrolysis at high or low pH. This compound contains an acetal/aminal-like group ( X-CH(R)-Y where X, Y are N, S, or O) that may be acid/base labile, releasing an aldehyde.

>  <s_lp_Force_Field>  (176) 
OPLS3e

>  <r_lp_Energy>  (176) 
193.208

>  <b_lp_Chiralities_Consistent>  (176) 
1

>  <s_lp_Variant>  (176) 
51:0-1

>  <s_i_glide_gridfile>  (176) 
pfpi4k_grid

>  <i_i_glide_lignum>  (176) 
31

>  <i_i_glide_rotatable_bonds>  (176) 
5

>  <r_i_docking_score>  (176) 
-2.76452

>  <r_i_glide_ligand_efficiency>  (176) 
-0.0837732

>  <r_i_glide_ligand_efficiency_sa>  (176) 
-0.268706

>  <r_i_glide_ligand_efficiency_ln>  (176) 
-0.614814

>  <r_i_glide_gscore>  (176) 
-2.76452

>  <r_i_glide_lipo>  (176) 
-0.124998

>  <r_i_glide_hbond>  (176) 
-0.191263

>  <r_i_glide_metal>  (176) 
-0

>  <r_i_glide_rewards>  (176) 
-0.221737

>  <r_i_glide_evdw>  (176) 
-17.0835

>  <r_i_glide_ecoul>  (176) 
-8.48229

>  <r_i_glide_erotb>  (176) 
0

>  <r_i_glide_esite>  (176) 
-0.1

>  <r_i_glide_emodel>  (176) 
-30.4858

>  <r_i_glide_energy>  (176) 
-25.5658

>  <r_i_glide_einternal>  (176) 
3.2889

>  <r_i_glide_intrahb_reward>  (176) 
-0

>  <i_i_glide_confnum>  (176) 
1

>  <i_i_glide_posenum>  (176) 
10

>  <r_i_glide_eff_state_penalty>  (176) 
0

>  <ligand_id>  (176) 
51

>  <original_smiles>  (176) 
COC1CC(O)C2(O)C3OC(=O)C45COC6(O)CC(C4O)C5C(C4COCOC43)C1(C)C62C

>  <smiles>  (176) 
[H]OC1([H])C([H])([H])C([H])(OC([H])([H])[H])C2(C([H])([H])[H])C3([H])C4([H])C([H])([H])OC([H])([H])OC4([H])C4([H])OC(=O)C56C([H])([H])OC(O[H])(C([H])([H])C([H])(C5([H])O[H])C36[H])C2(C([H])([H])[H])C14O[H]

$$$$
51:0:2
     RDKit          3D

 65 71  0  0  1  0  0  0  0  0999 V2000
    2.2616   -9.9859    6.2655 C   0  0  0  0  0  0  0  0  0  0  0  0
    3.3216   -9.2216    5.6931 O   0  0  0  0  0  0  0  0  0  0  0  0
    2.9629   -8.4526    4.5411 C   0  0  2  0  0  0  0  0  0  0  0  0
    3.2865   -9.3939    3.3304 C   0  0  0  0  0  0  0  0  0  0  0  0
    4.2905   -8.8966    2.2452 C   0  0  1  0  0  0  0  0  0  0  0  0
    3.8922   -9.4486    0.9917 O   0  0  0  0  0  0  0  0  0  0  0  0
    4.5954   -7.3339    2.2502 C   0  0  1  0  0  0  0  0  0  0  0  0
    5.7572   -7.3149    1.4337 O   0  0  0  0  0  0  0  0  0  0  0  0
    3.4202   -6.6481    1.3540 C   0  0  2  0  0  0  0  0  0  0  0  0
    3.3847   -5.3559    0.6881 O   0  0  0  0  0  0  0  0  0  0  0  0
    3.2990   -4.1025    1.2349 C   0  0  0  0  0  0  0  0  0  0  0  0
    2.7384   -3.1717    0.6578 O   0  0  0  0  0  0  0  0  0  0  0  0
    4.0453   -3.9993    2.5118 C   0  0  1  0  0  0  0  0  0  0  0  0
    5.5215   -4.3328    2.0883 C   0  0  0  0  0  0  0  0  0  0  0  0
    6.3389   -5.1203    2.9029 O   0  0  0  0  0  0  0  0  0  0  0  0
    5.8715   -5.5846    4.1016 C   0  0  1  0  0  0  0  0  0  0  0  0
    7.0436   -5.9035    4.8230 O   0  0  0  0  0  0  0  0  0  0  0  0
    5.3819   -4.3465    4.9510 C   0  0  0  0  0  0  0  0  0  0  0  0
    4.0773   -3.6617    4.5719 C   0  0  1  0  0  0  0  0  0  0  0  0
    4.0389   -2.6848    3.3591 C   0  0  1  0  0  0  0  0  0  0  0  0
    5.0747   -1.7243    3.2823 O   0  0  0  0  0  0  0  0  0  0  0  0
    3.1498   -4.4915    3.7324 C   0  0  2  0  0  0  0  0  0  0  0  0
    2.5620   -5.8921    4.0588 C   0  0  1  0  0  0  0  0  0  0  0  0
    1.4926   -6.2066    2.9612 C   0  0  2  0  0  0  0  0  0  0  0  0
    0.1025   -6.7265    3.3778 C   0  0  0  0  0  0  0  0  0  0  0  0
   -0.7484   -6.6557    2.2315 O   0  0  0  0  0  0  0  0  0  0  0  0
   -0.2293   -7.2810    1.1046 C   0  0  0  0  0  0  0  0  0  0  0  0
    1.0122   -6.7468    0.7324 O   0  0  0  0  0  0  0  0  0  0  0  0
    1.9750   -6.9781    1.7558 C   0  0  1  0  0  0  0  0  0  0  0  0
    3.5749   -6.9833    4.6000 C   0  0  1  0  0  0  0  0  0  0  0  0
    3.7157   -6.6832    6.1330 C   0  0  0  0  0  0  0  0  0  0  0  0
    4.9534   -6.9510    3.8193 C   0  0  1  0  0  0  0  0  0  0  0  0
    5.8825   -8.1091    4.4022 C   0  0  0  0  0  0  0  0  0  0  0  0
    2.6412  -10.5561    7.1142 H   0  0  0  0  0  0  0  0  0  0  0  0
    1.8275  -10.6913    5.5533 H   0  0  0  0  0  0  0  0  0  0  0  0
    1.4647   -9.3389    6.6400 H   0  0  0  0  0  0  0  0  0  0  0  0
    1.8880   -8.3391    4.6006 H   0  0  0  0  0  0  0  0  0  0  0  0
    3.6825  -10.3398    3.7096 H   0  0  0  0  0  0  0  0  0  0  0  0
    2.3496   -9.7352    2.8901 H   0  0  0  0  0  0  0  0  0  0  0  0
    5.2261   -9.4324    2.4063 H   0  0  0  0  0  0  0  0  0  0  0  0
    3.9924  -10.4014    0.9871 H   0  0  0  0  0  0  0  0  0  0  0  0
    6.4114   -7.8763    1.8193 H   0  0  0  0  0  0  0  0  0  0  0  0
    3.5322   -7.1982    0.4256 H   0  0  0  0  0  0  0  0  0  0  0  0
    5.6262   -4.7652    1.0937 H   0  0  0  0  0  0  0  0  0  0  0  0
    6.0895   -3.4179    1.9309 H   0  0  0  0  0  0  0  0  0  0  0  0
    7.4807   -5.0898    5.0389 H   0  0  0  0  0  0  0  0  0  0  0  0
    5.3691   -4.6200    6.0045 H   0  0  0  0  0  0  0  0  0  0  0  0
    6.1770   -3.5977    4.9182 H   0  0  0  0  0  0  0  0  0  0  0  0
    3.5654   -3.2169    5.4253 H   0  0  0  0  0  0  0  0  0  0  0  0
    3.1014   -2.1246    3.2966 H   0  0  0  0  0  0  0  0  0  0  0  0
    4.9124   -1.2028    2.5092 H   0  0  0  0  0  0  0  0  0  0  0  0
    2.2175   -3.9120    3.7271 H   0  0  0  0  0  0  0  0  0  0  0  0
    1.9045   -5.7129    4.9106 H   0  0  0  0  0  0  0  0  0  0  0  0
    1.2079   -5.2403    2.5481 H   0  0  0  0  0  0  0  0  0  0  0  0
    0.1023   -7.7518    3.7436 H   0  0  0  0  0  0  0  0  0  0  0  0
   -0.3194   -6.0954    4.1604 H   0  0  0  0  0  0  0  0  0  0  0  0
   -0.1619   -8.3548    1.2928 H   0  0  0  0  0  0  0  0  0  0  0  0
   -0.9125   -7.1645    0.2653 H   0  0  0  0  0  0  0  0  0  0  0  0
    1.8886   -8.0333    1.9157 H   0  0  0  0  0  0  0  0  0  0  0  0
    3.6179   -5.6320    6.3834 H   0  0  0  0  0  0  0  0  0  0  0  0
    4.6443   -7.0454    6.5664 H   0  0  0  0  0  0  0  0  0  0  0  0
    2.9075   -7.1331    6.7111 H   0  0  0  0  0  0  0  0  0  0  0  0
    6.1797   -7.9593    5.4377 H   0  0  0  0  0  0  0  0  0  0  0  0
    6.7989   -8.2079    3.8171 H   0  0  0  0  0  0  0  0  0  0  0  0
    5.4680   -9.1047    4.4772 H   0  0  0  0  0  0  0  0  0  0  0  0
  1  2  1  0
  1 34  1  0
  1 35  1  0
  1 36  1  0
  2  3  1  0
  3 30  1  0
  3  4  1  0
  3 37  1  1
  4  5  1  0
  4 38  1  0
  4 39  1  0
  5  6  1  0
  5  7  1  0
  5 40  1  1
  6 41  1  0
  7 32  1  0
  7  8  1  6
  7  9  1  0
  8 42  1  0
  9 29  1  0
  9 10  1  0
  9 43  1  6
 10 11  1  0
 11 12  2  0
 11 13  1  0
 13 20  1  0
 13 22  1  0
 13 14  1  6
 14 15  1  0
 14 44  1  0
 14 45  1  0
 15 16  1  0
 16 32  1  0
 16 17  1  1
 16 18  1  0
 17 46  1  0
 18 19  1  0
 18 47  1  0
 18 48  1  0
 19 20  1  0
 19 22  1  0
 19 49  1  1
 20 21  1  0
 20 50  1  1
 21 51  1  0
 22 23  1  0
 22 52  1  6
 23 24  1  0
 23 30  1  0
 23 53  1  1
 24 29  1  0
 24 25  1  0
 24 54  1  6
 25 26  1  0
 25 55  1  0
 25 56  1  0
 26 27  1  0
 27 28  1  0
 27 57  1  0
 27 58  1  0
 28 29  1  0
 29 59  1  1
 30 31  1  1
 30 32  1  0
 31 60  1  0
 31 61  1  0
 31 62  1  0
 32 33  1  1
 33 63  1  0
 33 64  1  0
 33 65  1  0
M  END
>  <i_m_ct_stereo_status>  (177) 
1

>  <s_m_source_file>  (177) 
/var/tmp/pbs.5076255.sched01/tmp8yzwbncg/40d_vk9m1l.sdf

>  <i_m_source_file_index>  (177) 
31

>  <i_lp_mmshare_version>  (177) 
48012

>  <i_f3d_flags>  (177) 
0

>  <s_epik_input>  (177) 
W09IXVtDQEBIXTFbQ0gyXVtDQEBIXShPW0NIM10pW0NAXTIoW0NIM10pW0NAQEhdM1tDQEhdKFtDSDJdT1tDSDJdTzQpW0NAQEhdNFtDQEBIXShPQzU9TylbQ0BAXTEoW09IXSlbQ0BAXTIoW0NIM10pW0NAQF0oW09IXSkoT1tDSDJdNilbQ0gyXVtDQEhdKFtDQEhdM1tDQF01NjcpW0NASF03W09IXQ==

>  <s_epik_cmdline>  (177) 
J2VwaWtfcHl0aG9uJywgJy1waHQnLCAnMi4wJywgJy1waCcsICc3LjAnLCAnLXRuJywgJzgnLCAnLW1hJywgJzIwMCcsICctaW1hZScsICc8aW5maWxlLm1hZT4nLCAnLW9tYWUnLCAnPG91dGZpbGUubWFlPic=

>  <r_lp_tautomer_probability>  (177) 
1

>  <r_epik_Ionization_Penalty>  (177) 
5.61323e-07

>  <r_epik_Ionization_Penalty_Charging>  (177) 
0

>  <r_epik_Ionization_Penalty_Neutral>  (177) 
5.61323e-07

>  <r_epik_State_Penalty>  (177) 
-0

>  <r_epik_Charging_Adjusted_Penalty>  (177) 
0

>  <i_epik_Tot_Q>  (177) 
0

>  <i_epik_Tot_abs_Q>  (177) 
0

>  <s_epik_Chemistry_Notes>  (177) 
This compound has an ester and may undergo hydrolysis at high or low pH. This compound contains an acetal/aminal-like group ( X-CH(R)-Y where X, Y are N, S, or O) that may be acid/base labile, releasing an aldehyde.

>  <s_lp_Force_Field>  (177) 
OPLS3e

>  <r_lp_Energy>  (177) 
193.208

>  <b_lp_Chiralities_Consistent>  (177) 
1

>  <s_lp_Variant>  (177) 
51:0-1

>  <s_i_glide_gridfile>  (177) 
pfpi4k_grid

>  <i_i_glide_lignum>  (177) 
31

>  <i_i_glide_rotatable_bonds>  (177) 
5

>  <r_i_docking_score>  (177) 
-2.72654

>  <r_i_glide_ligand_efficiency>  (177) 
-0.0826223

>  <r_i_glide_ligand_efficiency_sa>  (177) 
-0.265014

>  <r_i_glide_ligand_efficiency_ln>  (177) 
-0.606368

>  <r_i_glide_gscore>  (177) 
-2.72654

>  <r_i_glide_lipo>  (177) 
-0.109577

>  <r_i_glide_hbond>  (177) 
-0.188204

>  <r_i_glide_metal>  (177) 
-0

>  <r_i_glide_rewards>  (177) 
-0.216525

>  <r_i_glide_evdw>  (177) 
-17.7837

>  <r_i_glide_ecoul>  (177) 
-8.1586

>  <r_i_glide_erotb>  (177) 
0

>  <r_i_glide_esite>  (177) 
-0.0992563

>  <r_i_glide_emodel>  (177) 
-31.1274

>  <r_i_glide_energy>  (177) 
-25.9423

>  <r_i_glide_einternal>  (177) 
2.41985

>  <r_i_glide_intrahb_reward>  (177) 
-0

>  <i_i_glide_confnum>  (177) 
1

>  <i_i_glide_posenum>  (177) 
31

>  <r_i_glide_eff_state_penalty>  (177) 
0

>  <ligand_id>  (177) 
51

>  <original_smiles>  (177) 
COC1CC(O)C2(O)C3OC(=O)C45COC6(O)CC(C4O)C5C(C4COCOC43)C1(C)C62C

>  <smiles>  (177) 
[H]OC1([H])C([H])([H])C([H])(OC([H])([H])[H])C2(C([H])([H])[H])C3([H])C4([H])C([H])([H])OC([H])([H])OC4([H])C4([H])OC(=O)C56C([H])([H])OC(O[H])(C([H])([H])C([H])(C5([H])O[H])C36[H])C2(C([H])([H])[H])C14O[H]

$$$$
52:1:0
     RDKit          3D

 78 85  0  0  1  0  0  0  0  0999 V2000
    6.1133   -0.7011    0.5704 C   0  0  0  0  0  0  0  0  0  0  0  0
    5.3296   -2.0036    0.5044 C   0  0  0  0  0  0  0  0  0  0  0  0
    4.8025   -2.5184    1.6279 C   0  0  0  0  0  0  0  0  0  0  0  0
    3.9860   -3.7861    1.9457 C   0  0  1  0  0  0  0  0  0  0  0  0
    3.5206   -4.6745    0.7015 C   0  0  2  0  0  0  0  0  0  0  0  0
    4.4897   -5.7777    0.2760 C   0  0  0  0  0  0  0  0  0  0  0  0
    4.3515   -7.0476    0.7060 C   0  0  0  0  0  0  0  0  0  0  0  0
    5.4054   -7.6660    1.6449 C   0  0  2  0  0  0  0  0  0  0  0  0
    5.0301   -9.0535    2.3380 C   0  0  2  0  0  0  0  0  0  0  0  0
    5.9583  -10.1159    1.6848 C   0  0  0  0  0  0  0  0  0  0  0  0
    3.6046   -9.6306    2.1086 C   0  0  0  0  0  0  0  0  0  0  0  0
    2.4703   -9.0638    2.9681 C   0  0  0  0  0  0  0  0  0  0  0  0
    2.8461   -8.8934    4.4488 C   0  0  0  0  0  0  0  0  0  0  0  0
    4.2546   -8.3115    4.8021 C   0  0  1  0  0  0  0  0  0  0  0  0
    4.4791   -8.7940    6.2626 C   0  0  0  0  0  0  0  0  0  0  0  0
    5.2946   -9.0531    3.8884 C   0  0  2  0  0  0  0  0  0  0  0  0
    6.7175   -8.6124    4.1949 C   0  0  0  0  0  0  0  0  0  0  0  0
    6.9860   -7.2279    3.6362 C   0  0  0  0  0  0  0  0  0  0  0  0
    5.8981   -6.6041    2.6942 C   0  0  1  0  0  0  0  0  0  0  0  0
    6.8666   -5.5598    2.0145 C   0  0  0  0  0  0  0  0  0  0  0  0
    4.6026   -5.9839    3.4747 C   0  0  2  0  0  0  0  0  0  0  0  0
    3.3478   -6.4444    3.0220 O   0  0  0  0  0  0  0  0  0  0  0  0
    2.1575   -5.7300    3.6492 O   0  0  0  0  0  0  0  0  0  0  0  0
    2.3653   -5.4529    5.0358 C   0  0  2  0  0  0  0  0  0  0  0  0
    1.0646   -5.6963    5.8358 C   0  0  0  0  0  0  0  0  0  0  0  0
    2.6854   -3.9581    5.0708 C   0  0  0  0  0  0  0  0  0  0  0  0
    4.0946   -3.6630    4.5927 C   0  0  0  0  0  0  0  0  0  0  0  0
    4.5490   -4.4132    3.3162 C   0  0  2  0  0  0  0  0  0  0  0  0
    3.3730   -6.2220    5.6742 O   0  0  0  0  0  0  0  0  0  0  0  0
    4.4227   -6.7205    4.8410 C   0  0  1  0  0  0  0  0  0  0  0  0
    3.0198   -3.8467   -0.5006 C   0  0  0  0  0  0  0  0  0  0  0  0
    4.1135   -3.3598   -1.4178 C   0  0  1  0  0  0  0  0  0  0  0  0
    4.2310   -1.9065   -1.8333 C   0  0  0  0  0  0  0  0  0  0  0  0
    5.2422   -2.5058   -0.8842 C   0  0  1  0  0  0  0  0  0  0  0  0
    7.1400   -0.8342    0.2337 H   0  0  0  0  0  0  0  0  0  0  0  0
    6.1549   -0.3183    1.5852 H   0  0  0  0  0  0  0  0  0  0  0  0
    5.6377    0.0675   -0.0358 H   0  0  0  0  0  0  0  0  0  0  0  0
    4.9795   -1.9300    2.5135 H   0  0  0  0  0  0  0  0  0  0  0  0
    3.0428   -3.3332    2.2442 H   0  0  0  0  0  0  0  0  0  0  0  0
    2.6285   -5.1909    1.0451 H   0  0  0  0  0  0  0  0  0  0  0  0
    5.4552   -5.4222   -0.0290 H   0  0  0  0  0  0  0  0  0  0  0  0
    3.3525   -7.3438    0.9663 H   0  0  0  0  0  0  0  0  0  0  0  0
    6.2495   -7.8485    0.9816 H   0  0  0  0  0  0  0  0  0  0  0  0
    5.8643  -11.0880    2.1693 H   0  0  0  0  0  0  0  0  0  0  0  0
    7.0148   -9.8490    1.7054 H   0  0  0  0  0  0  0  0  0  0  0  0
    5.6974  -10.2648    0.6374 H   0  0  0  0  0  0  0  0  0  0  0  0
    3.3276   -9.5981    1.0568 H   0  0  0  0  0  0  0  0  0  0  0  0
    3.6346  -10.6986    2.3428 H   0  0  0  0  0  0  0  0  0  0  0  0
    2.0265   -8.1723    2.5296 H   0  0  0  0  0  0  0  0  0  0  0  0
    1.6490   -9.7727    2.9290 H   0  0  0  0  0  0  0  0  0  0  0  0
    2.0744   -8.3069    4.9327 H   0  0  0  0  0  0  0  0  0  0  0  0
    2.7602   -9.8892    4.9004 H   0  0  0  0  0  0  0  0  0  0  0  0
    5.3927   -8.4105    6.7205 H   0  0  0  0  0  0  0  0  0  0  0  0
    4.5359   -9.8824    6.3197 H   0  0  0  0  0  0  0  0  0  0  0  0
    3.6552   -8.4993    6.9191 H   0  0  0  0  0  0  0  0  0  0  0  0
    5.2384  -10.1015    4.1858 H   0  0  0  0  0  0  0  0  0  0  0  0
    6.9448   -8.6359    5.2574 H   0  0  0  0  0  0  0  0  0  0  0  0
    7.4272   -9.3197    3.7678 H   0  0  0  0  0  0  0  0  0  0  0  0
    7.2183   -6.5447    4.4512 H   0  0  0  0  0  0  0  0  0  0  0  0
    7.9333   -7.3353    3.0997 H   0  0  0  0  0  0  0  0  0  0  0  0
    7.5552   -5.1038    2.7272 H   0  0  0  0  0  0  0  0  0  0  0  0
    6.4312   -4.6976    1.5266 H   0  0  0  0  0  0  0  0  0  0  0  0
    7.5018   -6.0404    1.2654 H   0  0  0  0  0  0  0  0  0  0  0  0
    0.7726   -6.7441    5.8304 H   0  0  0  0  0  0  0  0  0  0  0  0
    0.2326   -5.1215    5.4341 H   0  0  0  0  0  0  0  0  0  0  0  0
    1.1792   -5.4112    6.8854 H   0  0  0  0  0  0  0  0  0  0  0  0
    1.9563   -3.4304    4.4571 H   0  0  0  0  0  0  0  0  0  0  0  0
    2.5739   -3.5660    6.0809 H   0  0  0  0  0  0  0  0  0  0  0  0
    4.1965   -2.5889    4.4620 H   0  0  0  0  0  0  0  0  0  0  0  0
    4.7828   -3.9103    5.3997 H   0  0  0  0  0  0  0  0  0  0  0  0
    5.5819   -4.0860    3.3824 H   0  0  0  0  0  0  0  0  0  0  0  0
    5.2939   -6.4837    5.4448 H   0  0  0  0  0  0  0  0  0  0  0  0
    2.3489   -4.4455   -1.1198 H   0  0  0  0  0  0  0  0  0  0  0  0
    2.4366   -2.9896   -0.1684 H   0  0  0  0  0  0  0  0  0  0  0  0
    4.4100   -4.0762   -2.1788 H   0  0  0  0  0  0  0  0  0  0  0  0
    4.5635   -1.7062   -2.8465 H   0  0  0  0  0  0  0  0  0  0  0  0
    3.5096   -1.2161   -1.4147 H   0  0  0  0  0  0  0  0  0  0  0  0
    6.2253   -2.7186   -1.2837 H   0  0  0  0  0  0  0  0  0  0  0  0
  1  2  1  0
  1 35  1  0
  1 36  1  0
  1 37  1  0
  2 34  1  0
  2  3  2  0
  3  4  1  0
  3 38  1  0
  4 28  1  0
  4  5  1  0
  4 39  1  1
  5  6  1  0
  5 31  1  0
  5 40  1  1
  6  7  2  3
  6 41  1  0
  7  8  1  0
  7 42  1  0
  8 19  1  0
  8  9  1  0
  8 43  1  6
  9 16  1  0
  9 10  1  6
  9 11  1  0
 10 44  1  0
 10 45  1  0
 10 46  1  0
 11 12  1  0
 11 47  1  0
 11 48  1  0
 12 13  1  0
 12 49  1  0
 12 50  1  0
 13 14  1  0
 13 51  1  0
 13 52  1  0
 14 30  1  0
 14 15  1  1
 14 16  1  0
 15 53  1  0
 15 54  1  0
 15 55  1  0
 16 17  1  0
 16 56  1  1
 17 18  1  0
 17 57  1  0
 17 58  1  0
 18 19  1  0
 18 59  1  0
 18 60  1  0
 19 20  1  6
 19 21  1  0
 20 61  1  0
 20 62  1  0
 20 63  1  0
 21 28  1  0
 21 30  1  0
 21 22  1  6
 22 23  1  0
 23 24  1  0
 24 25  1  1
 24 26  1  0
 24 29  1  0
 25 64  1  0
 25 65  1  0
 25 66  1  0
 26 27  1  0
 26 67  1  0
 26 68  1  0
 27 28  1  0
 27 69  1  0
 27 70  1  0
 28 71  1  6
 29 30  1  0
 30 72  1  1
 31 32  1  0
 31 73  1  0
 31 74  1  0
 32 34  1  0
 32 33  1  0
 32 75  1  6
 33 34  1  0
 33 76  1  0
 33 77  1  0
 34 78  1  6
M  END
>  <i_m_ct_stereo_status>  (178) 
1

>  <s_m_source_file>  (178) 
/var/tmp/pbs.5076255.sched01/tmp8yzwbncg/40d_vk9m1l.sdf

>  <i_m_source_file_index>  (178) 
33

>  <i_lp_mmshare_version>  (178) 
48012

>  <i_f3d_flags>  (178) 
0

>  <s_epik_input>  (178) 
W0NIM11DKD1bQ0hdMSlbQ0BIXShbQ0gyXTIpW0NASF0yW0NIMl1bQ0BASF0oL1tDSF09W0NIXVwzKVtDQEhdMVtDQEhdNFtDSDJdW0NIMl1bQ0BdKE9PNSkoW0NIM10pT1tDQEhdNltDQEBdKFtDSDNdKShbQ0gyXVtDSDJdW0NIMl03KVtDQEhdKFtDSDJdW0NIMl04KVtDQF03KFtDSDNdKVtDQEBIXTNbQ0BdOChbQ0BAXTQ1NilbQ0gzXQ==

>  <s_epik_cmdline>  (178) 
J2VwaWtfcHl0aG9uJywgJy1waHQnLCAnMi4wJywgJy1waCcsICc3LjAnLCAnLXRuJywgJzgnLCAnLW1hJywgJzIwMCcsICctaW1hZScsICc8aW5maWxlLm1hZT4nLCAnLW9tYWUnLCAnPG91dGZpbGUubWFlPic=

>  <r_lp_tautomer_probability>  (178) 
1

>  <r_epik_Ionization_Penalty>  (178) 
3.73625e-14

>  <r_epik_Ionization_Penalty_Charging>  (178) 
0

>  <r_epik_Ionization_Penalty_Neutral>  (178) 
3.73625e-14

>  <r_epik_State_Penalty>  (178) 
-0

>  <r_epik_Charging_Adjusted_Penalty>  (178) 
0

>  <i_epik_Tot_Q>  (178) 
0

>  <i_epik_Tot_abs_Q>  (178) 
0

>  <s_lp_Force_Field>  (178) 
OPLS3e

>  <r_lp_Energy>  (178) 
177.283

>  <b_lp_Chiralities_Consistent>  (178) 
1

>  <s_lp_Variant>  (178) 
52:0-2

>  <s_i_glide_gridfile>  (178) 
pfpi4k_grid

>  <i_i_glide_lignum>  (178) 
33

>  <i_i_glide_rotatable_bonds>  (178) 
0

>  <r_i_docking_score>  (178) 
-2.21452

>  <r_i_glide_ligand_efficiency>  (178) 
-0.0651329

>  <r_i_glide_ligand_efficiency_sa>  (178) 
-0.211005

>  <r_i_glide_ligand_efficiency_ln>  (178) 
-0.489249

>  <r_i_glide_gscore>  (178) 
-2.21452

>  <r_i_glide_lipo>  (178) 
-0.55767

>  <r_i_glide_hbond>  (178) 
0

>  <r_i_glide_metal>  (178) 
-0

>  <r_i_glide_rewards>  (178) 
-0.240823

>  <r_i_glide_evdw>  (178) 
-28.1605

>  <r_i_glide_ecoul>  (178) 
-0.0533435

>  <r_i_glide_erotb>  (178) 
0

>  <r_i_glide_esite>  (178) 
0

>  <r_i_glide_emodel>  (178) 
-31.7172

>  <r_i_glide_energy>  (178) 
-28.2138

>  <r_i_glide_einternal>  (178) 
0

>  <r_i_glide_intrahb_reward>  (178) 
-0

>  <i_i_glide_confnum>  (178) 
1

>  <i_i_glide_posenum>  (178) 
35

>  <r_i_glide_eff_state_penalty>  (178) 
0

>  <ligand_id>  (178) 
52

>  <original_smiles>  (178) 
CC1=CC2C(C=CC3C4(C)CCCC5(C)C4CCC3(C)C34OOC(C)(CCC23)OC54)CC2CC12

>  <smiles>  (178) 
[H]C1=C([H])C2([H])C3(C([H])([H])[H])C([H])([H])C([H])([H])C([H])([H])C4(C([H])([H])[H])C5([H])OC6(C([H])([H])[H])OOC5(C([H])(C([H])([H])C6([H])[H])C5([H])C([H])=C(C([H])([H])[H])C6([H])C([H])([H])C6([H])C([H])([H])C15[H])C2(C([H])([H])[H])C([H])([H])C([H])([H])C43[H]

$$$$
52:1:1
     RDKit          3D

 78 85  0  0  1  0  0  0  0  0999 V2000
    7.5153   -4.2136    0.4504 C   0  0  0  0  0  0  0  0  0  0  0  0
    6.0578   -4.2703    0.9033 C   0  0  0  0  0  0  0  0  0  0  0  0
    5.7678   -4.5535    2.1840 C   0  0  0  0  0  0  0  0  0  0  0  0
    4.4635   -4.7033    2.9880 C   0  0  1  0  0  0  0  0  0  0  0  0
    3.1012   -4.3544    2.2268 C   0  0  2  0  0  0  0  0  0  0  0  0
    2.4243   -5.5218    1.5065 C   0  0  0  0  0  0  0  0  0  0  0  0
    1.4359   -6.2376    2.0839 C   0  0  0  0  0  0  0  0  0  0  0  0
    1.6656   -7.7133    2.4604 C   0  0  2  0  0  0  0  0  0  0  0  0
    0.5715   -8.3985    3.4034 C   0  0  2  0  0  0  0  0  0  0  0  0
   -0.1741   -9.4286    2.5159 C   0  0  0  0  0  0  0  0  0  0  0  0
   -0.5868   -7.5200    3.9538 C   0  0  0  0  0  0  0  0  0  0  0  0
   -0.2753   -6.6564    5.1805 C   0  0  0  0  0  0  0  0  0  0  0  0
    0.5284   -7.3953    6.2679 C   0  0  0  0  0  0  0  0  0  0  0  0
    1.7145   -8.3129    5.8324 C   0  0  1  0  0  0  0  0  0  0  0  0
    1.8865   -9.2622    7.0509 C   0  0  0  0  0  0  0  0  0  0  0  0
    1.2052   -9.1692    4.6202 C   0  0  2  0  0  0  0  0  0  0  0  0
    2.2707  -10.1470    4.1513 C   0  0  0  0  0  0  0  0  0  0  0  0
    3.3654   -9.4272    3.3852 C   0  0  0  0  0  0  0  0  0  0  0  0
    3.1271   -7.9192    3.0218 C   0  0  1  0  0  0  0  0  0  0  0  0
    4.1913   -7.8757    1.8543 C   0  0  0  0  0  0  0  0  0  0  0  0
    3.3821   -6.8867    4.2604 C   0  0  2  0  0  0  0  0  0  0  0  0
    2.3211   -5.9922    4.5221 O   0  0  0  0  0  0  0  0  0  0  0  0
    2.6360   -4.9251    5.5782 O   0  0  0  0  0  0  0  0  0  0  0  0
    3.4236   -5.4409    6.6435 C   0  0  2  0  0  0  0  0  0  0  0  0
    2.9447   -4.8607    7.9909 C   0  0  0  0  0  0  0  0  0  0  0  0
    4.8288   -4.9241    6.3569 C   0  0  0  0  0  0  0  0  0  0  0  0
    5.5040   -5.6801    5.2258 C   0  0  0  0  0  0  0  0  0  0  0  0
    4.6295   -5.9597    3.9801 C   0  0  2  0  0  0  0  0  0  0  0  0
    3.3993   -6.8468    6.7866 O   0  0  0  0  0  0  0  0  0  0  0  0
    3.1427   -7.6224    5.6198 C   0  0  1  0  0  0  0  0  0  0  0  0
    3.1890   -3.0986    1.3337 C   0  0  0  0  0  0  0  0  0  0  0  0
    3.7546   -3.3614   -0.0402 C   0  0  1  0  0  0  0  0  0  0  0  0
    4.8900   -2.5357   -0.6074 C   0  0  0  0  0  0  0  0  0  0  0  0
    5.1234   -3.9715   -0.2091 C   0  0  1  0  0  0  0  0  0  0  0  0
    7.7263   -4.9554   -0.3061 H   0  0  0  0  0  0  0  0  0  0  0  0
    8.1978   -4.4093    1.2809 H   0  0  0  0  0  0  0  0  0  0  0  0
    7.7577   -3.2292    0.0416 H   0  0  0  0  0  0  0  0  0  0  0  0
    6.6300   -4.7176    2.8086 H   0  0  0  0  0  0  0  0  0  0  0  0
    4.5582   -3.8478    3.6546 H   0  0  0  0  0  0  0  0  0  0  0  0
    2.4132   -4.0590    3.0176 H   0  0  0  0  0  0  0  0  0  0  0  0
    3.0296   -5.9721    0.7421 H   0  0  0  0  0  0  0  0  0  0  0  0
    0.8755   -5.7142    2.8335 H   0  0  0  0  0  0  0  0  0  0  0  0
    1.6421   -8.2239    1.4991 H   0  0  0  0  0  0  0  0  0  0  0  0
   -0.8626  -10.0482    3.0929 H   0  0  0  0  0  0  0  0  0  0  0  0
    0.5047  -10.1132    2.0112 H   0  0  0  0  0  0  0  0  0  0  0  0
   -0.7624   -8.9338    1.7409 H   0  0  0  0  0  0  0  0  0  0  0  0
   -1.0241   -6.9112    3.1654 H   0  0  0  0  0  0  0  0  0  0  0  0
   -1.3945   -8.1882    4.2664 H   0  0  0  0  0  0  0  0  0  0  0  0
    0.1495   -5.6934    4.9113 H   0  0  0  0  0  0  0  0  0  0  0  0
   -1.2241   -6.3573    5.6186 H   0  0  0  0  0  0  0  0  0  0  0  0
    0.8610   -6.6677    7.0013 H   0  0  0  0  0  0  0  0  0  0  0  0
   -0.1882   -8.0195    6.8051 H   0  0  0  0  0  0  0  0  0  0  0  0
    2.7356   -9.9401    6.9623 H   0  0  0  0  0  0  0  0  0  0  0  0
    1.0045   -9.8918    7.1843 H   0  0  0  0  0  0  0  0  0  0  0  0
    2.0164   -8.7123    7.9864 H   0  0  0  0  0  0  0  0  0  0  0  0
    0.3965   -9.7845    5.0212 H   0  0  0  0  0  0  0  0  0  0  0  0
    2.6995  -10.7216    4.9692 H   0  0  0  0  0  0  0  0  0  0  0  0
    1.8250  -10.9105    3.5158 H   0  0  0  0  0  0  0  0  0  0  0  0
    4.3137   -9.5458    3.9112 H   0  0  0  0  0  0  0  0  0  0  0  0
    3.4894  -10.0203    2.4765 H   0  0  0  0  0  0  0  0  0  0  0  0
    5.1041   -8.4222    2.1034 H   0  0  0  0  0  0  0  0  0  0  0  0
    4.5718   -6.9099    1.5484 H   0  0  0  0  0  0  0  0  0  0  0  0
    3.7992   -8.3469    0.9512 H   0  0  0  0  0  0  0  0  0  0  0  0
    1.9348   -5.1803    8.2417 H   0  0  0  0  0  0  0  0  0  0  0  0
    2.9535   -3.7718    7.9815 H   0  0  0  0  0  0  0  0  0  0  0  0
    3.5872   -5.1799    8.8170 H   0  0  0  0  0  0  0  0  0  0  0  0
    4.7693   -3.8625    6.1208 H   0  0  0  0  0  0  0  0  0  0  0  0
    5.4547   -4.9984    7.2465 H   0  0  0  0  0  0  0  0  0  0  0  0
    6.4140   -5.1488    4.9515 H   0  0  0  0  0  0  0  0  0  0  0  0
    5.8525   -6.6332    5.6265 H   0  0  0  0  0  0  0  0  0  0  0  0
    5.3574   -6.6080    3.5080 H   0  0  0  0  0  0  0  0  0  0  0  0
    3.9047   -8.3926    5.6946 H   0  0  0  0  0  0  0  0  0  0  0  0
    2.1948   -2.6747    1.1886 H   0  0  0  0  0  0  0  0  0  0  0  0
    3.7803   -2.3226    1.8211 H   0  0  0  0  0  0  0  0  0  0  0  0
    3.0137   -3.6770   -0.7739 H   0  0  0  0  0  0  0  0  0  0  0  0
    4.8611   -2.3152   -1.6718 H   0  0  0  0  0  0  0  0  0  0  0  0
    5.3210   -1.7654    0.0258 H   0  0  0  0  0  0  0  0  0  0  0  0
    5.2201   -4.6970   -1.0146 H   0  0  0  0  0  0  0  0  0  0  0  0
  1  2  1  0
  1 35  1  0
  1 36  1  0
  1 37  1  0
  2 34  1  0
  2  3  2  0
  3  4  1  0
  3 38  1  0
  4 28  1  0
  4  5  1  0
  4 39  1  1
  5  6  1  0
  5 31  1  0
  5 40  1  1
  6  7  2  3
  6 41  1  0
  7  8  1  0
  7 42  1  0
  8 19  1  0
  8  9  1  0
  8 43  1  6
  9 16  1  0
  9 10  1  6
  9 11  1  0
 10 44  1  0
 10 45  1  0
 10 46  1  0
 11 12  1  0
 11 47  1  0
 11 48  1  0
 12 13  1  0
 12 49  1  0
 12 50  1  0
 13 14  1  0
 13 51  1  0
 13 52  1  0
 14 30  1  0
 14 15  1  1
 14 16  1  0
 15 53  1  0
 15 54  1  0
 15 55  1  0
 16 17  1  0
 16 56  1  1
 17 18  1  0
 17 57  1  0
 17 58  1  0
 18 19  1  0
 18 59  1  0
 18 60  1  0
 19 20  1  6
 19 21  1  0
 20 61  1  0
 20 62  1  0
 20 63  1  0
 21 28  1  0
 21 30  1  0
 21 22  1  6
 22 23  1  0
 23 24  1  0
 24 25  1  1
 24 26  1  0
 24 29  1  0
 25 64  1  0
 25 65  1  0
 25 66  1  0
 26 27  1  0
 26 67  1  0
 26 68  1  0
 27 28  1  0
 27 69  1  0
 27 70  1  0
 28 71  1  6
 29 30  1  0
 30 72  1  6
 31 32  1  0
 31 73  1  0
 31 74  1  0
 32 34  1  0
 32 33  1  0
 32 75  1  6
 33 34  1  0
 33 76  1  0
 33 77  1  0
 34 78  1  6
M  END
>  <i_m_ct_stereo_status>  (179) 
1

>  <s_m_source_file>  (179) 
/var/tmp/pbs.5076255.sched01/tmp8yzwbncg/40d_vk9m1l.sdf

>  <i_m_source_file_index>  (179) 
33

>  <i_lp_mmshare_version>  (179) 
48012

>  <i_f3d_flags>  (179) 
0

>  <s_epik_input>  (179) 
W0NIM11DKD1bQ0hdMSlbQ0BIXShbQ0gyXTIpW0NASF0yW0NIMl1bQ0BASF0oL1tDSF09W0NIXVwzKVtDQEhdMVtDQEhdNFtDSDJdW0NIMl1bQ0BdKE9PNSkoW0NIM10pT1tDQEhdNltDQEBdKFtDSDNdKShbQ0gyXVtDSDJdW0NIMl03KVtDQEhdKFtDSDJdW0NIMl04KVtDQF03KFtDSDNdKVtDQEBIXTNbQ0BdOChbQ0BAXTQ1NilbQ0gzXQ==

>  <s_epik_cmdline>  (179) 
J2VwaWtfcHl0aG9uJywgJy1waHQnLCAnMi4wJywgJy1waCcsICc3LjAnLCAnLXRuJywgJzgnLCAnLW1hJywgJzIwMCcsICctaW1hZScsICc8aW5maWxlLm1hZT4nLCAnLW9tYWUnLCAnPG91dGZpbGUubWFlPic=

>  <r_lp_tautomer_probability>  (179) 
1

>  <r_epik_Ionization_Penalty>  (179) 
3.73625e-14

>  <r_epik_Ionization_Penalty_Charging>  (179) 
0

>  <r_epik_Ionization_Penalty_Neutral>  (179) 
3.73625e-14

>  <r_epik_State_Penalty>  (179) 
-0

>  <r_epik_Charging_Adjusted_Penalty>  (179) 
0

>  <i_epik_Tot_Q>  (179) 
0

>  <i_epik_Tot_abs_Q>  (179) 
0

>  <s_lp_Force_Field>  (179) 
OPLS3e

>  <r_lp_Energy>  (179) 
177.283

>  <b_lp_Chiralities_Consistent>  (179) 
1

>  <s_lp_Variant>  (179) 
52:0-2

>  <s_i_glide_gridfile>  (179) 
pfpi4k_grid

>  <i_i_glide_lignum>  (179) 
33

>  <i_i_glide_rotatable_bonds>  (179) 
0

>  <r_i_docking_score>  (179) 
-2.07585

>  <r_i_glide_ligand_efficiency>  (179) 
-0.0610544

>  <r_i_glide_ligand_efficiency_sa>  (179) 
-0.197793

>  <r_i_glide_ligand_efficiency_ln>  (179) 
-0.458613

>  <r_i_glide_gscore>  (179) 
-2.07585

>  <r_i_glide_lipo>  (179) 
-0.370681

>  <r_i_glide_hbond>  (179) 
0

>  <r_i_glide_metal>  (179) 
-0

>  <r_i_glide_rewards>  (179) 
-0.240823

>  <r_i_glide_evdw>  (179) 
-27.9686

>  <r_i_glide_ecoul>  (179) 
-0.439426

>  <r_i_glide_erotb>  (179) 
0

>  <r_i_glide_esite>  (179) 
0

>  <r_i_glide_emodel>  (179) 
-31.6842

>  <r_i_glide_energy>  (179) 
-28.408

>  <r_i_glide_einternal>  (179) 
0

>  <r_i_glide_intrahb_reward>  (179) 
-0

>  <i_i_glide_confnum>  (179) 
1

>  <i_i_glide_posenum>  (179) 
7

>  <r_i_glide_eff_state_penalty>  (179) 
0

>  <ligand_id>  (179) 
52

>  <original_smiles>  (179) 
CC1=CC2C(C=CC3C4(C)CCCC5(C)C4CCC3(C)C34OOC(C)(CCC23)OC54)CC2CC12

>  <smiles>  (179) 
[H]C1=C([H])C2([H])C3(C([H])([H])[H])C([H])([H])C([H])([H])C([H])([H])C4(C([H])([H])[H])C5([H])OC6(C([H])([H])[H])OOC5(C([H])(C([H])([H])C6([H])[H])C5([H])C([H])=C(C([H])([H])[H])C6([H])C([H])([H])C6([H])C([H])([H])C15[H])C2(C([H])([H])[H])C([H])([H])C([H])([H])C43[H]

$$$$
52:1:2
     RDKit          3D

 78 85  0  0  1  0  0  0  0  0999 V2000
    7.1420   -1.6833    0.5232 C   0  0  0  0  0  0  0  0  0  0  0  0
    5.8505   -2.4975    0.4932 C   0  0  0  0  0  0  0  0  0  0  0  0
    5.0802   -2.5626    1.5887 C   0  0  0  0  0  0  0  0  0  0  0  0
    3.7563   -3.2792    1.9234 C   0  0  1  0  0  0  0  0  0  0  0  0
    3.0165   -4.0228    0.7128 C   0  0  2  0  0  0  0  0  0  0  0  0
    3.3908   -5.4848    0.4896 C   0  0  0  0  0  0  0  0  0  0  0  0
    2.6603   -6.4925    1.0223 C   0  0  0  0  0  0  0  0  0  0  0  0
    3.2517   -7.3927    2.1167 C   0  0  2  0  0  0  0  0  0  0  0  0
    2.2440   -8.3630    2.8852 C   0  0  2  0  0  0  0  0  0  0  0  0
    2.6074   -9.8020    2.4338 C   0  0  0  0  0  0  0  0  0  0  0  0
    0.7257   -8.2696    2.5584 C   0  0  0  0  0  0  0  0  0  0  0  0
   -0.0731   -7.1420    3.2312 C   0  0  0  0  0  0  0  0  0  0  0  0
    0.2563   -6.9706    4.7227 C   0  0  0  0  0  0  0  0  0  0  0  0
    1.7454   -7.0422    5.1819 C   0  0  1  0  0  0  0  0  0  0  0  0
    1.6383   -7.3848    6.6994 C   0  0  0  0  0  0  0  0  0  0  0  0
    2.3832   -8.2814    4.4559 C   0  0  2  0  0  0  0  0  0  0  0  0
    3.8277   -8.4865    4.8776 C   0  0  0  0  0  0  0  0  0  0  0  0
    4.7354   -7.4556    4.2376 C   0  0  0  0  0  0  0  0  0  0  0  0
    4.1075   -6.5365    3.1231 C   0  0  1  0  0  0  0  0  0  0  0  0
    5.4981   -6.1349    2.4738 C   0  0  0  0  0  0  0  0  0  0  0  0
    3.2031   -5.2969    3.7133 C   0  0  2  0  0  0  0  0  0  0  0  0
    1.9208   -5.1924    3.1208 O   0  0  0  0  0  0  0  0  0  0  0  0
    1.0914   -3.9639    3.6233 O   0  0  0  0  0  0  0  0  0  0  0  0
    1.3733   -3.6338    4.9590 C   0  0  2  0  0  0  0  0  0  0  0  0
    0.0494   -3.1552    5.6284 C   0  0  0  0  0  0  0  0  0  0  0  0
    2.3356   -2.4465    4.8890 C   0  0  0  0  0  0  0  0  0  0  0  0
    3.7501   -2.8838    4.5473 C   0  0  0  0  0  0  0  0  0  0  0  0
    3.8889   -3.9139    3.4021 C   0  0  2  0  0  0  0  0  0  0  0  0
    1.8625   -4.6772    5.7642 O   0  0  0  0  0  0  0  0  0  0  0  0
    2.6224   -5.6983    5.1061 C   0  0  1  0  0  0  0  0  0  0  0  0
    3.0232   -3.2288   -0.6040 C   0  0  0  0  0  0  0  0  0  0  0  0
    4.2610   -3.4029   -1.4259 C   0  0  1  0  0  0  0  0  0  0  0  0
    5.0599   -2.2209   -1.9491 C   0  0  0  0  0  0  0  0  0  0  0  0
    5.6240   -3.0772   -0.8423 C   0  0  1  0  0  0  0  0  0  0  0  0
    8.0117   -2.2949    0.3149 H   0  0  0  0  0  0  0  0  0  0  0  0
    7.2887   -1.2113    1.5053 H   0  0  0  0  0  0  0  0  0  0  0  0
    7.0724   -0.8811   -0.1931 H   0  0  0  0  0  0  0  0  0  0  0  0
    5.4562   -2.0058    2.4423 H   0  0  0  0  0  0  0  0  0  0  0  0
    3.1109   -2.4238    2.0723 H   0  0  0  0  0  0  0  0  0  0  0  0
    1.9704   -4.0259    1.0055 H   0  0  0  0  0  0  0  0  0  0  0  0
    4.4239   -5.6419    0.2740 H   0  0  0  0  0  0  0  0  0  0  0  0
    1.6233   -6.2755    1.1887 H   0  0  0  0  0  0  0  0  0  0  0  0
    3.9583   -8.0185    1.5735 H   0  0  0  0  0  0  0  0  0  0  0  0
    2.0550  -10.5677    2.9994 H   0  0  0  0  0  0  0  0  0  0  0  0
    3.6638  -10.0430    2.5468 H   0  0  0  0  0  0  0  0  0  0  0  0
    2.3689   -9.9601    1.3822 H   0  0  0  0  0  0  0  0  0  0  0  0
    0.5578   -8.2441    1.4704 H   0  0  0  0  0  0  0  0  0  0  0  0
    0.2453   -9.1901    2.8763 H   0  0  0  0  0  0  0  0  0  0  0  0
   -0.0228   -6.2270    2.6719 H   0  0  0  0  0  0  0  0  0  0  0  0
   -1.1330   -7.4118    3.1627 H   0  0  0  0  0  0  0  0  0  0  0  0
   -0.2014   -6.0363    5.0732 H   0  0  0  0  0  0  0  0  0  0  0  0
   -0.3015   -7.7453    5.2374 H   0  0  0  0  0  0  0  0  0  0  0  0
    2.5901   -7.3947    7.2138 H   0  0  0  0  0  0  0  0  0  0  0  0
    1.1837   -8.3727    6.8502 H   0  0  0  0  0  0  0  0  0  0  0  0
    0.9990   -6.6709    7.2273 H   0  0  0  0  0  0  0  0  0  0  0  0
    1.8356   -9.1472    4.8364 H   0  0  0  0  0  0  0  0  0  0  0  0
    3.9552   -8.4777    5.9594 H   0  0  0  0  0  0  0  0  0  0  0  0
    4.1580   -9.4930    4.5962 H   0  0  0  0  0  0  0  0  0  0  0  0
    5.2042   -6.8500    5.0122 H   0  0  0  0  0  0  0  0  0  0  0  0
    5.5600   -8.0466    3.8255 H   0  0  0  0  0  0  0  0  0  0  0  0
    6.2728   -5.9391    3.2180 H   0  0  0  0  0  0  0  0  0  0  0  0
    5.5291   -5.2370    1.8620 H   0  0  0  0  0  0  0  0  0  0  0  0
    5.8851   -6.9401    1.8404 H   0  0  0  0  0  0  0  0  0  0  0  0
   -0.6752   -3.9631    5.6806 H   0  0  0  0  0  0  0  0  0  0  0  0
   -0.3959   -2.3362    5.0799 H   0  0  0  0  0  0  0  0  0  0  0  0
    0.2286   -2.8208    6.6506 H   0  0  0  0  0  0  0  0  0  0  0  0
    1.9726   -1.7361    4.1577 H   0  0  0  0  0  0  0  0  0  0  0  0
    2.3624   -1.9201    5.8435 H   0  0  0  0  0  0  0  0  0  0  0  0
    4.3423   -1.9904    4.3350 H   0  0  0  0  0  0  0  0  0  0  0  0
    4.2000   -3.3057    5.4469 H   0  0  0  0  0  0  0  0  0  0  0  0
    4.9439   -4.0794    3.5541 H   0  0  0  0  0  0  0  0  0  0  0  0
    3.4656   -5.8058    5.7768 H   0  0  0  0  0  0  0  0  0  0  0  0
    2.1787   -3.5502   -1.2344 H   0  0  0  0  0  0  0  0  0  0  0  0
    2.8589   -2.1627   -0.4155 H   0  0  0  0  0  0  0  0  0  0  0  0
    4.2438   -4.2601   -2.1024 H   0  0  0  0  0  0  0  0  0  0  0  0
    5.4941   -2.3091   -2.9313 H   0  0  0  0  0  0  0  0  0  0  0  0
    4.7088   -1.2237   -1.6752 H   0  0  0  0  0  0  0  0  0  0  0  0
    6.4327   -3.7654   -1.1274 H   0  0  0  0  0  0  0  0  0  0  0  0
  1  2  1  0
  1 35  1  0
  1 36  1  0
  1 37  1  0
  2 34  1  0
  2  3  2  0
  3  4  1  0
  3 38  1  0
  4 28  1  0
  4  5  1  0
  4 39  1  1
  5  6  1  0
  5 31  1  0
  5 40  1  1
  6  7  2  3
  6 41  1  0
  7  8  1  0
  7 42  1  0
  8 19  1  0
  8  9  1  0
  8 43  1  6
  9 16  1  0
  9 10  1  6
  9 11  1  0
 10 44  1  0
 10 45  1  0
 10 46  1  0
 11 12  1  0
 11 47  1  0
 11 48  1  0
 12 13  1  0
 12 49  1  0
 12 50  1  0
 13 14  1  0
 13 51  1  0
 13 52  1  0
 14 30  1  0
 14 15  1  1
 14 16  1  0
 15 53  1  0
 15 54  1  0
 15 55  1  0
 16 17  1  0
 16 56  1  1
 17 18  1  0
 17 57  1  0
 17 58  1  0
 18 19  1  0
 18 59  1  0
 18 60  1  0
 19 20  1  6
 19 21  1  0
 20 61  1  0
 20 62  1  0
 20 63  1  0
 21 28  1  0
 21 30  1  0
 21 22  1  6
 22 23  1  0
 23 24  1  0
 24 25  1  1
 24 26  1  0
 24 29  1  0
 25 64  1  0
 25 65  1  0
 25 66  1  0
 26 27  1  0
 26 67  1  0
 26 68  1  0
 27 28  1  0
 27 69  1  0
 27 70  1  0
 28 71  1  6
 29 30  1  0
 30 72  1  1
 31 32  1  0
 31 73  1  0
 31 74  1  0
 32 34  1  0
 32 33  1  0
 32 75  1  6
 33 34  1  0
 33 76  1  0
 33 77  1  0
 34 78  1  6
M  END
>  <i_m_ct_stereo_status>  (180) 
1

>  <s_m_source_file>  (180) 
/var/tmp/pbs.5076255.sched01/tmp8yzwbncg/40d_vk9m1l.sdf

>  <i_m_source_file_index>  (180) 
33

>  <i_lp_mmshare_version>  (180) 
48012

>  <i_f3d_flags>  (180) 
0

>  <s_epik_input>  (180) 
W0NIM11DKD1bQ0hdMSlbQ0BIXShbQ0gyXTIpW0NASF0yW0NIMl1bQ0BASF0oL1tDSF09W0NIXVwzKVtDQEhdMVtDQEhdNFtDSDJdW0NIMl1bQ0BdKE9PNSkoW0NIM10pT1tDQEhdNltDQEBdKFtDSDNdKShbQ0gyXVtDSDJdW0NIMl03KVtDQEhdKFtDSDJdW0NIMl04KVtDQF03KFtDSDNdKVtDQEBIXTNbQ0BdOChbQ0BAXTQ1NilbQ0gzXQ==

>  <s_epik_cmdline>  (180) 
J2VwaWtfcHl0aG9uJywgJy1waHQnLCAnMi4wJywgJy1waCcsICc3LjAnLCAnLXRuJywgJzgnLCAnLW1hJywgJzIwMCcsICctaW1hZScsICc8aW5maWxlLm1hZT4nLCAnLW9tYWUnLCAnPG91dGZpbGUubWFlPic=

>  <r_lp_tautomer_probability>  (180) 
1

>  <r_epik_Ionization_Penalty>  (180) 
3.73625e-14

>  <r_epik_Ionization_Penalty_Charging>  (180) 
0

>  <r_epik_Ionization_Penalty_Neutral>  (180) 
3.73625e-14

>  <r_epik_State_Penalty>  (180) 
-0

>  <r_epik_Charging_Adjusted_Penalty>  (180) 
0

>  <i_epik_Tot_Q>  (180) 
0

>  <i_epik_Tot_abs_Q>  (180) 
0

>  <s_lp_Force_Field>  (180) 
OPLS3e

>  <r_lp_Energy>  (180) 
177.283

>  <b_lp_Chiralities_Consistent>  (180) 
1

>  <s_lp_Variant>  (180) 
52:0-2

>  <s_i_glide_gridfile>  (180) 
pfpi4k_grid

>  <i_i_glide_lignum>  (180) 
33

>  <i_i_glide_rotatable_bonds>  (180) 
0

>  <r_i_docking_score>  (180) 
-1.77475

>  <r_i_glide_ligand_efficiency>  (180) 
-0.0521986

>  <r_i_glide_ligand_efficiency_sa>  (180) 
-0.169103

>  <r_i_glide_ligand_efficiency_ln>  (180) 
-0.392092

>  <r_i_glide_gscore>  (180) 
-1.77475

>  <r_i_glide_lipo>  (180) 
-0.179474

>  <r_i_glide_hbond>  (180) 
0

>  <r_i_glide_metal>  (180) 
-0

>  <r_i_glide_rewards>  (180) 
-0.24932

>  <r_i_glide_evdw>  (180) 
-29.6463

>  <r_i_glide_ecoul>  (180) 
0.909054

>  <r_i_glide_erotb>  (180) 
0

>  <r_i_glide_esite>  (180) 
0

>  <r_i_glide_emodel>  (180) 
-31.4052

>  <r_i_glide_energy>  (180) 
-28.7373

>  <r_i_glide_einternal>  (180) 
0

>  <r_i_glide_intrahb_reward>  (180) 
-0

>  <i_i_glide_confnum>  (180) 
2

>  <i_i_glide_posenum>  (180) 
11

>  <r_i_glide_eff_state_penalty>  (180) 
0

>  <ligand_id>  (180) 
52

>  <original_smiles>  (180) 
CC1=CC2C(C=CC3C4(C)CCCC5(C)C4CCC3(C)C34OOC(C)(CCC23)OC54)CC2CC12

>  <smiles>  (180) 
[H]C1=C([H])C2([H])C3(C([H])([H])[H])C([H])([H])C([H])([H])C([H])([H])C4(C([H])([H])[H])C5([H])OC6(C([H])([H])[H])OOC5(C([H])(C([H])([H])C6([H])[H])C5([H])C([H])=C(C([H])([H])[H])C6([H])C([H])([H])C6([H])C([H])([H])C15[H])C2(C([H])([H])[H])C([H])([H])C([H])([H])C43[H]

$$$$
53:0:0
     RDKit          3D

 53 57  0  0  1  0  0  0  0  0999 V2000
    3.7532   -5.3492    3.1399 C   0  0  0  0  0  0  0  0  0  0  0  0
    3.9699   -5.9773    1.7436 C   0  0  2  0  0  0  0  0  0  0  0  0
    3.4266   -7.4155    1.7115 C   0  0  0  0  0  0  0  0  0  0  0  0
    4.3055   -8.3537    2.5379 C   0  0  1  0  0  0  0  0  0  0  0  0
    3.7424   -9.7753    2.6885 C   0  0  0  0  0  0  0  0  0  0  0  0
    4.5944  -10.5886    3.6850 C   0  0  0  0  0  0  0  0  0  0  0  0
    6.0857  -10.3257    3.5421 C   0  0  0  0  0  0  0  0  0  0  0  0
    6.6009   -9.3374    2.7879 C   0  0  0  0  0  0  0  0  0  0  0  0
    5.7308   -8.3944    1.9651 C   0  0  2  0  0  0  0  0  0  0  0  0
    6.3059   -7.0132    1.6014 C   0  0  0  0  0  0  0  0  0  0  0  0
    7.6929   -6.8853    1.3742 C   0  0  0  0  0  0  0  0  0  0  0  0
    8.2316   -5.7037    0.8647 C   0  0  0  0  0  0  0  0  0  0  0  0
    7.3956   -4.6431    0.4746 C   0  0  0  0  0  0  0  0  0  0  0  0
    5.9877   -4.7236    0.7065 C   0  0  0  0  0  0  0  0  0  0  0  0
    5.4553   -5.8946    1.3401 C   0  0  0  0  0  0  0  0  0  0  0  0
    5.0541   -3.6224    0.1274 C   0  0  1  0  0  0  0  0  0  0  0  0
    4.3995   -2.6731    1.1650 C   0  0  0  0  0  0  0  0  0  0  0  0
    4.0116   -1.3800    0.4323 C   0  0  0  0  0  0  0  0  0  0  0  0
    4.8042   -1.4575   -0.8522 C   0  0  0  0  0  0  0  0  0  0  0  0
    4.7118   -0.6563   -1.7705 O   0  0  0  0  0  0  0  0  0  0  0  0
    5.7210   -2.6714   -0.8895 C   0  0  2  0  0  0  0  0  0  0  0  0
    5.7317   -3.2448   -2.3221 C   0  0  0  0  0  0  0  0  0  0  0  0
    7.1247   -2.2826   -0.3996 C   0  0  0  0  0  0  0  0  0  0  0  0
    8.0332   -3.4992   -0.3209 C   0  0  1  0  0  0  0  0  0  0  0  0
    9.3291   -3.1173    0.1140 O   0  0  0  0  0  0  0  0  0  0  0  0
    4.1756   -4.3508    3.2144 H   0  0  0  0  0  0  0  0  0  0  0  0
    4.2392   -5.9114    3.9345 H   0  0  0  0  0  0  0  0  0  0  0  0
    2.6915   -5.2836    3.3825 H   0  0  0  0  0  0  0  0  0  0  0  0
    3.3634   -5.4214    1.0323 H   0  0  0  0  0  0  0  0  0  0  0  0
    2.3934   -7.4488    2.0615 H   0  0  0  0  0  0  0  0  0  0  0  0
    3.4224   -7.7657    0.6810 H   0  0  0  0  0  0  0  0  0  0  0  0
    4.3700   -7.9645    3.5494 H   0  0  0  0  0  0  0  0  0  0  0  0
    2.7035   -9.7558    3.0258 H   0  0  0  0  0  0  0  0  0  0  0  0
    3.7505  -10.2678    1.7156 H   0  0  0  0  0  0  0  0  0  0  0  0
    4.3133  -10.3284    4.7069 H   0  0  0  0  0  0  0  0  0  0  0  0
    4.4029  -11.6556    3.5637 H   0  0  0  0  0  0  0  0  0  0  0  0
    6.7361  -10.9690    4.1151 H   0  0  0  0  0  0  0  0  0  0  0  0
    7.6717   -9.2307    2.7356 H   0  0  0  0  0  0  0  0  0  0  0  0
    5.6627   -8.8887    0.9949 H   0  0  0  0  0  0  0  0  0  0  0  0
    8.3741   -7.7088    1.5409 H   0  0  0  0  0  0  0  0  0  0  0  0
    9.2958   -5.6570    0.6802 H   0  0  0  0  0  0  0  0  0  0  0  0
    4.2515   -4.1197   -0.4225 H   0  0  0  0  0  0  0  0  0  0  0  0
    3.5056   -3.1030    1.6134 H   0  0  0  0  0  0  0  0  0  0  0  0
    5.1084   -2.4266    1.9584 H   0  0  0  0  0  0  0  0  0  0  0  0
    2.9476   -1.3610    0.1883 H   0  0  0  0  0  0  0  0  0  0  0  0
    4.2504   -0.4778    1.0026 H   0  0  0  0  0  0  0  0  0  0  0  0
    6.1191   -4.2563   -2.3336 H   0  0  0  0  0  0  0  0  0  0  0  0
    6.3548   -2.6619   -3.0007 H   0  0  0  0  0  0  0  0  0  0  0  0
    4.7304   -3.2876   -2.7522 H   0  0  0  0  0  0  0  0  0  0  0  0
    7.5677   -1.5615   -1.0656 H   0  0  0  0  0  0  0  0  0  0  0  0
    7.0719   -1.8011    0.5780 H   0  0  0  0  0  0  0  0  0  0  0  0
    8.1781   -3.8581   -1.3397 H   0  0  0  0  0  0  0  0  0  0  0  0
    9.7453   -2.6056   -0.5755 H   0  0  0  0  0  0  0  0  0  0  0  0
  1  2  1  0
  1 26  1  0
  1 27  1  0
  1 28  1  0
  2 15  1  0
  2  3  1  0
  2 29  1  6
  3  4  1  0
  3 30  1  0
  3 31  1  0
  4  9  1  0
  4  5  1  0
  4 32  1  1
  5  6  1  0
  5 33  1  0
  5 34  1  0
  6  7  1  0
  6 35  1  0
  6 36  1  0
  7  8  2  0
  7 37  1  0
  8  9  1  0
  8 38  1  0
  9 10  1  0
  9 39  1  6
 10 15  2  0
 10 11  1  0
 11 12  2  0
 11 40  1  0
 12 13  1  0
 12 41  1  0
 13 24  1  0
 13 14  2  0
 14 15  1  0
 14 16  1  0
 16 21  1  0
 16 17  1  0
 16 42  1  6
 17 18  1  0
 17 43  1  0
 17 44  1  0
 18 19  1  0
 18 45  1  0
 18 46  1  0
 19 20  2  0
 19 21  1  0
 21 22  1  6
 21 23  1  0
 22 47  1  0
 22 48  1  0
 22 49  1  0
 23 24  1  0
 23 50  1  0
 23 51  1  0
 24 25  1  0
 24 52  1  6
 25 53  1  0
M  END
>  <i_m_ct_stereo_status>  (181) 
1

>  <s_m_source_file>  (181) 
/var/tmp/pbs.5076255.sched01/tmp8yzwbncg/40d_vk9m1l.sdf

>  <i_m_source_file_index>  (181) 
34

>  <i_lp_mmshare_version>  (181) 
48012

>  <i_f3d_flags>  (181) 
0

>  <s_epik_input>  (181) 
W0NIMl0xW0NIMl1bQ0hdPVtDSF1bQ0BIXTJbQ0BIXTFbQ0gyXVtDQEBIXShbQ0gzXSljM2MyW2NIXVtjSF1jKFtDQEBIXShbQ0gyXTQpW09IXSljM1tDQEhdKFtDQF00NVtDSDNdKVtDSDJdW0NIMl1DNT1P

>  <s_epik_cmdline>  (181) 
J2VwaWtfcHl0aG9uJywgJy1waHQnLCAnMi4wJywgJy1waCcsICc3LjAnLCAnLXRuJywgJzgnLCAnLW1hJywgJzIwMCcsICctaW1hZScsICc8aW5maWxlLm1hZT4nLCAnLW9tYWUnLCAnPG91dGZpbGUubWFlPic=

>  <r_lp_tautomer_probability>  (181) 
1

>  <r_epik_Ionization_Penalty>  (181) 
4.67882e-08

>  <r_epik_Ionization_Penalty_Charging>  (181) 
0

>  <r_epik_Ionization_Penalty_Neutral>  (181) 
4.67882e-08

>  <r_epik_State_Penalty>  (181) 
-0

>  <r_epik_Charging_Adjusted_Penalty>  (181) 
0

>  <i_epik_Tot_Q>  (181) 
0

>  <i_epik_Tot_abs_Q>  (181) 
0

>  <s_lp_Force_Field>  (181) 
OPLS3e

>  <r_lp_Energy>  (181) 
46.2469

>  <b_lp_Chiralities_Consistent>  (181) 
1

>  <s_lp_Variant>  (181) 
53:0-1

>  <s_i_glide_gridfile>  (181) 
pfpi4k_grid

>  <i_i_glide_lignum>  (181) 
34

>  <i_i_glide_rotatable_bonds>  (181) 
1

>  <r_i_docking_score>  (181) 
-4.29371

>  <r_i_glide_ligand_efficiency>  (181) 
-0.171748

>  <r_i_glide_ligand_efficiency_sa>  (181) 
-0.502195

>  <r_i_glide_ligand_efficiency_ln>  (181) 
-1.01774

>  <r_i_glide_gscore>  (181) 
-4.29371

>  <r_i_glide_lipo>  (181) 
-1.04702

>  <r_i_glide_hbond>  (181) 
-0.288606

>  <r_i_glide_metal>  (181) 
-0

>  <r_i_glide_rewards>  (181) 
-1.115

>  <r_i_glide_evdw>  (181) 
-28.0555

>  <r_i_glide_ecoul>  (181) 
-2.69022

>  <r_i_glide_erotb>  (181) 
0

>  <r_i_glide_esite>  (181) 
-0.0367766

>  <r_i_glide_emodel>  (181) 
-38.9136

>  <r_i_glide_energy>  (181) 
-30.7458

>  <r_i_glide_einternal>  (181) 
0.109629

>  <r_i_glide_intrahb_reward>  (181) 
-0

>  <i_i_glide_confnum>  (181) 
1

>  <i_i_glide_posenum>  (181) 
16

>  <r_i_glide_eff_state_penalty>  (181) 
0

>  <ligand_id>  (181) 
53

>  <original_smiles>  (181) 
CC1CC2CCC=CC2c2ccc3c(c21)C1CCC(=O)C1(C)CC3O

>  <smiles>  (181) 
[H]OC1([H])c2c([H])c([H])c3c(c2C2([H])C([H])([H])C([H])([H])C(=O)C2(C([H])([H])[H])C1([H])[H])C([H])(C([H])([H])[H])C([H])([H])C1([H])C3([H])C([H])=C([H])C([H])([H])C1([H])[H]

$$$$
53:0:1
     RDKit          3D

 53 57  0  0  1  0  0  0  0  0999 V2000
    3.2858   -5.7897    3.5731 C   0  0  0  0  0  0  0  0  0  0  0  0
    3.4739   -6.3032    2.1245 C   0  0  2  0  0  0  0  0  0  0  0  0
    2.8195   -7.6856    1.9552 C   0  0  0  0  0  0  0  0  0  0  0  0
    3.6142   -8.7592    2.7005 C   0  0  1  0  0  0  0  0  0  0  0  0
    2.9456  -10.1452    2.7160 C   0  0  0  0  0  0  0  0  0  0  0  0
    3.7159  -11.1065    3.6442 C   0  0  0  0  0  0  0  0  0  0  0  0
    5.2233  -10.9448    3.5363 C   0  0  0  0  0  0  0  0  0  0  0  0
    5.8237   -9.9341    2.8769 C   0  0  0  0  0  0  0  0  0  0  0  0
    5.0399   -8.8601    2.1326 C   0  0  2  0  0  0  0  0  0  0  0  0
    5.7231   -7.4993    1.8957 C   0  0  0  0  0  0  0  0  0  0  0  0
    7.1175   -7.4610    1.6862 C   0  0  0  0  0  0  0  0  0  0  0  0
    7.7505   -6.2830    1.2805 C   0  0  0  0  0  0  0  0  0  0  0  0
    7.0041   -5.1319    0.9815 C   0  0  0  0  0  0  0  0  0  0  0  0
    5.5926   -5.1212    1.2024 C   0  0  0  0  0  0  0  0  0  0  0  0
    4.9656   -6.3010    1.7291 C   0  0  0  0  0  0  0  0  0  0  0  0
    4.7638   -3.8932    0.7365 C   0  0  1  0  0  0  0  0  0  0  0  0
    4.1633   -3.0035    1.8565 C   0  0  0  0  0  0  0  0  0  0  0  0
    3.8831   -1.6221    1.2471 C   0  0  0  0  0  0  0  0  0  0  0  0
    4.6981   -1.6226   -0.0294 C   0  0  0  0  0  0  0  0  0  0  0  0
    4.7057   -0.6983   -0.8425 O   0  0  0  0  0  0  0  0  0  0  0  0
    5.5151   -2.9008   -0.1857 C   0  0  2  0  0  0  0  0  0  0  0  0
    5.4950   -3.3519   -1.6611 C   0  0  0  0  0  0  0  0  0  0  0  0
    6.9452   -2.6624    0.3305 C   0  0  0  0  0  0  0  0  0  0  0  0
    7.7448   -3.9670    0.3258 C   0  0  1  0  0  0  0  0  0  0  0  0
    9.0512   -3.7636    0.8414 O   0  0  0  0  0  0  0  0  0  0  0  0
    3.7806   -4.8368    3.7414 H   0  0  0  0  0  0  0  0  0  0  0  0
    3.7171   -6.4594    4.3144 H   0  0  0  0  0  0  0  0  0  0  0  0
    2.2274   -5.6670    3.8140 H   0  0  0  0  0  0  0  0  0  0  0  0
    2.9215   -5.6376    1.4665 H   0  0  0  0  0  0  0  0  0  0  0  0
    1.7851   -7.6686    2.3006 H   0  0  0  0  0  0  0  0  0  0  0  0
    2.7878   -7.9393    0.8953 H   0  0  0  0  0  0  0  0  0  0  0  0
    3.6904   -8.4693    3.7474 H   0  0  0  0  0  0  0  0  0  0  0  0
    1.9066  -10.0768    3.0426 H   0  0  0  0  0  0  0  0  0  0  0  0
    2.9285  -10.5633    1.7074 H   0  0  0  0  0  0  0  0  0  0  0  0
    3.4406  -10.9199    4.6840 H   0  0  0  0  0  0  0  0  0  0  0  0
    3.4461  -12.1406    3.4189 H   0  0  0  0  0  0  0  0  0  0  0  0
    5.8143  -11.6913    4.0419 H   0  0  0  0  0  0  0  0  0  0  0  0
    6.9004   -9.9155    2.8356 H   0  0  0  0  0  0  0  0  0  0  0  0
    4.9490   -9.2613    1.1192 H   0  0  0  0  0  0  0  0  0  0  0  0
    7.7325   -8.3379    1.7950 H   0  0  0  0  0  0  0  0  0  0  0  0
    8.8197   -6.3028    1.1195 H   0  0  0  0  0  0  0  0  0  0  0  0
    3.9303   -4.2742    0.1433 H   0  0  0  0  0  0  0  0  0  0  0  0
    3.2337   -3.4016    2.2574 H   0  0  0  0  0  0  0  0  0  0  0  0
    4.8744   -2.8852    2.6739 H   0  0  0  0  0  0  0  0  0  0  0  0
    2.8298   -1.4975    0.9934 H   0  0  0  0  0  0  0  0  0  0  0  0
    4.1753   -0.7995    1.9036 H   0  0  0  0  0  0  0  0  0  0  0  0
    5.8012   -4.3897   -1.7526 H   0  0  0  0  0  0  0  0  0  0  0  0
    6.1694   -2.7555   -2.2747 H   0  0  0  0  0  0  0  0  0  0  0  0
    4.4977   -3.2805   -2.0984 H   0  0  0  0  0  0  0  0  0  0  0  0
    7.4550   -1.8995   -0.2583 H   0  0  0  0  0  0  0  0  0  0  0  0
    6.9031   -2.2737    1.3478 H   0  0  0  0  0  0  0  0  0  0  0  0
    7.8867   -4.2570   -0.7151 H   0  0  0  0  0  0  0  0  0  0  0  0
    8.9884   -3.5654    1.7655 H   0  0  0  0  0  0  0  0  0  0  0  0
  1  2  1  0
  1 26  1  0
  1 27  1  0
  1 28  1  0
  2 15  1  0
  2  3  1  0
  2 29  1  6
  3  4  1  0
  3 30  1  0
  3 31  1  0
  4  9  1  0
  4  5  1  0
  4 32  1  1
  5  6  1  0
  5 33  1  0
  5 34  1  0
  6  7  1  0
  6 35  1  0
  6 36  1  0
  7  8  2  0
  7 37  1  0
  8  9  1  0
  8 38  1  0
  9 10  1  0
  9 39  1  6
 10 15  2  0
 10 11  1  0
 11 12  2  0
 11 40  1  0
 12 13  1  0
 12 41  1  0
 13 24  1  0
 13 14  2  0
 14 15  1  0
 14 16  1  0
 16 21  1  0
 16 17  1  0
 16 42  1  6
 17 18  1  0
 17 43  1  0
 17 44  1  0
 18 19  1  0
 18 45  1  0
 18 46  1  0
 19 20  2  0
 19 21  1  0
 21 22  1  6
 21 23  1  0
 22 47  1  0
 22 48  1  0
 22 49  1  0
 23 24  1  0
 23 50  1  0
 23 51  1  0
 24 25  1  0
 24 52  1  6
 25 53  1  0
M  END
>  <i_m_ct_stereo_status>  (182) 
1

>  <s_m_source_file>  (182) 
/var/tmp/pbs.5076255.sched01/tmp8yzwbncg/40d_vk9m1l.sdf

>  <i_m_source_file_index>  (182) 
34

>  <i_lp_mmshare_version>  (182) 
48012

>  <i_f3d_flags>  (182) 
0

>  <s_epik_input>  (182) 
W0NIMl0xW0NIMl1bQ0hdPVtDSF1bQ0BIXTJbQ0BIXTFbQ0gyXVtDQEBIXShbQ0gzXSljM2MyW2NIXVtjSF1jKFtDQEBIXShbQ0gyXTQpW09IXSljM1tDQEhdKFtDQF00NVtDSDNdKVtDSDJdW0NIMl1DNT1P

>  <s_epik_cmdline>  (182) 
J2VwaWtfcHl0aG9uJywgJy1waHQnLCAnMi4wJywgJy1waCcsICc3LjAnLCAnLXRuJywgJzgnLCAnLW1hJywgJzIwMCcsICctaW1hZScsICc8aW5maWxlLm1hZT4nLCAnLW9tYWUnLCAnPG91dGZpbGUubWFlPic=

>  <r_lp_tautomer_probability>  (182) 
1

>  <r_epik_Ionization_Penalty>  (182) 
4.67882e-08

>  <r_epik_Ionization_Penalty_Charging>  (182) 
0

>  <r_epik_Ionization_Penalty_Neutral>  (182) 
4.67882e-08

>  <r_epik_State_Penalty>  (182) 
-0

>  <r_epik_Charging_Adjusted_Penalty>  (182) 
0

>  <i_epik_Tot_Q>  (182) 
0

>  <i_epik_Tot_abs_Q>  (182) 
0

>  <s_lp_Force_Field>  (182) 
OPLS3e

>  <r_lp_Energy>  (182) 
46.2469

>  <b_lp_Chiralities_Consistent>  (182) 
1

>  <s_lp_Variant>  (182) 
53:0-1

>  <s_i_glide_gridfile>  (182) 
pfpi4k_grid

>  <i_i_glide_lignum>  (182) 
34

>  <i_i_glide_rotatable_bonds>  (182) 
1

>  <r_i_docking_score>  (182) 
-3.65943

>  <r_i_glide_ligand_efficiency>  (182) 
-0.146377

>  <r_i_glide_ligand_efficiency_sa>  (182) 
-0.42801

>  <r_i_glide_ligand_efficiency_ln>  (182) 
-0.867396

>  <r_i_glide_gscore>  (182) 
-3.65943

>  <r_i_glide_lipo>  (182) 
-0.865233

>  <r_i_glide_hbond>  (182) 
-0.0145979

>  <r_i_glide_metal>  (182) 
-0

>  <r_i_glide_rewards>  (182) 
-1.115

>  <r_i_glide_evdw>  (182) 
-27.8638

>  <r_i_glide_ecoul>  (182) 
-1.72569

>  <r_i_glide_erotb>  (182) 
0

>  <r_i_glide_esite>  (182) 
-0.0125648

>  <r_i_glide_emodel>  (182) 
-36.4237

>  <r_i_glide_energy>  (182) 
-29.5895

>  <r_i_glide_einternal>  (182) 
0.320491

>  <r_i_glide_intrahb_reward>  (182) 
-0

>  <i_i_glide_confnum>  (182) 
1

>  <i_i_glide_posenum>  (182) 
17

>  <r_i_glide_eff_state_penalty>  (182) 
0

>  <ligand_id>  (182) 
53

>  <original_smiles>  (182) 
CC1CC2CCC=CC2c2ccc3c(c21)C1CCC(=O)C1(C)CC3O

>  <smiles>  (182) 
[H]OC1([H])c2c([H])c([H])c3c(c2C2([H])C([H])([H])C([H])([H])C(=O)C2(C([H])([H])[H])C1([H])[H])C([H])(C([H])([H])[H])C([H])([H])C1([H])C3([H])C([H])=C([H])C([H])([H])C1([H])[H]

$$$$
53:0:2
     RDKit          3D

 53 57  0  0  1  0  0  0  0  0999 V2000
    1.8512   -5.5578    3.5034 C   0  0  0  0  0  0  0  0  0  0  0  0
    2.0612   -6.1581    2.0913 C   0  0  2  0  0  0  0  0  0  0  0  0
    1.1378   -7.3728    1.8810 C   0  0  0  0  0  0  0  0  0  0  0  0
    1.6061   -8.5630    2.7221 C   0  0  1  0  0  0  0  0  0  0  0  0
    0.6539   -9.7727    2.7013 C   0  0  0  0  0  0  0  0  0  0  0  0
    1.1026  -10.8400    3.7174 C   0  0  0  0  0  0  0  0  0  0  0  0
    2.6114  -11.0099    3.7575 C   0  0  0  0  0  0  0  0  0  0  0  0
    3.4769  -10.1792    3.1428 C   0  0  0  0  0  0  0  0  0  0  0  0
    3.0231   -8.9902    2.3030 C   0  0  2  0  0  0  0  0  0  0  0  0
    4.0067   -7.8174    2.1120 C   0  0  0  0  0  0  0  0  0  0  0  0
    5.3895   -8.0879    2.0437 C   0  0  0  0  0  0  0  0  0  0  0  0
    6.3014   -7.0863    1.6904 C   0  0  0  0  0  0  0  0  0  0  0  0
    5.8549   -5.8113    1.3048 C   0  0  0  0  0  0  0  0  0  0  0  0
    4.4643   -5.4924    1.3739 C   0  0  0  0  0  0  0  0  0  0  0  0
    3.5477   -6.4909    1.8506 C   0  0  0  0  0  0  0  0  0  0  0  0
    3.9713   -4.1349    0.7997 C   0  0  1  0  0  0  0  0  0  0  0  0
    3.4763   -3.0937    1.8357 C   0  0  0  0  0  0  0  0  0  0  0  0
    3.5642   -1.7092    1.1771 C   0  0  0  0  0  0  0  0  0  0  0  0
    4.4783   -1.9302   -0.0100 C   0  0  0  0  0  0  0  0  0  0  0  0
    4.7754   -1.0551   -0.8260 O   0  0  0  0  0  0  0  0  0  0  0  0
    5.0042   -3.3617   -0.0585 C   0  0  2  0  0  0  0  0  0  0  0  0
    5.0299   -3.8607   -1.5187 C   0  0  0  0  0  0  0  0  0  0  0  0
    6.3934   -3.4123    0.6010 C   0  0  0  0  0  0  0  0  0  0  0  0
    6.8838   -4.8539    0.7029 C   0  0  1  0  0  0  0  0  0  0  0  0
    8.1639   -4.9002    1.3109 O   0  0  0  0  0  0  0  0  0  0  0  0
    2.5247   -4.7289    3.7047 H   0  0  0  0  0  0  0  0  0  0  0  0
    2.0531   -6.2742    4.2974 H   0  0  0  0  0  0  0  0  0  0  0  0
    0.8284   -5.1982    3.6345 H   0  0  0  0  0  0  0  0  0  0  0  0
    1.7393   -5.4140    1.3683 H   0  0  0  0  0  0  0  0  0  0  0  0
    0.1047   -7.1205    2.1216 H   0  0  0  0  0  0  0  0  0  0  0  0
    1.1471   -7.6559    0.8282 H   0  0  0  0  0  0  0  0  0  0  0  0
    1.6474   -8.2533    3.7650 H   0  0  0  0  0  0  0  0  0  0  0  0
   -0.3721   -9.4697    2.9166 H   0  0  0  0  0  0  0  0  0  0  0  0
    0.6474  -10.2229    1.7074 H   0  0  0  0  0  0  0  0  0  0  0  0
    0.7758  -10.5597    4.7205 H   0  0  0  0  0  0  0  0  0  0  0  0
    0.6381  -11.8004    3.4846 H   0  0  0  0  0  0  0  0  0  0  0  0
    2.9756  -11.8467    4.3328 H   0  0  0  0  0  0  0  0  0  0  0  0
    4.5299  -10.3994    3.2056 H   0  0  0  0  0  0  0  0  0  0  0  0
    2.9461   -9.4019    1.2926 H   0  0  0  0  0  0  0  0  0  0  0  0
    5.7772   -9.0760    2.2276 H   0  0  0  0  0  0  0  0  0  0  0  0
    7.3522   -7.3349    1.6343 H   0  0  0  0  0  0  0  0  0  0  0  0
    3.1371   -4.3525    0.1301 H   0  0  0  0  0  0  0  0  0  0  0  0
    2.4491   -3.2671    2.1470 H   0  0  0  0  0  0  0  0  0  0  0  0
    4.1143   -3.1010    2.7193 H   0  0  0  0  0  0  0  0  0  0  0  0
    2.5922   -1.3726    0.8169 H   0  0  0  0  0  0  0  0  0  0  0  0
    3.9660   -0.9459    1.8460 H   0  0  0  0  0  0  0  0  0  0  0  0
    5.1069   -4.9466   -1.5602 H   0  0  0  0  0  0  0  0  0  0  0  0
    5.8748   -3.4480   -2.0698 H   0  0  0  0  0  0  0  0  0  0  0  0
    4.1195   -3.5975   -2.0584 H   0  0  0  0  0  0  0  0  0  0  0  0
    7.1127   -2.8055    0.0493 H   0  0  0  0  0  0  0  0  0  0  0  0
    6.3442   -2.9850    1.6033 H   0  0  0  0  0  0  0  0  0  0  0  0
    7.0385   -5.2103   -0.3108 H   0  0  0  0  0  0  0  0  0  0  0  0
    8.0857   -4.6449    2.2177 H   0  0  0  0  0  0  0  0  0  0  0  0
  1  2  1  0
  1 26  1  0
  1 27  1  0
  1 28  1  0
  2 15  1  0
  2  3  1  0
  2 29  1  6
  3  4  1  0
  3 30  1  0
  3 31  1  0
  4  9  1  0
  4  5  1  0
  4 32  1  1
  5  6  1  0
  5 33  1  0
  5 34  1  0
  6  7  1  0
  6 35  1  0
  6 36  1  0
  7  8  2  0
  7 37  1  0
  8  9  1  0
  8 38  1  0
  9 10  1  0
  9 39  1  6
 10 15  2  0
 10 11  1  0
 11 12  2  0
 11 40  1  0
 12 13  1  0
 12 41  1  0
 13 24  1  0
 13 14  2  0
 14 15  1  0
 14 16  1  0
 16 21  1  0
 16 17  1  0
 16 42  1  6
 17 18  1  0
 17 43  1  0
 17 44  1  0
 18 19  1  0
 18 45  1  0
 18 46  1  0
 19 20  2  0
 19 21  1  0
 21 22  1  6
 21 23  1  0
 22 47  1  0
 22 48  1  0
 22 49  1  0
 23 24  1  0
 23 50  1  0
 23 51  1  0
 24 25  1  0
 24 52  1  6
 25 53  1  0
M  END
>  <i_m_ct_stereo_status>  (183) 
1

>  <s_m_source_file>  (183) 
/var/tmp/pbs.5076255.sched01/tmp8yzwbncg/40d_vk9m1l.sdf

>  <i_m_source_file_index>  (183) 
34

>  <i_lp_mmshare_version>  (183) 
48012

>  <i_f3d_flags>  (183) 
0

>  <s_epik_input>  (183) 
W0NIMl0xW0NIMl1bQ0hdPVtDSF1bQ0BIXTJbQ0BIXTFbQ0gyXVtDQEBIXShbQ0gzXSljM2MyW2NIXVtjSF1jKFtDQEBIXShbQ0gyXTQpW09IXSljM1tDQEhdKFtDQF00NVtDSDNdKVtDSDJdW0NIMl1DNT1P

>  <s_epik_cmdline>  (183) 
J2VwaWtfcHl0aG9uJywgJy1waHQnLCAnMi4wJywgJy1waCcsICc3LjAnLCAnLXRuJywgJzgnLCAnLW1hJywgJzIwMCcsICctaW1hZScsICc8aW5maWxlLm1hZT4nLCAnLW9tYWUnLCAnPG91dGZpbGUubWFlPic=

>  <r_lp_tautomer_probability>  (183) 
1

>  <r_epik_Ionization_Penalty>  (183) 
4.67882e-08

>  <r_epik_Ionization_Penalty_Charging>  (183) 
0

>  <r_epik_Ionization_Penalty_Neutral>  (183) 
4.67882e-08

>  <r_epik_State_Penalty>  (183) 
-0

>  <r_epik_Charging_Adjusted_Penalty>  (183) 
0

>  <i_epik_Tot_Q>  (183) 
0

>  <i_epik_Tot_abs_Q>  (183) 
0

>  <s_lp_Force_Field>  (183) 
OPLS3e

>  <r_lp_Energy>  (183) 
46.2469

>  <b_lp_Chiralities_Consistent>  (183) 
1

>  <s_lp_Variant>  (183) 
53:0-1

>  <s_i_glide_gridfile>  (183) 
pfpi4k_grid

>  <i_i_glide_lignum>  (183) 
34

>  <i_i_glide_rotatable_bonds>  (183) 
1

>  <r_i_docking_score>  (183) 
-3.49754

>  <r_i_glide_ligand_efficiency>  (183) 
-0.139902

>  <r_i_glide_ligand_efficiency_sa>  (183) 
-0.409074

>  <r_i_glide_ligand_efficiency_ln>  (183) 
-0.829021

>  <r_i_glide_gscore>  (183) 
-3.49754

>  <r_i_glide_lipo>  (183) 
-0.721852

>  <r_i_glide_hbond>  (183) 
0

>  <r_i_glide_metal>  (183) 
-0

>  <r_i_glide_rewards>  (183) 
-1.115

>  <r_i_glide_evdw>  (183) 
-29.2616

>  <r_i_glide_ecoul>  (183) 
-1.22213

>  <r_i_glide_erotb>  (183) 
0

>  <r_i_glide_esite>  (183) 
-0.0142893

>  <r_i_glide_emodel>  (183) 
-37.1163

>  <r_i_glide_energy>  (183) 
-30.4837

>  <r_i_glide_einternal>  (183) 
0.276951

>  <r_i_glide_intrahb_reward>  (183) 
-0

>  <i_i_glide_confnum>  (183) 
1

>  <i_i_glide_posenum>  (183) 
1

>  <r_i_glide_eff_state_penalty>  (183) 
0

>  <ligand_id>  (183) 
53

>  <original_smiles>  (183) 
CC1CC2CCC=CC2c2ccc3c(c21)C1CCC(=O)C1(C)CC3O

>  <smiles>  (183) 
[H]OC1([H])c2c([H])c([H])c3c(c2C2([H])C([H])([H])C([H])([H])C(=O)C2(C([H])([H])[H])C1([H])[H])C([H])(C([H])([H])[H])C([H])([H])C1([H])C3([H])C([H])=C([H])C([H])([H])C1([H])[H]

$$$$
55:0:0
     RDKit          3D

 67 73  0  0  1  0  0  0  0  0999 V2000
    0.9456  -10.4332    4.0414 C   0  0  0  0  0  0  0  0  0  0  0  0
    0.8427   -8.9454    3.7934 C   0  0  0  0  0  0  0  0  0  0  0  0
    0.2572   -8.0338    4.5595 C   0  0  0  0  0  0  0  0  0  0  0  0
    0.3231   -6.6643    3.9473 C   0  0  1  0  0  0  0  0  0  0  0  0
    0.6675   -5.5482    4.9162 C   0  0  0  0  0  0  0  0  0  0  0  0
    1.0330   -4.3250    4.0818 C   0  0  1  0  0  0  0  0  0  0  0  0
    0.7474   -3.2172    4.8968 O   0  0  0  0  0  0  0  0  0  0  0  0
    2.4175   -4.4371    3.3222 C   0  0  1  0  0  0  0  0  0  0  0  0
    3.6508   -3.6486    3.9702 C   0  0  2  0  0  0  0  0  0  0  0  0
    4.8144   -3.5031    2.9582 C   0  0  0  0  0  0  0  0  0  0  0  0
    4.1704   -4.4780    5.1414 C   0  0  0  0  0  0  0  0  0  0  0  0
    4.1864   -5.8213    5.0956 C   0  0  0  0  0  0  0  0  0  0  0  0
    3.6587   -6.6883    3.9575 C   0  0  2  0  0  0  0  0  0  0  0  0
    4.7301   -7.5296    3.1963 C   0  0  2  0  0  0  0  0  0  0  0  0
    6.1851   -7.3654    3.5892 C   0  0  0  0  0  0  0  0  0  0  0  0
    6.9402   -6.8359    2.6280 C   0  0  0  0  0  0  0  0  0  0  0  0
    6.0773   -6.4967    1.5082 C   0  0  0  0  0  0  0  0  0  0  0  0
    6.3853   -5.8371    0.5156 O   0  0  0  0  0  0  0  0  0  0  0  0
    4.6902   -7.1083    1.7108 C   0  0  1  0  0  0  0  0  0  0  0  0
    4.6013   -8.3115    0.7445 C   0  0  0  0  0  0  0  0  0  0  0  0
    3.5142   -6.1075    1.5709 C   0  0  0  0  0  0  0  0  0  0  0  0
    2.7109   -5.9761    2.9239 C   0  0  2  0  0  0  0  0  0  0  0  0
    1.3239   -6.7844    2.7533 C   0  0  2  0  0  0  0  0  0  0  0  0
    0.6447   -6.2618    1.6190 O   0  0  0  0  0  0  0  0  0  0  0  0
    1.4386   -8.3299    2.5572 C   0  0  0  0  0  0  0  0  0  0  0  0
    4.5819   -3.7295    6.4107 C   0  0  0  0  0  0  0  0  0  0  0  0
    5.1571   -2.3395    6.1245 C   0  0  0  0  0  0  0  0  0  0  0  0
    6.0991   -1.8947    6.7703 O   0  0  0  0  0  0  0  0  0  0  0  0
    4.5510   -1.6599    5.1289 O   0  0  0  0  0  0  0  0  0  0  0  0
    3.3852   -2.1804    4.4857 C   0  0  1  0  0  0  0  0  0  0  0  0
    2.8379   -1.1770    3.4674 C   0  0  0  0  0  0  0  0  0  0  0  0
    1.5702   -1.1422    2.7943 C   0  0  0  0  0  0  0  0  0  0  0  0
    1.5435    0.0085    2.0567 C   0  0  0  0  0  0  0  0  0  0  0  0
    2.7109    0.6868    2.1748 O   0  0  0  0  0  0  0  0  0  0  0  0
    3.4790   -0.0486    3.0225 C   0  0  0  0  0  0  0  0  0  0  0  0
    1.9930  -10.7297    4.0941 H   0  0  0  0  0  0  0  0  0  0  0  0
    0.4700  -10.9869    3.2312 H   0  0  0  0  0  0  0  0  0  0  0  0
    0.4621  -10.7127    4.9785 H   0  0  0  0  0  0  0  0  0  0  0  0
   -0.2626   -8.2337    5.4832 H   0  0  0  0  0  0  0  0  0  0  0  0
   -0.6878   -6.4856    3.5761 H   0  0  0  0  0  0  0  0  0  0  0  0
   -0.2062   -5.3435    5.5394 H   0  0  0  0  0  0  0  0  0  0  0  0
    1.4769   -5.8097    5.5971 H   0  0  0  0  0  0  0  0  0  0  0  0
    0.2793   -4.2338    3.3008 H   0  0  0  0  0  0  0  0  0  0  0  0
    0.8617   -2.4298    4.3851 H   0  0  0  0  0  0  0  0  0  0  0  0
    2.2336   -3.9129    2.3825 H   0  0  0  0  0  0  0  0  0  0  0  0
    4.4781   -3.1756    1.9762 H   0  0  0  0  0  0  0  0  0  0  0  0
    5.3460   -4.4370    2.8610 H   0  0  0  0  0  0  0  0  0  0  0  0
    5.5852   -2.7956    3.2668 H   0  0  0  0  0  0  0  0  0  0  0  0
    4.5350   -6.3598    5.9671 H   0  0  0  0  0  0  0  0  0  0  0  0
    3.0581   -7.3955    4.5210 H   0  0  0  0  0  0  0  0  0  0  0  0
    4.5073   -8.5894    3.2930 H   0  0  0  0  0  0  0  0  0  0  0  0
    6.5724   -7.7519    4.5219 H   0  0  0  0  0  0  0  0  0  0  0  0
    8.0117   -6.6998    2.6375 H   0  0  0  0  0  0  0  0  0  0  0  0
    3.7142   -8.9232    0.8681 H   0  0  0  0  0  0  0  0  0  0  0  0
    5.4499   -8.9859    0.8603 H   0  0  0  0  0  0  0  0  0  0  0  0
    4.6001   -7.9809   -0.2922 H   0  0  0  0  0  0  0  0  0  0  0  0
    3.8711   -5.1477    1.2110 H   0  0  0  0  0  0  0  0  0  0  0  0
    2.8911   -6.4394    0.7439 H   0  0  0  0  0  0  0  0  0  0  0  0
    1.0867   -6.5915    0.8511 H   0  0  0  0  0  0  0  0  0  0  0  0
    2.4528   -8.6849    2.5011 H   0  0  0  0  0  0  0  0  0  0  0  0
    0.8983   -8.6884    1.6798 H   0  0  0  0  0  0  0  0  0  0  0  0
    3.7148   -3.6030    7.0567 H   0  0  0  0  0  0  0  0  0  0  0  0
    5.3317   -4.3011    6.9583 H   0  0  0  0  0  0  0  0  0  0  0  0
    2.6793   -2.1846    5.3111 H   0  0  0  0  0  0  0  0  0  0  0  0
    0.7378   -1.8288    2.8260 H   0  0  0  0  0  0  0  0  0  0  0  0
    0.8075    0.4472    1.4003 H   0  0  0  0  0  0  0  0  0  0  0  0
    4.4421    0.3911    3.2347 H   0  0  0  0  0  0  0  0  0  0  0  0
  1  2  1  0
  1 36  1  0
  1 37  1  0
  1 38  1  0
  2 25  1  0
  2  3  2  0
  3  4  1  0
  3 39  1  0
  4 23  1  0
  4  5  1  0
  4 40  1  6
  5  6  1  0
  5 41  1  0
  5 42  1  0
  6  7  1  0
  6  8  1  0
  6 43  1  6
  7 44  1  0
  8 22  1  0
  8  9  1  0
  8 45  1  6
  9 30  1  0
  9 10  1  6
  9 11  1  0
 10 46  1  0
 10 47  1  0
 10 48  1  0
 11 12  2  0
 11 26  1  0
 12 13  1  0
 12 49  1  0
 13 22  1  0
 13 14  1  0
 13 50  1  1
 14 19  1  0
 14 15  1  0
 14 51  1  6
 15 16  2  0
 15 52  1  0
 16 17  1  0
 16 53  1  0
 17 18  2  0
 17 19  1  0
 19 20  1  6
 19 21  1  0
 20 54  1  0
 20 55  1  0
 20 56  1  0
 22 21  1  6
 21 57  1  0
 21 58  1  0
 22 23  1  0
 23 24  1  6
 23 25  1  0
 24 59  1  0
 25 60  1  0
 25 61  1  0
 26 27  1  0
 26 62  1  0
 26 63  1  0
 27 28  2  0
 27 29  1  0
 29 30  1  0
 30 31  1  0
 30 64  1  1
 31 35  2  0
 31 32  1  0
 32 33  2  0
 32 65  1  0
 33 34  1  0
 33 66  1  0
 34 35  1  0
 35 67  1  0
M  END
>  <i_m_ct_stereo_status>  (184) 
1

>  <s_m_source_file>  (184) 
/var/tmp/pbs.5076255.sched01/tmp8yzwbncg/40d_vk9m1l.sdf

>  <i_m_source_file_index>  (184) 
36

>  <i_lp_mmshare_version>  (184) 
48012

>  <i_f3d_flags>  (184) 
0

>  <s_epik_input>  (184) 
W0NIM11DKD1bQ0hdMSlbQ0gyXVtDQEBdMihbT0hdKVtDQEBIXTFbQ0gyXVtDQEBIXShbT0hdKVtDQEhdKFtDQF0yMzQpW0NAXTUoW0NIM10pQyg9W0NIXVtDQEBIXTNbQ0BIXTZbQ0BAXShbQ0gzXSkoW0NIMl00KUMoPU8pW0NIXT1bQ0hdNilbQ0gyXUMoPU8pT1tDQEhdNWM3W2NIXVtjSF1vW2NIXTc=

>  <s_epik_cmdline>  (184) 
J2VwaWtfcHl0aG9uJywgJy1waHQnLCAnMi4wJywgJy1waCcsICc3LjAnLCAnLXRuJywgJzgnLCAnLW1hJywgJzIwMCcsICctaW1hZScsICc8aW5maWxlLm1hZT4nLCAnLW9tYWUnLCAnPG91dGZpbGUubWFlPic=

>  <r_lp_tautomer_probability>  (184) 
1

>  <r_epik_Ionization_Penalty>  (184) 
2.17068e-07

>  <r_epik_Ionization_Penalty_Charging>  (184) 
0

>  <r_epik_Ionization_Penalty_Neutral>  (184) 
2.17068e-07

>  <r_epik_State_Penalty>  (184) 
-0

>  <r_epik_Charging_Adjusted_Penalty>  (184) 
0

>  <i_epik_Tot_Q>  (184) 
0

>  <i_epik_Tot_abs_Q>  (184) 
0

>  <s_epik_Chemistry_Notes>  (184) 
This compound has an ester and may undergo hydrolysis at high or low pH.

>  <s_lp_Force_Field>  (184) 
OPLS3e

>  <r_lp_Energy>  (184) 
61.7658

>  <b_lp_Chiralities_Consistent>  (184) 
1

>  <s_lp_Variant>  (184) 
55:0-1

>  <s_i_glide_gridfile>  (184) 
pfpi4k_grid

>  <i_i_glide_lignum>  (184) 
36

>  <i_i_glide_rotatable_bonds>  (184) 
3

>  <r_i_docking_score>  (184) 
-2.74751

>  <r_i_glide_ligand_efficiency>  (184) 
-0.0785002

>  <r_i_glide_ligand_efficiency_sa>  (184) 
-0.256779

>  <r_i_glide_ligand_efficiency_ln>  (184) 
-0.603139

>  <r_i_glide_gscore>  (184) 
-2.74751

>  <r_i_glide_lipo>  (184) 
-0.152055

>  <r_i_glide_hbond>  (184) 
-0.16

>  <r_i_glide_metal>  (184) 
-0

>  <r_i_glide_rewards>  (184) 
-0.296271

>  <r_i_glide_evdw>  (184) 
-29.8076

>  <r_i_glide_ecoul>  (184) 
-4.91978

>  <r_i_glide_erotb>  (184) 
0.0891667

>  <r_i_glide_esite>  (184) 
0

>  <r_i_glide_emodel>  (184) 
-40.0845

>  <r_i_glide_energy>  (184) 
-34.7274

>  <r_i_glide_einternal>  (184) 
0.696235

>  <r_i_glide_intrahb_reward>  (184) 
-0

>  <i_i_glide_confnum>  (184) 
4

>  <i_i_glide_posenum>  (184) 
27

>  <r_i_glide_eff_state_penalty>  (184) 
0

>  <ligand_id>  (184) 
55

>  <original_smiles>  (184) 
CC1=CC2CC(O)C3C4(C)C(=CC5C6C=CC(=O)C6(C)CC53C2(O)C1)CC(=O)OC4c1ccoc1

>  <smiles>  (184) 
[H]OC1([H])C([H])([H])C2([H])C([H])=C(C([H])([H])[H])C([H])([H])C2(O[H])C23C([H])([H])C4(C([H])([H])[H])C(=O)C([H])=C([H])C4([H])C2([H])C([H])=C2C([H])([H])C(=O)OC([H])(c4c([H])oc([H])c4[H])C2(C([H])([H])[H])C13[H]

$$$$
55:0:1
     RDKit          3D

 67 73  0  0  1  0  0  0  0  0999 V2000
    7.3738   -2.7870   -0.0608 C   0  0  0  0  0  0  0  0  0  0  0  0
    6.1457   -3.6334    0.1547 C   0  0  0  0  0  0  0  0  0  0  0  0
    6.0979   -4.9604    0.3034 C   0  0  0  0  0  0  0  0  0  0  0  0
    4.6927   -5.4449    0.4355 C   0  0  1  0  0  0  0  0  0  0  0  0
    4.5041   -6.5112    1.4944 C   0  0  0  0  0  0  0  0  0  0  0  0
    3.0033   -6.6387    1.7240 C   0  0  1  0  0  0  0  0  0  0  0  0
    2.8085   -7.9534    2.1615 O   0  0  0  0  0  0  0  0  0  0  0  0
    2.3588   -5.4083    2.4846 C   0  0  1  0  0  0  0  0  0  0  0  0
    2.0387   -5.6100    4.0333 C   0  0  2  0  0  0  0  0  0  0  0  0
    1.0702   -4.5153    4.5535 C   0  0  0  0  0  0  0  0  0  0  0  0
    3.3516   -5.4541    4.8049 C   0  0  0  0  0  0  0  0  0  0  0  0
    4.2712   -4.5532    4.4375 C   0  0  0  0  0  0  0  0  0  0  0  0
    4.2141   -3.6514    3.1974 C   0  0  2  0  0  0  0  0  0  0  0  0
    4.1501   -2.1143    3.4659 C   0  0  2  0  0  0  0  0  0  0  0  0
    4.0669   -1.6870    4.9181 C   0  0  0  0  0  0  0  0  0  0  0  0
    2.9241   -1.0849    5.2334 C   0  0  0  0  0  0  0  0  0  0  0  0
    2.0532   -1.1178    4.0610 C   0  0  0  0  0  0  0  0  0  0  0  0
    0.8668   -0.8307    4.0082 O   0  0  0  0  0  0  0  0  0  0  0  0
    2.8425   -1.5765    2.8359 C   0  0  1  0  0  0  0  0  0  0  0  0
    3.0569   -0.3268    1.9468 C   0  0  0  0  0  0  0  0  0  0  0  0
    2.2281   -2.7768    2.0872 C   0  0  0  0  0  0  0  0  0  0  0  0
    3.1475   -4.0470    2.1173 C   0  0  2  0  0  0  0  0  0  0  0  0
    3.8140   -4.1759    0.6533 C   0  0  2  0  0  0  0  0  0  0  0  0
    2.7537   -4.2660   -0.2923 O   0  0  0  0  0  0  0  0  0  0  0  0
    4.7729   -3.0235    0.2185 C   0  0  0  0  0  0  0  0  0  0  0  0
    3.6072   -6.4179    5.9654 C   0  0  0  0  0  0  0  0  0  0  0  0
    2.3250   -6.8114    6.6820 C   0  0  0  0  0  0  0  0  0  0  0  0
    2.3042   -6.9366    7.9040 O   0  0  0  0  0  0  0  0  0  0  0  0
    1.2462   -7.0229    5.8831 O   0  0  0  0  0  0  0  0  0  0  0  0
    1.3722   -6.9713    4.4595 C   0  0  1  0  0  0  0  0  0  0  0  0
    0.0454   -7.3303    3.8018 C   0  0  0  0  0  0  0  0  0  0  0  0
   -0.1991   -8.1205    2.6361 C   0  0  0  0  0  0  0  0  0  0  0  0
   -1.5576   -8.2143    2.4830 C   0  0  0  0  0  0  0  0  0  0  0  0
   -2.1922   -7.5390    3.4719 O   0  0  0  0  0  0  0  0  0  0  0  0
   -1.2106   -7.0186    4.2628 C   0  0  0  0  0  0  0  0  0  0  0  0
    7.4610   -2.0584    0.7475 H   0  0  0  0  0  0  0  0  0  0  0  0
    7.2893   -2.2538   -1.0086 H   0  0  0  0  0  0  0  0  0  0  0  0
    8.2843   -3.3901   -0.0833 H   0  0  0  0  0  0  0  0  0  0  0  0
    6.9492   -5.6220    0.2697 H   0  0  0  0  0  0  0  0  0  0  0  0
    4.4867   -5.8969   -0.5376 H   0  0  0  0  0  0  0  0  0  0  0  0
    4.9173   -7.4481    1.1113 H   0  0  0  0  0  0  0  0  0  0  0  0
    5.0376   -6.2934    2.4210 H   0  0  0  0  0  0  0  0  0  0  0  0
    2.5337   -6.6486    0.7378 H   0  0  0  0  0  0  0  0  0  0  0  0
    3.2466   -8.0719    2.9939 H   0  0  0  0  0  0  0  0  0  0  0  0
    1.3683   -5.3238    2.0292 H   0  0  0  0  0  0  0  0  0  0  0  0
    0.2157   -4.3624    3.8972 H   0  0  0  0  0  0  0  0  0  0  0  0
    1.5947   -3.5824    4.6837 H   0  0  0  0  0  0  0  0  0  0  0  0
    0.6551   -4.7173    5.5450 H   0  0  0  0  0  0  0  0  0  0  0  0
    5.2061   -4.5051    4.9989 H   0  0  0  0  0  0  0  0  0  0  0  0
    5.1938   -3.8496    2.7819 H   0  0  0  0  0  0  0  0  0  0  0  0
    5.0201   -1.6081    3.0412 H   0  0  0  0  0  0  0  0  0  0  0  0
    4.9179   -1.7556    5.5857 H   0  0  0  0  0  0  0  0  0  0  0  0
    2.6735   -0.6006    6.1686 H   0  0  0  0  0  0  0  0  0  0  0  0
    3.7186   -0.4869    1.1019 H   0  0  0  0  0  0  0  0  0  0  0  0
    3.4805    0.4914    2.5224 H   0  0  0  0  0  0  0  0  0  0  0  0
    2.1137    0.0220    1.5362 H   0  0  0  0  0  0  0  0  0  0  0  0
    1.2388   -2.9881    2.4876 H   0  0  0  0  0  0  0  0  0  0  0  0
    1.9884   -2.4488    1.0768 H   0  0  0  0  0  0  0  0  0  0  0  0
    3.1079   -4.5336   -1.1381 H   0  0  0  0  0  0  0  0  0  0  0  0
    4.8465   -2.2185    0.9304 H   0  0  0  0  0  0  0  0  0  0  0  0
    4.5159   -2.6077   -0.7598 H   0  0  0  0  0  0  0  0  0  0  0  0
    4.0887   -7.3182    5.5994 H   0  0  0  0  0  0  0  0  0  0  0  0
    4.2563   -5.9459    6.6940 H   0  0  0  0  0  0  0  0  0  0  0  0
    2.0296   -7.8136    4.2556 H   0  0  0  0  0  0  0  0  0  0  0  0
    0.4854   -8.6412    1.9806 H   0  0  0  0  0  0  0  0  0  0  0  0
   -2.1785   -8.7409    1.7779 H   0  0  0  0  0  0  0  0  0  0  0  0
   -1.5701   -6.4970    5.1343 H   0  0  0  0  0  0  0  0  0  0  0  0
  1  2  1  0
  1 36  1  0
  1 37  1  0
  1 38  1  0
  2 25  1  0
  2  3  2  0
  3  4  1  0
  3 39  1  0
  4 23  1  0
  4  5  1  0
  4 40  1  6
  5  6  1  0
  5 41  1  0
  5 42  1  0
  6  7  1  0
  6  8  1  0
  6 43  1  6
  7 44  1  0
  8 22  1  0
  8  9  1  0
  8 45  1  6
  9 30  1  0
  9 10  1  1
  9 11  1  0
 10 46  1  0
 10 47  1  0
 10 48  1  0
 11 12  2  0
 11 26  1  0
 12 13  1  0
 12 49  1  0
 13 22  1  0
 13 14  1  0
 13 50  1  6
 14 19  1  0
 14 15  1  0
 14 51  1  6
 15 16  2  0
 15 52  1  0
 16 17  1  0
 16 53  1  0
 17 18  2  0
 17 19  1  0
 19 20  1  6
 19 21  1  0
 20 54  1  0
 20 55  1  0
 20 56  1  0
 22 21  1  6
 21 57  1  0
 21 58  1  0
 22 23  1  0
 23 24  1  6
 23 25  1  0
 24 59  1  0
 25 60  1  0
 25 61  1  0
 26 27  1  0
 26 62  1  0
 26 63  1  0
 27 28  2  0
 27 29  1  0
 29 30  1  0
 30 31  1  0
 30 64  1  6
 31 35  2  0
 31 32  1  0
 32 33  2  0
 32 65  1  0
 33 34  1  0
 33 66  1  0
 34 35  1  0
 35 67  1  0
M  END
>  <i_m_ct_stereo_status>  (185) 
1

>  <s_m_source_file>  (185) 
/var/tmp/pbs.5076255.sched01/tmp8yzwbncg/40d_vk9m1l.sdf

>  <i_m_source_file_index>  (185) 
36

>  <i_lp_mmshare_version>  (185) 
48012

>  <i_f3d_flags>  (185) 
0

>  <s_epik_input>  (185) 
W0NIM11DKD1bQ0hdMSlbQ0gyXVtDQEBdMihbT0hdKVtDQEBIXTFbQ0gyXVtDQEBIXShbT0hdKVtDQEhdKFtDQF0yMzQpW0NAXTUoW0NIM10pQyg9W0NIXVtDQEBIXTNbQ0BIXTZbQ0BAXShbQ0gzXSkoW0NIMl00KUMoPU8pW0NIXT1bQ0hdNilbQ0gyXUMoPU8pT1tDQEhdNWM3W2NIXVtjSF1vW2NIXTc=

>  <s_epik_cmdline>  (185) 
J2VwaWtfcHl0aG9uJywgJy1waHQnLCAnMi4wJywgJy1waCcsICc3LjAnLCAnLXRuJywgJzgnLCAnLW1hJywgJzIwMCcsICctaW1hZScsICc8aW5maWxlLm1hZT4nLCAnLW9tYWUnLCAnPG91dGZpbGUubWFlPic=

>  <r_lp_tautomer_probability>  (185) 
1

>  <r_epik_Ionization_Penalty>  (185) 
2.17068e-07

>  <r_epik_Ionization_Penalty_Charging>  (185) 
0

>  <r_epik_Ionization_Penalty_Neutral>  (185) 
2.17068e-07

>  <r_epik_State_Penalty>  (185) 
-0

>  <r_epik_Charging_Adjusted_Penalty>  (185) 
0

>  <i_epik_Tot_Q>  (185) 
0

>  <i_epik_Tot_abs_Q>  (185) 
0

>  <s_epik_Chemistry_Notes>  (185) 
This compound has an ester and may undergo hydrolysis at high or low pH.

>  <s_lp_Force_Field>  (185) 
OPLS3e

>  <r_lp_Energy>  (185) 
61.7658

>  <b_lp_Chiralities_Consistent>  (185) 
1

>  <s_lp_Variant>  (185) 
55:0-1

>  <s_i_glide_gridfile>  (185) 
pfpi4k_grid

>  <i_i_glide_lignum>  (185) 
36

>  <i_i_glide_rotatable_bonds>  (185) 
3

>  <r_i_docking_score>  (185) 
-2.68593

>  <r_i_glide_ligand_efficiency>  (185) 
-0.0767408

>  <r_i_glide_ligand_efficiency_sa>  (185) 
-0.251024

>  <r_i_glide_ligand_efficiency_ln>  (185) 
-0.589621

>  <r_i_glide_gscore>  (185) 
-2.68593

>  <r_i_glide_lipo>  (185) 
-0.502035

>  <r_i_glide_hbond>  (185) 
-0.179612

>  <r_i_glide_metal>  (185) 
-0

>  <r_i_glide_rewards>  (185) 
-0.159813

>  <r_i_glide_evdw>  (185) 
-32.0993

>  <r_i_glide_ecoul>  (185) 
-2.18925

>  <r_i_glide_erotb>  (185) 
0.0891667

>  <r_i_glide_esite>  (185) 
-0.000284657

>  <r_i_glide_emodel>  (185) 
-39.6284

>  <r_i_glide_energy>  (185) 
-34.2885

>  <r_i_glide_einternal>  (185) 
0.206194

>  <r_i_glide_intrahb_reward>  (185) 
-0

>  <i_i_glide_confnum>  (185) 
1

>  <i_i_glide_posenum>  (185) 
3

>  <r_i_glide_eff_state_penalty>  (185) 
0

>  <ligand_id>  (185) 
55

>  <original_smiles>  (185) 
CC1=CC2CC(O)C3C4(C)C(=CC5C6C=CC(=O)C6(C)CC53C2(O)C1)CC(=O)OC4c1ccoc1

>  <smiles>  (185) 
[H]OC1([H])C([H])([H])C2([H])C([H])=C(C([H])([H])[H])C([H])([H])C2(O[H])C23C([H])([H])C4(C([H])([H])[H])C(=O)C([H])=C([H])C4([H])C2([H])C([H])=C2C([H])([H])C(=O)OC([H])(c4c([H])oc([H])c4[H])C2(C([H])([H])[H])C13[H]

$$$$
55:0:2
     RDKit          3D

 67 73  0  0  1  0  0  0  0  0999 V2000
    7.3320   -2.4416   -0.1850 C   0  0  0  0  0  0  0  0  0  0  0  0
    6.1403   -3.3456    0.0340 C   0  0  0  0  0  0  0  0  0  0  0  0
    6.1476   -4.6656    0.1529 C   0  0  0  0  0  0  0  0  0  0  0  0
    4.7616   -5.2176    0.3085 C   0  0  1  0  0  0  0  0  0  0  0  0
    4.6339   -6.3086    1.3528 C   0  0  0  0  0  0  0  0  0  0  0  0
    3.1451   -6.5023    1.6149 C   0  0  1  0  0  0  0  0  0  0  0  0
    3.0125   -7.8317    2.0403 O   0  0  0  0  0  0  0  0  0  0  0  0
    2.4673   -5.3083    2.4064 C   0  0  1  0  0  0  0  0  0  0  0  0
    2.1872   -5.5427    3.9584 C   0  0  2  0  0  0  0  0  0  0  0  0
    1.1870   -4.4954    4.5200 C   0  0  0  0  0  0  0  0  0  0  0  0
    3.5023   -5.3485    4.7056 C   0  0  0  0  0  0  0  0  0  0  0  0
    4.3938   -4.4105    4.3308 C   0  0  0  0  0  0  0  0  0  0  0  0
    4.2707   -3.4917    3.1149 C   0  0  2  0  0  0  0  0  0  0  0  0
    4.1487   -1.9652    3.4243 C   0  0  2  0  0  0  0  0  0  0  0  0
    4.0812   -1.5504    4.8801 C   0  0  0  0  0  0  0  0  0  0  0  0
    2.9191   -0.9971    5.2238 C   0  0  0  0  0  0  0  0  0  0  0  0
    2.0319   -1.0512    4.0725 C   0  0  0  0  0  0  0  0  0  0  0  0
    0.8268   -0.7955    4.0550 O   0  0  0  0  0  0  0  0  0  0  0  0
    2.8161   -1.4637    2.8264 C   0  0  1  0  0  0  0  0  0  0  0  0
    2.9647   -0.1930    1.9571 C   0  0  0  0  0  0  0  0  0  0  0  0
    2.2158   -2.6727    2.0669 C   0  0  0  0  0  0  0  0  0  0  0  0
    3.1974   -3.9078    2.0463 C   0  0  2  0  0  0  0  0  0  0  0  0
    3.8408   -3.9869    0.5707 C   0  0  2  0  0  0  0  0  0  0  0  0
    2.7615   -4.1213   -0.3486 O   0  0  0  0  0  0  0  0  0  0  0  0
    4.7460   -2.7866    0.1363 C   0  0  0  0  0  0  0  0  0  0  0  0
    3.8137   -6.3173    5.8460 C   0  0  0  0  0  0  0  0  0  0  0  0
    2.5603   -6.7887    6.5812 C   0  0  0  0  0  0  0  0  0  0  0  0
    2.5628   -6.9378    7.7976 O   0  0  0  0  0  0  0  0  0  0  0  0
    1.4855   -7.0241    5.7937 O   0  0  0  0  0  0  0  0  0  0  0  0
    1.5865   -6.9430    4.3704 C   0  0  1  0  0  0  0  0  0  0  0  0
    0.2746   -7.3584    3.7032 C   0  0  0  0  0  0  0  0  0  0  0  0
   -1.0390   -7.2663    4.2732 C   0  0  0  0  0  0  0  0  0  0  0  0
   -1.9033   -7.8150    3.3639 C   0  0  0  0  0  0  0  0  0  0  0  0
   -1.2454   -8.2307    2.2598 O   0  0  0  0  0  0  0  0  0  0  0  0
    0.0641   -7.9565    2.4847 C   0  0  0  0  0  0  0  0  0  0  0  0
    7.4091   -1.7287    0.6357 H   0  0  0  0  0  0  0  0  0  0  0  0
    7.2024   -1.8945   -1.1163 H   0  0  0  0  0  0  0  0  0  0  0  0
    8.2628   -3.0086   -0.2412 H   0  0  0  0  0  0  0  0  0  0  0  0
    7.0191   -5.3002    0.0910 H   0  0  0  0  0  0  0  0  0  0  0  0
    4.5458   -5.6611   -0.6668 H   0  0  0  0  0  0  0  0  0  0  0  0
    5.0807   -7.2161    0.9462 H   0  0  0  0  0  0  0  0  0  0  0  0
    5.1729   -6.0775    2.2711 H   0  0  0  0  0  0  0  0  0  0  0  0
    2.6537   -6.5200    0.6407 H   0  0  0  0  0  0  0  0  0  0  0  0
    3.4852   -7.9421    2.8521 H   0  0  0  0  0  0  0  0  0  0  0  0
    1.4700   -5.2461    1.9705 H   0  0  0  0  0  0  0  0  0  0  0  0
    0.3163   -4.3573    3.8822 H   0  0  0  0  0  0  0  0  0  0  0  0
    1.6786   -3.5439    4.6593 H   0  0  0  0  0  0  0  0  0  0  0  0
    0.8004   -4.7311    5.5123 H   0  0  0  0  0  0  0  0  0  0  0  0
    5.3265   -4.3397    4.8724 H   0  0  0  0  0  0  0  0  0  0  0  0
    5.2500   -3.6365    2.6721 H   0  0  0  0  0  0  0  0  0  0  0  0
    4.9877   -1.4201    2.9828 H   0  0  0  0  0  0  0  0  0  0  0  0
    4.9462   -1.5951    5.5264 H   0  0  0  0  0  0  0  0  0  0  0  0
    2.6699   -0.5400    6.1709 H   0  0  0  0  0  0  0  0  0  0  0  0
    3.6123   -0.3135    1.0964 H   0  0  0  0  0  0  0  0  0  0  0  0
    3.3718    0.6331    2.5364 H   0  0  0  0  0  0  0  0  0  0  0  0
    2.0019    0.1308    1.5686 H   0  0  0  0  0  0  0  0  0  0  0  0
    1.2501   -2.9291    2.4824 H   0  0  0  0  0  0  0  0  0  0  0  0
    1.9508   -2.3371    1.0658 H   0  0  0  0  0  0  0  0  0  0  0  0
    3.1049   -4.3928   -1.1910 H   0  0  0  0  0  0  0  0  0  0  0  0
    4.7989   -1.9955    0.8641 H   0  0  0  0  0  0  0  0  0  0  0  0
    4.4523   -2.3603   -0.8231 H   0  0  0  0  0  0  0  0  0  0  0  0
    4.3258   -7.1966    5.4530 H   0  0  0  0  0  0  0  0  0  0  0  0
    4.4705   -5.8393    6.5713 H   0  0  0  0  0  0  0  0  0  0  0  0
    2.2904   -7.7394    4.1495 H   0  0  0  0  0  0  0  0  0  0  0  0
   -1.3119   -6.8932    5.2471 H   0  0  0  0  0  0  0  0  0  0  0  0
   -2.9657   -8.0006    3.3421 H   0  0  0  0  0  0  0  0  0  0  0  0
    0.6918   -8.3138    1.6737 H   0  0  0  0  0  0  0  0  0  0  0  0
  1  2  1  0
  1 36  1  0
  1 37  1  0
  1 38  1  0
  2 25  1  0
  2  3  2  0
  3  4  1  0
  3 39  1  0
  4 23  1  0
  4  5  1  0
  4 40  1  6
  5  6  1  0
  5 41  1  0
  5 42  1  0
  6  7  1  0
  6  8  1  0
  6 43  1  6
  7 44  1  0
  8 22  1  0
  8  9  1  0
  8 45  1  6
  9 30  1  0
  9 10  1  1
  9 11  1  0
 10 46  1  0
 10 47  1  0
 10 48  1  0
 11 12  2  0
 11 26  1  0
 12 13  1  0
 12 49  1  0
 13 22  1  0
 13 14  1  0
 13 50  1  6
 14 19  1  0
 14 15  1  0
 14 51  1  6
 15 16  2  0
 15 52  1  0
 16 17  1  0
 16 53  1  0
 17 18  2  0
 17 19  1  0
 19 20  1  6
 19 21  1  0
 20 54  1  0
 20 55  1  0
 20 56  1  0
 22 21  1  6
 21 57  1  0
 21 58  1  0
 22 23  1  0
 23 24  1  6
 23 25  1  0
 24 59  1  0
 25 60  1  0
 25 61  1  0
 26 27  1  0
 26 62  1  0
 26 63  1  0
 27 28  2  0
 27 29  1  0
 29 30  1  0
 30 31  1  0
 30 64  1  6
 31 35  2  0
 31 32  1  0
 32 33  2  0
 32 65  1  0
 33 34  1  0
 33 66  1  0
 34 35  1  0
 35 67  1  0
M  END
>  <i_m_ct_stereo_status>  (186) 
1

>  <s_m_source_file>  (186) 
/var/tmp/pbs.5076255.sched01/tmp8yzwbncg/40d_vk9m1l.sdf

>  <i_m_source_file_index>  (186) 
36

>  <i_lp_mmshare_version>  (186) 
48012

>  <i_f3d_flags>  (186) 
0

>  <s_epik_input>  (186) 
W0NIM11DKD1bQ0hdMSlbQ0gyXVtDQEBdMihbT0hdKVtDQEBIXTFbQ0gyXVtDQEBIXShbT0hdKVtDQEhdKFtDQF0yMzQpW0NAXTUoW0NIM10pQyg9W0NIXVtDQEBIXTNbQ0BIXTZbQ0BAXShbQ0gzXSkoW0NIMl00KUMoPU8pW0NIXT1bQ0hdNilbQ0gyXUMoPU8pT1tDQEhdNWM3W2NIXVtjSF1vW2NIXTc=

>  <s_epik_cmdline>  (186) 
J2VwaWtfcHl0aG9uJywgJy1waHQnLCAnMi4wJywgJy1waCcsICc3LjAnLCAnLXRuJywgJzgnLCAnLW1hJywgJzIwMCcsICctaW1hZScsICc8aW5maWxlLm1hZT4nLCAnLW9tYWUnLCAnPG91dGZpbGUubWFlPic=

>  <r_lp_tautomer_probability>  (186) 
1

>  <r_epik_Ionization_Penalty>  (186) 
2.17068e-07

>  <r_epik_Ionization_Penalty_Charging>  (186) 
0

>  <r_epik_Ionization_Penalty_Neutral>  (186) 
2.17068e-07

>  <r_epik_State_Penalty>  (186) 
-0

>  <r_epik_Charging_Adjusted_Penalty>  (186) 
0

>  <i_epik_Tot_Q>  (186) 
0

>  <i_epik_Tot_abs_Q>  (186) 
0

>  <s_epik_Chemistry_Notes>  (186) 
This compound has an ester and may undergo hydrolysis at high or low pH.

>  <s_lp_Force_Field>  (186) 
OPLS3e

>  <r_lp_Energy>  (186) 
61.7658

>  <b_lp_Chiralities_Consistent>  (186) 
1

>  <s_lp_Variant>  (186) 
55:0-1

>  <s_i_glide_gridfile>  (186) 
pfpi4k_grid

>  <i_i_glide_lignum>  (186) 
36

>  <i_i_glide_rotatable_bonds>  (186) 
3

>  <r_i_docking_score>  (186) 
-2.33085

>  <r_i_glide_ligand_efficiency>  (186) 
-0.0665956

>  <r_i_glide_ligand_efficiency_sa>  (186) 
-0.217839

>  <r_i_glide_ligand_efficiency_ln>  (186) 
-0.511672

>  <r_i_glide_gscore>  (186) 
-2.33085

>  <r_i_glide_lipo>  (186) 
-0.377494

>  <r_i_glide_hbond>  (186) 
-0.127059

>  <r_i_glide_metal>  (186) 
-0

>  <r_i_glide_rewards>  (186) 
-0.159813

>  <r_i_glide_evdw>  (186) 
-32.0124

>  <r_i_glide_ecoul>  (186) 
-1.03105

>  <r_i_glide_erotb>  (186) 
0.0891667

>  <r_i_glide_esite>  (186) 
-0.000370506

>  <r_i_glide_emodel>  (186) 
-37.4077

>  <r_i_glide_energy>  (186) 
-33.0434

>  <r_i_glide_einternal>  (186) 
0.311312

>  <r_i_glide_intrahb_reward>  (186) 
-0

>  <i_i_glide_confnum>  (186) 
4

>  <i_i_glide_posenum>  (186) 
10

>  <r_i_glide_eff_state_penalty>  (186) 
0

>  <ligand_id>  (186) 
55

>  <original_smiles>  (186) 
CC1=CC2CC(O)C3C4(C)C(=CC5C6C=CC(=O)C6(C)CC53C2(O)C1)CC(=O)OC4c1ccoc1

>  <smiles>  (186) 
[H]OC1([H])C([H])([H])C2([H])C([H])=C(C([H])([H])[H])C([H])([H])C2(O[H])C23C([H])([H])C4(C([H])([H])[H])C(=O)C([H])=C([H])C4([H])C2([H])C([H])=C2C([H])([H])C(=O)OC([H])(c4c([H])oc([H])c4[H])C2(C([H])([H])[H])C13[H]

$$$$
56:0:0
     RDKit          3D

 74 80  0  0  1  0  0  0  0  0999 V2000
    3.2491    3.2040    4.5228 C   0  0  0  0  0  0  0  0  0  0  0  0
    2.2616    2.0154    4.3058 C   0  0  1  0  0  0  0  0  0  0  0  0
    1.4519    1.7290    5.6202 C   0  0  0  0  0  0  0  0  0  0  0  0
    0.5244    2.8769    6.1004 C   0  0  0  0  0  0  0  0  0  0  0  0
   -0.3191    3.4770    4.9775 C   0  0  0  0  0  0  0  0  0  0  0  0
   -1.5030    3.7683    5.1282 O   0  0  0  0  0  0  0  0  0  0  0  0
    0.4184    3.7410    3.6766 C   0  0  0  0  0  0  0  0  0  0  0  0
    1.1638    2.4694    3.3029 C   0  0  0  0  0  0  0  0  0  0  0  0
    0.7625    1.7452    2.2329 C   0  0  0  0  0  0  0  0  0  0  0  0
    1.2837    0.3729    1.8570 C   0  0  0  0  0  0  0  0  0  0  0  0
    2.0341   -0.2574    3.0294 C   0  0  1  0  0  0  0  0  0  0  0  0
    2.9912   -1.4056    2.7038 C   0  0  2  0  0  0  0  0  0  0  0  0
    4.3390   -0.6765    2.5957 C   0  0  2  0  0  0  0  0  0  0  0  0
    5.5478   -0.8185    1.5666 C   0  0  0  0  0  0  0  0  0  0  0  0
    5.6960   -2.1321    0.7980 C   0  0  1  0  0  0  0  0  0  0  0  0
    5.8369   -3.0887    1.8080 O   0  0  0  0  0  0  0  0  0  0  0  0
    6.4284   -4.2548    1.6768 C   0  0  0  0  0  0  0  0  0  0  0  0
    7.1483   -4.6328    0.7515 O   0  0  0  0  0  0  0  0  0  0  0  0
    6.0258   -5.1290    2.8514 C   0  0  0  0  0  0  0  0  0  0  0  0
    4.5092   -5.0354    3.1921 C   0  0  0  0  0  0  0  0  0  0  0  0
    3.8365   -3.6782    3.6580 C   0  0  1  0  0  0  0  0  0  0  0  0
    4.5477   -2.7625    4.7598 C   0  0  1  0  0  0  0  0  0  0  0  0
    5.4783   -3.5420    5.4821 O   0  0  0  0  0  0  0  0  0  0  0  0
    5.2544   -1.3778    4.3861 C   0  0  0  0  0  0  0  0  0  0  0  0
    4.5196    0.0675    4.0199 C   0  0  1  0  0  0  0  0  0  0  0  0
    4.0145    0.0195    5.5251 C   0  0  0  0  0  0  0  0  0  0  0  0
    3.0437    0.7729    3.6477 C   0  0  2  0  0  0  0  0  0  0  0  0
    2.7852   -2.9510    2.6802 C   0  0  1  0  0  0  0  0  0  0  0  0
    1.3765   -3.2215    3.2944 C   0  0  0  0  0  0  0  0  0  0  0  0
    2.6045   -3.4713    1.2151 C   0  0  0  0  0  0  0  0  0  0  0  0
    3.7029   -3.6355    0.1542 C   0  0  0  0  0  0  0  0  0  0  0  0
    4.5397   -2.4049   -0.1577 C   0  0  1  0  0  0  0  0  0  0  0  0
    4.0153   -1.3445   -1.0872 C   0  0  0  0  0  0  0  0  0  0  0  0
    4.9504   -2.3279   -1.5333 O   0  0  0  0  0  0  0  0  0  0  0  0
    4.1380    2.9337    5.0840 H   0  0  0  0  0  0  0  0  0  0  0  0
    2.7911    4.0319    5.0655 H   0  0  0  0  0  0  0  0  0  0  0  0
    3.5942    3.6145    3.5711 H   0  0  0  0  0  0  0  0  0  0  0  0
    0.8300    0.8485    5.4669 H   0  0  0  0  0  0  0  0  0  0  0  0
    2.0905    1.4995    6.4683 H   0  0  0  0  0  0  0  0  0  0  0  0
   -0.1364    2.5179    6.8905 H   0  0  0  0  0  0  0  0  0  0  0  0
    1.1160    3.6834    6.5311 H   0  0  0  0  0  0  0  0  0  0  0  0
   -0.2928    4.0009    2.8925 H   0  0  0  0  0  0  0  0  0  0  0  0
    1.0945    4.5870    3.7786 H   0  0  0  0  0  0  0  0  0  0  0  0
   -0.0294    2.1203    1.6001 H   0  0  0  0  0  0  0  0  0  0  0  0
    0.4328   -0.2582    1.5994 H   0  0  0  0  0  0  0  0  0  0  0  0
    1.8991    0.4657    0.9617 H   0  0  0  0  0  0  0  0  0  0  0  0
    1.2803   -0.5363    3.7740 H   0  0  0  0  0  0  0  0  0  0  0  0
    2.8997   -1.5398    3.7616 H   0  0  0  0  0  0  0  0  0  0  0  0
    3.9729   -0.0266    1.8065 H   0  0  0  0  0  0  0  0  0  0  0  0
    5.5658   -0.0077    0.8347 H   0  0  0  0  0  0  0  0  0  0  0  0
    6.5009   -0.6304    2.0565 H   0  0  0  0  0  0  0  0  0  0  0  0
    6.6130   -2.0950    0.2091 H   0  0  0  0  0  0  0  0  0  0  0  0
    6.2914   -6.1602    2.6181 H   0  0  0  0  0  0  0  0  0  0  0  0
    6.6199   -4.8526    3.7206 H   0  0  0  0  0  0  0  0  0  0  0  0
    3.9383   -5.4761    2.3750 H   0  0  0  0  0  0  0  0  0  0  0  0
    4.3767   -5.7590    3.9999 H   0  0  0  0  0  0  0  0  0  0  0  0
    3.1608   -4.1763    4.3521 H   0  0  0  0  0  0  0  0  0  0  0  0
    3.7924   -2.5487    5.5145 H   0  0  0  0  0  0  0  0  0  0  0  0
    5.0289   -4.2893    5.8438 H   0  0  0  0  0  0  0  0  0  0  0  0
    5.9893   -1.1780    5.1700 H   0  0  0  0  0  0  0  0  0  0  0  0
    6.0358   -1.6801    3.7138 H   0  0  0  0  0  0  0  0  0  0  0  0
    4.0332    1.0262    5.9225 H   0  0  0  0  0  0  0  0  0  0  0  0
    4.6098   -0.4244    6.3280 H   0  0  0  0  0  0  0  0  0  0  0  0
    3.0281   -0.4238    5.6649 H   0  0  0  0  0  0  0  0  0  0  0  0
    3.3728    1.4423    2.8434 H   0  0  0  0  0  0  0  0  0  0  0  0
    1.1143   -4.2817    3.2710 H   0  0  0  0  0  0  0  0  0  0  0  0
    0.6087   -2.6791    2.7492 H   0  0  0  0  0  0  0  0  0  0  0  0
    1.2895   -2.9083    4.3376 H   0  0  0  0  0  0  0  0  0  0  0  0
    2.1098   -4.4436    1.2558 H   0  0  0  0  0  0  0  0  0  0  0  0
    1.8718   -2.8044    0.7540 H   0  0  0  0  0  0  0  0  0  0  0  0
    4.3030   -4.5216    0.3252 H   0  0  0  0  0  0  0  0  0  0  0  0
    3.1863   -3.8981   -0.7694 H   0  0  0  0  0  0  0  0  0  0  0  0
    3.0067   -1.4567   -1.4689 H   0  0  0  0  0  0  0  0  0  0  0  0
    4.4058   -0.3337   -1.0354 H   0  0  0  0  0  0  0  0  0  0  0  0
  2  1  1  1
  1 35  1  0
  1 36  1  0
  1 37  1  0
  2  8  1  0
  2 27  1  0
  2  3  1  0
  3  4  1  0
  3 38  1  0
  3 39  1  0
  4  5  1  0
  4 40  1  0
  4 41  1  0
  5  6  2  0
  5  7  1  0
  7  8  1  0
  7 42  1  0
  7 43  1  0
  8  9  2  0
  9 10  1  0
  9 44  1  0
 10 11  1  0
 10 45  1  0
 10 46  1  0
 11 27  1  0
 11 12  1  0
 11 47  1  1
 12 28  1  0
 12 13  1  0
 12 48  1  6
 13 25  1  0
 13 14  1  0
 13 49  1  6
 14 15  1  0
 14 50  1  0
 14 51  1  0
 15 32  1  0
 15 16  1  0
 15 52  1  6
 16 17  1  0
 17 18  2  0
 17 19  1  0
 19 20  1  0
 19 53  1  0
 19 54  1  0
 20 21  1  0
 20 55  1  0
 20 56  1  0
 21 22  1  0
 21 28  1  0
 21 57  1  1
 22 23  1  0
 22 24  1  0
 22 58  1  1
 23 59  1  0
 24 25  1  0
 24 60  1  0
 24 61  1  0
 25 26  1  1
 25 27  1  0
 26 62  1  0
 26 63  1  0
 26 64  1  0
 27 65  1  6
 28 29  1  1
 28 30  1  0
 29 66  1  0
 29 67  1  0
 29 68  1  0
 30 31  1  0
 30 69  1  0
 30 70  1  0
 31 32  1  0
 31 71  1  0
 31 72  1  0
 32 34  1  6
 32 33  1  0
 33 34  1  0
 33 73  1  0
 33 74  1  0
M  END
>  <i_m_ct_stereo_status>  (187) 
1

>  <s_m_source_file>  (187) 
/var/tmp/pbs.5076255.sched01/tmp8yzwbncg/40d_vk9m1l.sdf

>  <i_m_source_file_index>  (187) 
37

>  <i_lp_mmshare_version>  (187) 
48012

>  <i_f3d_flags>  (187) 
0

>  <s_epik_input>  (187) 
TzFbQ0gyXVtDQF0xMltDQEhdM1tDSDJdW0NASF00W0NASF01W0NASF02W0NAQEhdKFtDQEBdNyhbQ0gzXSlDKD1bQ0hdW0NIMl02KVtDSDJdQyg9TylbQ0gyXVtDSDJdNylbQ0BdNChbQ0gzXSlbQ0gyXVtDQEhdKFtPSF0pW0NASF0oW0NIMl1bQ0gyXUMoTzMpPU8pW0NAXTUoW0NIM10pW0NIMl1bQ0gyXTI=

>  <s_epik_cmdline>  (187) 
J2VwaWtfcHl0aG9uJywgJy1waHQnLCAnMi4wJywgJy1waCcsICc3LjAnLCAnLXRuJywgJzgnLCAnLW1hJywgJzIwMCcsICctaW1hZScsICc8aW5maWxlLm1hZT4nLCAnLW9tYWUnLCAnPG91dGZpbGUubWFlPic=

>  <r_lp_tautomer_probability>  (187) 
1

>  <r_epik_Ionization_Penalty>  (187) 
6.81932e-07

>  <r_epik_Ionization_Penalty_Charging>  (187) 
0

>  <r_epik_Ionization_Penalty_Neutral>  (187) 
6.81932e-07

>  <r_epik_State_Penalty>  (187) 
-0

>  <r_epik_Charging_Adjusted_Penalty>  (187) 
0

>  <i_epik_Tot_Q>  (187) 
0

>  <i_epik_Tot_abs_Q>  (187) 
0

>  <s_epik_Chemistry_Notes>  (187) 
This compound has an ester and may undergo hydrolysis at high or low pH.

>  <s_lp_Force_Field>  (187) 
OPLS3e

>  <r_lp_Energy>  (187) 
331.501

>  <b_lp_Chiralities_Consistent>  (187) 
1

>  <s_lp_Variant>  (187) 
56:0-1

>  <s_i_glide_gridfile>  (187) 
pfpi4k_grid

>  <i_i_glide_lignum>  (187) 
37

>  <i_i_glide_rotatable_bonds>  (187) 
1

>  <r_i_docking_score>  (187) 
-2.58771

>  <r_i_glide_ligand_efficiency>  (187) 
-0.0761091

>  <r_i_glide_ligand_efficiency_sa>  (187) 
-0.246564

>  <r_i_glide_ligand_efficiency_ln>  (187) 
-0.571698

>  <r_i_glide_gscore>  (187) 
-2.58771

>  <r_i_glide_lipo>  (187) 
-0.406408

>  <r_i_glide_hbond>  (187) 
0

>  <r_i_glide_metal>  (187) 
-0

>  <r_i_glide_rewards>  (187) 
-0.305479

>  <r_i_glide_evdw>  (187) 
-26.6336

>  <r_i_glide_ecoul>  (187) 
-3.50147

>  <r_i_glide_erotb>  (187) 
0

>  <r_i_glide_esite>  (187) 
-0.0189234

>  <r_i_glide_emodel>  (187) 
-34.4298

>  <r_i_glide_energy>  (187) 
-30.135

>  <r_i_glide_einternal>  (187) 
0.334651

>  <r_i_glide_intrahb_reward>  (187) 
-0

>  <i_i_glide_confnum>  (187) 
2

>  <i_i_glide_posenum>  (187) 
12

>  <r_i_glide_eff_state_penalty>  (187) 
0

>  <ligand_id>  (187) 
56

>  <original_smiles>  (187) 
CC12CCC(=O)CC1=CCC1C3C4CC5OC(=O)CCC(C(O)CC4(C)C12)C3(C)CCC51CO1

>  <smiles>  (187) 
[H]OC1([H])C([H])([H])C2(C([H])([H])[H])C3([H])C([H])([H])C4([H])OC(=O)C([H])([H])C([H])([H])C1([H])C(C([H])([H])[H])(C([H])([H])C([H])([H])C41OC1([H])[H])C3([H])C1([H])C([H])([H])C([H])=C3C([H])([H])C(=O)C([H])([H])C([H])([H])C3(C([H])([H])[H])C12[H]

$$$$
56:0:1
     RDKit          3D

 74 80  0  0  1  0  0  0  0  0999 V2000
    3.2484    3.1972    4.5293 C   0  0  0  0  0  0  0  0  0  0  0  0
    2.2611    2.0088    4.3081 C   0  0  1  0  0  0  0  0  0  0  0  0
    1.4479    1.7219    5.6205 C   0  0  0  0  0  0  0  0  0  0  0  0
    0.5189    2.8708    6.1011 C   0  0  0  0  0  0  0  0  0  0  0  0
   -0.3190    3.4751    4.9777 C   0  0  0  0  0  0  0  0  0  0  0  0
   -1.5057    3.7654    5.1265 O   0  0  0  0  0  0  0  0  0  0  0  0
    0.4201    3.7383    3.6788 C   0  0  0  0  0  0  0  0  0  0  0  0
    1.1653    2.4668    3.3030 C   0  0  0  0  0  0  0  0  0  0  0  0
    0.7652    1.7443    2.2325 C   0  0  0  0  0  0  0  0  0  0  0  0
    1.2844    0.3724    1.8551 C   0  0  0  0  0  0  0  0  0  0  0  0
    2.0326   -0.2618    3.0294 C   0  0  1  0  0  0  0  0  0  0  0  0
    2.9891   -1.4096    2.7050 C   0  0  2  0  0  0  0  0  0  0  0  0
    4.3375   -0.6814    2.5992 C   0  0  2  0  0  0  0  0  0  0  0  0
    5.5483   -0.8243    1.5710 C   0  0  0  0  0  0  0  0  0  0  0  0
    5.6967   -2.1361    0.8016 C   0  0  1  0  0  0  0  0  0  0  0  0
    5.8370   -3.0940    1.8104 O   0  0  0  0  0  0  0  0  0  0  0  0
    6.4262   -4.2614    1.6772 C   0  0  0  0  0  0  0  0  0  0  0  0
    7.1463   -4.6382    0.7483 O   0  0  0  0  0  0  0  0  0  0  0  0
    6.0212   -5.1393    2.8437 C   0  0  0  0  0  0  0  0  0  0  0  0
    4.5074   -5.0424    3.1899 C   0  0  0  0  0  0  0  0  0  0  0  0
    3.8356   -3.6848    3.6561 C   0  0  1  0  0  0  0  0  0  0  0  0
    4.5494   -2.7741    4.7605 C   0  0  1  0  0  0  0  0  0  0  0  0
    5.4597   -3.5533    5.5057 O   0  0  0  0  0  0  0  0  0  0  0  0
    5.2517   -1.3858    4.3890 C   0  0  0  0  0  0  0  0  0  0  0  0
    4.5167    0.0596    4.0246 C   0  0  1  0  0  0  0  0  0  0  0  0
    4.0082    0.0097    5.5284 C   0  0  0  0  0  0  0  0  0  0  0  0
    3.0425    0.7681    3.6498 C   0  0  2  0  0  0  0  0  0  0  0  0
    2.7839   -2.9553    2.6788 C   0  0  1  0  0  0  0  0  0  0  0  0
    1.3724   -3.2253    3.2914 C   0  0  0  0  0  0  0  0  0  0  0  0
    2.6026   -3.4717    1.2114 C   0  0  0  0  0  0  0  0  0  0  0  0
    3.7035   -3.6365    0.1520 C   0  0  0  0  0  0  0  0  0  0  0  0
    4.5431   -2.4073   -0.1570 C   0  0  1  0  0  0  0  0  0  0  0  0
    4.0202   -1.3439   -1.0845 C   0  0  0  0  0  0  0  0  0  0  0  0
    4.9557   -2.3290   -1.5309 O   0  0  0  0  0  0  0  0  0  0  0  0
    4.1363    2.9239    5.0929 H   0  0  0  0  0  0  0  0  0  0  0  0
    2.7903    4.0247    5.0730 H   0  0  0  0  0  0  0  0  0  0  0  0
    3.5967    3.6084    3.5793 H   0  0  0  0  0  0  0  0  0  0  0  0
    0.8240    0.8424    5.4644 H   0  0  0  0  0  0  0  0  0  0  0  0
    2.0843    1.4902    6.4705 H   0  0  0  0  0  0  0  0  0  0  0  0
   -0.1424    2.5108    6.8892 H   0  0  0  0  0  0  0  0  0  0  0  0
    1.1118    3.6755    6.5339 H   0  0  0  0  0  0  0  0  0  0  0  0
   -0.2885    4.0010    2.8940 H   0  0  0  0  0  0  0  0  0  0  0  0
    1.0960    4.5834    3.7837 H   0  0  0  0  0  0  0  0  0  0  0  0
   -0.0259    2.1219    1.5981 H   0  0  0  0  0  0  0  0  0  0  0  0
    0.4335   -0.2575    1.5956 H   0  0  0  0  0  0  0  0  0  0  0  0
    1.9033    0.4659    0.9605 H   0  0  0  0  0  0  0  0  0  0  0  0
    1.2769   -0.5404    3.7709 H   0  0  0  0  0  0  0  0  0  0  0  0
    2.8974   -1.5470    3.7621 H   0  0  0  0  0  0  0  0  0  0  0  0
    3.9737   -0.0312    1.8091 H   0  0  0  0  0  0  0  0  0  0  0  0
    5.5678   -0.0113    0.8406 H   0  0  0  0  0  0  0  0  0  0  0  0
    6.5014   -0.6361    2.0614 H   0  0  0  0  0  0  0  0  0  0  0  0
    6.6137   -2.0989    0.2139 H   0  0  0  0  0  0  0  0  0  0  0  0
    6.2814   -6.1712    2.6076 H   0  0  0  0  0  0  0  0  0  0  0  0
    6.6163   -4.8731    3.7142 H   0  0  0  0  0  0  0  0  0  0  0  0
    3.9338   -5.4794    2.3732 H   0  0  0  0  0  0  0  0  0  0  0  0
    4.3697   -5.7642    3.9980 H   0  0  0  0  0  0  0  0  0  0  0  0
    3.1582   -4.1813    4.3520 H   0  0  0  0  0  0  0  0  0  0  0  0
    3.7883   -2.5556    5.5093 H   0  0  0  0  0  0  0  0  0  0  0  0
    6.1265   -3.8857    4.9206 H   0  0  0  0  0  0  0  0  0  0  0  0
    5.9847   -1.1858    5.1739 H   0  0  0  0  0  0  0  0  0  0  0  0
    6.0358   -1.6841    3.7179 H   0  0  0  0  0  0  0  0  0  0  0  0
    4.0270    1.0152    5.9273 H   0  0  0  0  0  0  0  0  0  0  0  0
    4.5998   -0.4365    6.3312 H   0  0  0  0  0  0  0  0  0  0  0  0
    3.0212   -0.4337    5.6647 H   0  0  0  0  0  0  0  0  0  0  0  0
    3.3727    1.4379    2.8477 H   0  0  0  0  0  0  0  0  0  0  0  0
    1.1085   -4.2845    3.2662 H   0  0  0  0  0  0  0  0  0  0  0  0
    0.6066   -2.6791    2.7455 H   0  0  0  0  0  0  0  0  0  0  0  0
    1.2845   -2.9141    4.3331 H   0  0  0  0  0  0  0  0  0  0  0  0
    2.1053   -4.4433    1.2490 H   0  0  0  0  0  0  0  0  0  0  0  0
    1.8719   -2.8024    0.7506 H   0  0  0  0  0  0  0  0  0  0  0  0
    4.3022   -4.5252    0.3215 H   0  0  0  0  0  0  0  0  0  0  0  0
    3.1883   -3.8973   -0.7721 H   0  0  0  0  0  0  0  0  0  0  0  0
    3.0126   -1.4544   -1.4690 H   0  0  0  0  0  0  0  0  0  0  0  0
    4.4120   -0.3342   -1.0316 H   0  0  0  0  0  0  0  0  0  0  0  0
  2  1  1  1
  1 35  1  0
  1 36  1  0
  1 37  1  0
  2  8  1  0
  2 27  1  0
  2  3  1  0
  3  4  1  0
  3 38  1  0
  3 39  1  0
  4  5  1  0
  4 40  1  0
  4 41  1  0
  5  6  2  0
  5  7  1  0
  7  8  1  0
  7 42  1  0
  7 43  1  0
  8  9  2  0
  9 10  1  0
  9 44  1  0
 10 11  1  0
 10 45  1  0
 10 46  1  0
 11 27  1  0
 11 12  1  0
 11 47  1  1
 12 28  1  0
 12 13  1  0
 12 48  1  6
 13 25  1  0
 13 14  1  0
 13 49  1  6
 14 15  1  0
 14 50  1  0
 14 51  1  0
 15 32  1  0
 15 16  1  0
 15 52  1  6
 16 17  1  0
 17 18  2  0
 17 19  1  0
 19 20  1  0
 19 53  1  0
 19 54  1  0
 20 21  1  0
 20 55  1  0
 20 56  1  0
 21 22  1  0
 21 28  1  0
 21 57  1  1
 22 23  1  0
 22 24  1  0
 22 58  1  1
 23 59  1  0
 24 25  1  0
 24 60  1  0
 24 61  1  0
 25 26  1  1
 25 27  1  0
 26 62  1  0
 26 63  1  0
 26 64  1  0
 27 65  1  6
 28 29  1  1
 28 30  1  0
 29 66  1  0
 29 67  1  0
 29 68  1  0
 30 31  1  0
 30 69  1  0
 30 70  1  0
 31 32  1  0
 31 71  1  0
 31 72  1  0
 32 34  1  6
 32 33  1  0
 33 34  1  0
 33 73  1  0
 33 74  1  0
M  END
>  <i_m_ct_stereo_status>  (188) 
1

>  <s_m_source_file>  (188) 
/var/tmp/pbs.5076255.sched01/tmp8yzwbncg/40d_vk9m1l.sdf

>  <i_m_source_file_index>  (188) 
37

>  <i_lp_mmshare_version>  (188) 
48012

>  <i_f3d_flags>  (188) 
0

>  <s_epik_input>  (188) 
TzFbQ0gyXVtDQF0xMltDQEhdM1tDSDJdW0NASF00W0NASF01W0NASF02W0NAQEhdKFtDQEBdNyhbQ0gzXSlDKD1bQ0hdW0NIMl02KVtDSDJdQyg9TylbQ0gyXVtDSDJdNylbQ0BdNChbQ0gzXSlbQ0gyXVtDQEhdKFtPSF0pW0NASF0oW0NIMl1bQ0gyXUMoTzMpPU8pW0NAXTUoW0NIM10pW0NIMl1bQ0gyXTI=

>  <s_epik_cmdline>  (188) 
J2VwaWtfcHl0aG9uJywgJy1waHQnLCAnMi4wJywgJy1waCcsICc3LjAnLCAnLXRuJywgJzgnLCAnLW1hJywgJzIwMCcsICctaW1hZScsICc8aW5maWxlLm1hZT4nLCAnLW9tYWUnLCAnPG91dGZpbGUubWFlPic=

>  <r_lp_tautomer_probability>  (188) 
1

>  <r_epik_Ionization_Penalty>  (188) 
6.81932e-07

>  <r_epik_Ionization_Penalty_Charging>  (188) 
0

>  <r_epik_Ionization_Penalty_Neutral>  (188) 
6.81932e-07

>  <r_epik_State_Penalty>  (188) 
-0

>  <r_epik_Charging_Adjusted_Penalty>  (188) 
0

>  <i_epik_Tot_Q>  (188) 
0

>  <i_epik_Tot_abs_Q>  (188) 
0

>  <s_epik_Chemistry_Notes>  (188) 
This compound has an ester and may undergo hydrolysis at high or low pH.

>  <s_lp_Force_Field>  (188) 
OPLS3e

>  <r_lp_Energy>  (188) 
331.501

>  <b_lp_Chiralities_Consistent>  (188) 
1

>  <s_lp_Variant>  (188) 
56:0-1

>  <s_i_glide_gridfile>  (188) 
pfpi4k_grid

>  <i_i_glide_lignum>  (188) 
37

>  <i_i_glide_rotatable_bonds>  (188) 
1

>  <r_i_docking_score>  (188) 
-2.54432

>  <r_i_glide_ligand_efficiency>  (188) 
-0.074833

>  <r_i_glide_ligand_efficiency_sa>  (188) 
-0.24243

>  <r_i_glide_ligand_efficiency_ln>  (188) 
-0.562112

>  <r_i_glide_gscore>  (188) 
-2.54432

>  <r_i_glide_lipo>  (188) 
-0.406332

>  <r_i_glide_hbond>  (188) 
0

>  <r_i_glide_metal>  (188) 
-0

>  <r_i_glide_rewards>  (188) 
-0.305562

>  <r_i_glide_evdw>  (188) 
-26.7056

>  <r_i_glide_ecoul>  (188) 
-3.18833

>  <r_i_glide_erotb>  (188) 
0

>  <r_i_glide_esite>  (188) 
-0.0188981

>  <r_i_glide_emodel>  (188) 
-34.2404

>  <r_i_glide_energy>  (188) 
-29.8939

>  <r_i_glide_einternal>  (188) 
0.0241042

>  <r_i_glide_intrahb_reward>  (188) 
-0

>  <i_i_glide_confnum>  (188) 
2

>  <i_i_glide_posenum>  (188) 
1

>  <r_i_glide_eff_state_penalty>  (188) 
0

>  <ligand_id>  (188) 
56

>  <original_smiles>  (188) 
CC12CCC(=O)CC1=CCC1C3C4CC5OC(=O)CCC(C(O)CC4(C)C12)C3(C)CCC51CO1

>  <smiles>  (188) 
[H]OC1([H])C([H])([H])C2(C([H])([H])[H])C3([H])C([H])([H])C4([H])OC(=O)C([H])([H])C([H])([H])C1([H])C(C([H])([H])[H])(C([H])([H])C([H])([H])C41OC1([H])[H])C3([H])C1([H])C([H])([H])C([H])=C3C([H])([H])C(=O)C([H])([H])C([H])([H])C3(C([H])([H])[H])C12[H]

$$$$
56:0:2
     RDKit          3D

 74 80  0  0  1  0  0  0  0  0999 V2000
   -1.1868    2.5402   10.4682 C   0  0  0  0  0  0  0  0  0  0  0  0
   -0.5989    3.4037    9.3075 C   0  0  1  0  0  0  0  0  0  0  0  0
   -1.6863    4.3981    8.7649 C   0  0  0  0  0  0  0  0  0  0  0  0
   -2.1870    5.4544    9.7808 C   0  0  0  0  0  0  0  0  0  0  0  0
   -1.0546    6.1336   10.5477 C   0  0  0  0  0  0  0  0  0  0  0  0
   -1.0426    7.3429   10.7467 O   0  0  0  0  0  0  0  0  0  0  0  0
    0.0413    5.2156   11.0707 C   0  0  0  0  0  0  0  0  0  0  0  0
    0.4862    4.3462    9.9041 C   0  0  0  0  0  0  0  0  0  0  0  0
    1.7173    4.5239    9.3734 C   0  0  0  0  0  0  0  0  0  0  0  0
    2.2319    3.8713    8.1045 C   0  0  0  0  0  0  0  0  0  0  0  0
    1.0682    3.2838    7.2967 C   0  0  1  0  0  0  0  0  0  0  0  0
    1.4114    2.2238    6.2506 C   0  0  2  0  0  0  0  0  0  0  0  0
    1.1509    0.9149    7.0173 C   0  0  2  0  0  0  0  0  0  0  0  0
    1.9661   -0.4517    7.1102 C   0  0  0  0  0  0  0  0  0  0  0  0
    2.9187   -0.8006    5.9635 C   0  0  1  0  0  0  0  0  0  0  0  0
    2.0657   -0.8443    4.8570 O   0  0  0  0  0  0  0  0  0  0  0  0
    2.2961   -1.5121    3.7513 C   0  0  0  0  0  0  0  0  0  0  0  0
    3.1411   -2.3864    3.5612 O   0  0  0  0  0  0  0  0  0  0  0  0
    1.3771   -0.9771    2.6732 C   0  0  0  0  0  0  0  0  0  0  0  0
    1.2973    0.5813    2.6480 C   0  0  0  0  0  0  0  0  0  0  0  0
    0.7346    1.4154    3.8734 C   0  0  1  0  0  0  0  0  0  0  0  0
   -0.6153    0.9390    4.6017 C   0  0  1  0  0  0  0  0  0  0  0  0
   -1.3770    0.1133    3.7502 O   0  0  0  0  0  0  0  0  0  0  0  0
   -0.6141    0.2439    6.0435 C   0  0  0  0  0  0  0  0  0  0  0  0
   -0.3830    1.0094    7.5055 C   0  0  1  0  0  0  0  0  0  0  0  0
   -1.7487    1.7513    7.1776 C   0  0  0  0  0  0  0  0  0  0  0  0
    0.1142    2.4476    8.2260 C   0  0  2  0  0  0  0  0  0  0  0  0
    1.7421    2.3455    4.7312 C   0  0  1  0  0  0  0  0  0  0  0  0
    1.4493    3.8238    4.3083 C   0  0  0  0  0  0  0  0  0  0  0  0
    3.2867    2.2698    4.4817 C   0  0  0  0  0  0  0  0  0  0  0  0
    4.1349    0.9841    4.5419 C   0  0  0  0  0  0  0  0  0  0  0  0
    4.0821    0.1805    5.8325 C   0  0  1  0  0  0  0  0  0  0  0  0
    4.8967    0.6103    7.0263 C   0  0  0  0  0  0  0  0  0  0  0  0
    5.3436   -0.4298    6.1568 O   0  0  0  0  0  0  0  0  0  0  0  0
   -1.8468    1.7473   10.1288 H   0  0  0  0  0  0  0  0  0  0  0  0
   -1.7778    3.1282   11.1733 H   0  0  0  0  0  0  0  0  0  0  0  0
   -0.4007    2.0612   11.0545 H   0  0  0  0  0  0  0  0  0  0  0  0
   -1.2819    4.9373    7.9091 H   0  0  0  0  0  0  0  0  0  0  0  0
   -2.5816    3.8992    8.4063 H   0  0  0  0  0  0  0  0  0  0  0  0
   -2.7754    6.2158    9.2691 H   0  0  0  0  0  0  0  0  0  0  0  0
   -2.8515    4.9916   10.5109 H   0  0  0  0  0  0  0  0  0  0  0  0
    0.8684    5.8133   11.4519 H   0  0  0  0  0  0  0  0  0  0  0  0
   -0.3328    4.6201   11.9010 H   0  0  0  0  0  0  0  0  0  0  0  0
    2.3971    5.2266    9.8359 H   0  0  0  0  0  0  0  0  0  0  0  0
    2.7368    4.6293    7.5027 H   0  0  0  0  0  0  0  0  0  0  0  0
    2.9756    3.1195    8.3734 H   0  0  0  0  0  0  0  0  0  0  0  0
    0.5246    4.1332    6.8698 H   0  0  0  0  0  0  0  0  0  0  0  0
    0.4250    2.4800    5.9267 H   0  0  0  0  0  0  0  0  0  0  0  0
    1.8689    1.1832    7.7898 H   0  0  0  0  0  0  0  0  0  0  0  0
    2.5387   -0.5349    8.0379 H   0  0  0  0  0  0  0  0  0  0  0  0
    1.2917   -1.2943    7.2535 H   0  0  0  0  0  0  0  0  0  0  0  0
    3.3311   -1.7958    6.1392 H   0  0  0  0  0  0  0  0  0  0  0  0
    1.7360   -1.3348    1.7056 H   0  0  0  0  0  0  0  0  0  0  0  0
    0.3914   -1.4135    2.8171 H   0  0  0  0  0  0  0  0  0  0  0  0
    2.2642    0.9797    2.3416 H   0  0  0  0  0  0  0  0  0  0  0  0
    0.6645    0.8019    1.7844 H   0  0  0  0  0  0  0  0  0  0  0  0
    0.2689    2.1679    3.2358 H   0  0  0  0  0  0  0  0  0  0  0  0
   -1.2438    1.8255    4.6640 H   0  0  0  0  0  0  0  0  0  0  0  0
   -1.9014    0.6528    3.1753 H   0  0  0  0  0  0  0  0  0  0  0  0
   -1.5422   -0.3274    6.1080 H   0  0  0  0  0  0  0  0  0  0  0  0
   -0.0846   -0.6859    5.8995 H   0  0  0  0  0  0  0  0  0  0  0  0
   -2.3091    1.8673    8.0957 H   0  0  0  0  0  0  0  0  0  0  0  0
   -2.5462    1.2706    6.6098 H   0  0  0  0  0  0  0  0  0  0  0  0
   -1.6359    2.7196    6.6896 H   0  0  0  0  0  0  0  0  0  0  0  0
    0.7227    2.0347    9.0381 H   0  0  0  0  0  0  0  0  0  0  0  0
    1.6800    3.9961    3.2538 H   0  0  0  0  0  0  0  0  0  0  0  0
    2.0451    4.5364    4.8829 H   0  0  0  0  0  0  0  0  0  0  0  0
    0.4025    4.1016    4.4379 H   0  0  0  0  0  0  0  0  0  0  0  0
    3.4914    2.6995    3.5003 H   0  0  0  0  0  0  0  0  0  0  0  0
    3.7559    2.9616    5.1845 H   0  0  0  0  0  0  0  0  0  0  0  0
    4.0126    0.3667    3.6606 H   0  0  0  0  0  0  0  0  0  0  0  0
    5.1683    1.3123    4.4375 H   0  0  0  0  0  0  0  0  0  0  0  0
    5.4554    1.5400    6.9584 H   0  0  0  0  0  0  0  0  0  0  0  0
    4.6170    0.2819    8.0196 H   0  0  0  0  0  0  0  0  0  0  0  0
  2  1  1  1
  1 35  1  0
  1 36  1  0
  1 37  1  0
  2  8  1  0
  2 27  1  0
  2  3  1  0
  3  4  1  0
  3 38  1  0
  3 39  1  0
  4  5  1  0
  4 40  1  0
  4 41  1  0
  5  6  2  0
  5  7  1  0
  7  8  1  0
  7 42  1  0
  7 43  1  0
  8  9  2  0
  9 10  1  0
  9 44  1  0
 10 11  1  0
 10 45  1  0
 10 46  1  0
 11 27  1  0
 11 12  1  0
 11 47  1  6
 12 28  1  0
 12 13  1  0
 12 48  1  1
 13 25  1  0
 13 14  1  0
 13 49  1  1
 14 15  1  0
 14 50  1  0
 14 51  1  0
 15 32  1  0
 15 16  1  0
 15 52  1  1
 16 17  1  0
 17 18  2  0
 17 19  1  0
 19 20  1  0
 19 53  1  0
 19 54  1  0
 20 21  1  0
 20 55  1  0
 20 56  1  0
 21 22  1  0
 21 28  1  0
 21 57  1  6
 22 23  1  0
 22 24  1  0
 22 58  1  1
 23 59  1  0
 24 25  1  0
 24 60  1  0
 24 61  1  0
 25 26  1  6
 25 27  1  0
 26 62  1  0
 26 63  1  0
 26 64  1  0
 27 65  1  1
 28 29  1  6
 28 30  1  0
 29 66  1  0
 29 67  1  0
 29 68  1  0
 30 31  1  0
 30 69  1  0
 30 70  1  0
 31 32  1  0
 31 71  1  0
 31 72  1  0
 32 34  1  6
 32 33  1  0
 33 34  1  0
 33 73  1  0
 33 74  1  0
M  END
>  <i_m_ct_stereo_status>  (189) 
1

>  <s_m_source_file>  (189) 
/var/tmp/pbs.5076255.sched01/tmp8yzwbncg/40d_vk9m1l.sdf

>  <i_m_source_file_index>  (189) 
37

>  <i_lp_mmshare_version>  (189) 
48012

>  <i_f3d_flags>  (189) 
0

>  <s_epik_input>  (189) 
TzFbQ0gyXVtDQF0xMltDQEhdM1tDSDJdW0NASF00W0NASF01W0NASF02W0NAQEhdKFtDQEBdNyhbQ0gzXSlDKD1bQ0hdW0NIMl02KVtDSDJdQyg9TylbQ0gyXVtDSDJdNylbQ0BdNChbQ0gzXSlbQ0gyXVtDQEhdKFtPSF0pW0NASF0oW0NIMl1bQ0gyXUMoTzMpPU8pW0NAXTUoW0NIM10pW0NIMl1bQ0gyXTI=

>  <s_epik_cmdline>  (189) 
J2VwaWtfcHl0aG9uJywgJy1waHQnLCAnMi4wJywgJy1waCcsICc3LjAnLCAnLXRuJywgJzgnLCAnLW1hJywgJzIwMCcsICctaW1hZScsICc8aW5maWxlLm1hZT4nLCAnLW9tYWUnLCAnPG91dGZpbGUubWFlPic=

>  <r_lp_tautomer_probability>  (189) 
1

>  <r_epik_Ionization_Penalty>  (189) 
6.81932e-07

>  <r_epik_Ionization_Penalty_Charging>  (189) 
0

>  <r_epik_Ionization_Penalty_Neutral>  (189) 
6.81932e-07

>  <r_epik_State_Penalty>  (189) 
-0

>  <r_epik_Charging_Adjusted_Penalty>  (189) 
0

>  <i_epik_Tot_Q>  (189) 
0

>  <i_epik_Tot_abs_Q>  (189) 
0

>  <s_epik_Chemistry_Notes>  (189) 
This compound has an ester and may undergo hydrolysis at high or low pH.

>  <s_lp_Force_Field>  (189) 
OPLS3e

>  <r_lp_Energy>  (189) 
331.501

>  <b_lp_Chiralities_Consistent>  (189) 
1

>  <s_lp_Variant>  (189) 
56:0-1

>  <s_i_glide_gridfile>  (189) 
pfpi4k_grid

>  <i_i_glide_lignum>  (189) 
37

>  <i_i_glide_rotatable_bonds>  (189) 
1

>  <r_i_docking_score>  (189) 
-1.70468

>  <r_i_glide_ligand_efficiency>  (189) 
-0.0501376

>  <r_i_glide_ligand_efficiency_sa>  (189) 
-0.162426

>  <r_i_glide_ligand_efficiency_ln>  (189) 
-0.376611

>  <r_i_glide_gscore>  (189) 
-1.70468

>  <r_i_glide_lipo>  (189) 
0

>  <r_i_glide_hbond>  (189) 
-0.0962151

>  <r_i_glide_metal>  (189) 
-0

>  <r_i_glide_rewards>  (189) 
-0.220625

>  <r_i_glide_evdw>  (189) 
-22.857

>  <r_i_glide_ecoul>  (189) 
-1.63324

>  <r_i_glide_erotb>  (189) 
0

>  <r_i_glide_esite>  (189) 
0

>  <r_i_glide_emodel>  (189) 
-26.8226

>  <r_i_glide_energy>  (189) 
-24.4903

>  <r_i_glide_einternal>  (189) 
0.87601

>  <r_i_glide_intrahb_reward>  (189) 
-0

>  <i_i_glide_confnum>  (189) 
1

>  <i_i_glide_posenum>  (189) 
9

>  <r_i_glide_eff_state_penalty>  (189) 
0

>  <ligand_id>  (189) 
56

>  <original_smiles>  (189) 
CC12CCC(=O)CC1=CCC1C3C4CC5OC(=O)CCC(C(O)CC4(C)C12)C3(C)CCC51CO1

>  <smiles>  (189) 
[H]OC1([H])C([H])([H])C2(C([H])([H])[H])C3([H])C([H])([H])C4([H])OC(=O)C([H])([H])C([H])([H])C1([H])C(C([H])([H])[H])(C([H])([H])C([H])([H])C41OC1([H])[H])C3([H])C1([H])C([H])([H])C([H])=C3C([H])([H])C(=O)C([H])([H])C([H])([H])C3(C([H])([H])[H])C12[H]

$$$$
57:0:0
     RDKit          3D

 59 63  0  0  1  0  0  0  0  0999 V2000
   -1.6381   -9.2298    2.2344 C   0  0  0  0  0  0  0  0  0  0  0  0
   -0.3706   -8.6278    2.0768 O   0  0  0  0  0  0  0  0  0  0  0  0
   -0.1371   -7.3962    2.5471 C   0  0  0  0  0  0  0  0  0  0  0  0
   -1.0125   -6.6638    3.0057 O   0  0  0  0  0  0  0  0  0  0  0  0
    1.2932   -6.9922    2.3985 C   0  0  0  0  0  0  0  0  0  0  0  0
    1.6324   -5.7138    2.7052 C   0  0  0  0  0  0  0  0  0  0  0  0
    1.3794   -5.4544    4.0258 O   0  0  0  0  0  0  0  0  0  0  0  0
    2.6191   -5.6349    4.7374 C   0  0  1  0  0  0  0  0  0  0  0  0
    3.0079   -4.2878    5.4331 C   0  0  0  0  0  0  0  0  0  0  0  0
    1.8940   -3.6118    6.2388 C   0  0  0  0  0  0  0  0  0  0  0  0
    1.7096   -3.9810    7.5840 C   0  0  0  0  0  0  0  0  0  0  0  0
    0.6921   -3.3656    8.3305 C   0  0  0  0  0  0  0  0  0  0  0  0
   -0.1270   -2.4252    7.8183 N   0  0  0  0  0  0  0  0  0  0  0  0
    0.0308   -2.0217    6.5425 C   0  0  0  0  0  0  0  0  0  0  0  0
   -0.8000   -1.0665    6.0718 N   0  0  0  0  0  0  0  0  0  0  0  0
   -0.6640   -0.6180    4.8069 C   0  0  0  0  0  0  0  0  0  0  0  0
    0.3019   -1.1254    3.9258 C   0  0  0  0  0  0  0  0  0  0  0  0
    1.1600   -2.1378    4.3782 C   0  0  0  0  0  0  0  0  0  0  0  0
    1.0429   -2.5967    5.7125 C   0  0  0  0  0  0  0  0  0  0  0  0
    2.4560   -6.7699    5.7601 C   0  0  0  0  0  0  0  0  0  0  0  0
    1.3513   -7.2452    6.0294 O   0  0  0  0  0  0  0  0  0  0  0  0
    3.6171   -7.1342    6.3281 O   0  0  0  0  0  0  0  0  0  0  0  0
    3.6270   -8.1956    7.2652 C   0  0  0  0  0  0  0  0  0  0  0  0
    3.6112   -5.9496    3.5678 C   0  0  1  0  0  0  0  0  0  0  0  0
    3.7884   -7.4031    2.9823 C   0  0  2  0  0  0  0  0  0  0  0  0
    4.8048   -7.3004    1.8177 C   0  0  0  0  0  0  0  0  0  0  0  0
    4.2837   -6.3491    0.7110 C   0  0  0  0  0  0  0  0  0  0  0  0
    3.6883   -5.0522    1.2833 C   0  0  0  0  0  0  0  0  0  0  0  0
    2.9327   -5.2664    2.5175 N   0  0  0  0  0  0  0  0  0  0  0  0
    2.4523   -8.0374    2.4308 C   0  0  1  0  0  0  0  0  0  0  0  0
    2.2181   -9.4021    3.1210 C   0  0  0  0  0  0  0  0  0  0  0  0
    1.4652   -9.5503    4.0839 O   0  0  0  0  0  0  0  0  0  0  0  0
    2.9663  -10.3701    2.5760 O   0  0  0  0  0  0  0  0  0  0  0  0
    2.8344  -11.6990    3.0587 C   0  0  0  0  0  0  0  0  0  0  0  0
   -1.5836  -10.2384    1.8308 H   0  0  0  0  0  0  0  0  0  0  0  0
   -2.4138   -8.6933    1.6854 H   0  0  0  0  0  0  0  0  0  0  0  0
   -1.9211   -9.3108    3.2817 H   0  0  0  0  0  0  0  0  0  0  0  0
    3.8434   -4.4512    6.1143 H   0  0  0  0  0  0  0  0  0  0  0  0
    3.4283   -3.5904    4.7094 H   0  0  0  0  0  0  0  0  0  0  0  0
    2.3330   -4.7385    8.0492 H   0  0  0  0  0  0  0  0  0  0  0  0
    0.5214   -3.6354    9.3633 H   0  0  0  0  0  0  0  0  0  0  0  0
   -1.3483    0.1505    4.4821 H   0  0  0  0  0  0  0  0  0  0  0  0
    0.3742   -0.7609    2.9053 H   0  0  0  0  0  0  0  0  0  0  0  0
    1.8840   -2.5486    3.6940 H   0  0  0  0  0  0  0  0  0  0  0  0
    4.6394   -8.3319    7.6436 H   0  0  0  0  0  0  0  0  0  0  0  0
    3.3106   -9.1290    6.7962 H   0  0  0  0  0  0  0  0  0  0  0  0
    2.9729   -7.9851    8.1135 H   0  0  0  0  0  0  0  0  0  0  0  0
    4.5892   -5.5048    3.7703 H   0  0  0  0  0  0  0  0  0  0  0  0
    4.2327   -8.0444    3.7440 H   0  0  0  0  0  0  0  0  0  0  0  0
    5.7584   -6.9285    2.1944 H   0  0  0  0  0  0  0  0  0  0  0  0
    5.0089   -8.2858    1.3940 H   0  0  0  0  0  0  0  0  0  0  0  0
    5.0717   -6.1125   -0.0050 H   0  0  0  0  0  0  0  0  0  0  0  0
    3.4997   -6.8320    0.1332 H   0  0  0  0  0  0  0  0  0  0  0  0
    4.5009   -4.3608    1.5111 H   0  0  0  0  0  0  0  0  0  0  0  0
    3.0578   -4.5566    0.5465 H   0  0  0  0  0  0  0  0  0  0  0  0
    2.5820   -8.2979    1.3870 H   0  0  0  0  0  0  0  0  0  0  0  0
    3.5237  -12.3604    2.5371 H   0  0  0  0  0  0  0  0  0  0  0  0
    1.8253  -12.0833    2.8990 H   0  0  0  0  0  0  0  0  0  0  0  0
    3.0545  -11.7581    4.1256 H   0  0  0  0  0  0  0  0  0  0  0  0
  1  2  1  0
  1 35  1  0
  1 36  1  0
  1 37  1  0
  2  3  1  0
  3  4  2  0
  3  5  1  0
  5 30  1  0
  5  6  2  0
  6 29  1  0
  6  7  1  0
  7  8  1  0
  8  9  1  1
  8 20  1  0
  8 24  1  0
  9 10  1  0
  9 38  1  0
  9 39  1  0
 10 19  1  0
 10 11  2  0
 11 12  1  0
 11 40  1  0
 12 13  2  0
 12 41  1  0
 13 14  1  0
 14 19  2  0
 14 15  1  0
 15 16  2  0
 16 17  1  0
 16 42  1  0
 17 18  2  0
 17 43  1  0
 18 19  1  0
 18 44  1  0
 20 21  2  0
 20 22  1  0
 22 23  1  0
 23 45  1  0
 23 46  1  0
 23 47  1  0
 24 29  1  0
 24 25  1  0
 24 48  1  1
 25 26  1  0
 25 30  1  0
 25 49  1  1
 26 27  1  0
 26 50  1  0
 26 51  1  0
 27 28  1  0
 27 52  1  0
 27 53  1  0
 28 29  1  0
 28 54  1  0
 28 55  1  0
 30 31  1  0
 30 56  1  6
 31 32  2  0
 31 33  1  0
 33 34  1  0
 34 57  1  0
 34 58  1  0
 34 59  1  0
M  END
>  <i_m_ct_stereo_status>  (190) 
1

>  <s_m_source_file>  (190) 
/var/tmp/pbs.5076255.sched01/tmp8yzwbncg/40d_vk9m1l.sdf

>  <i_m_source_file_index>  (190) 
38

>  <i_lp_mmshare_version>  (190) 
48012

>  <i_f3d_flags>  (190) 
0

>  <s_epik_input>  (190) 
W0NIM11PQyg9TylDPTFbQ0BIXShDKD1PKU9bQ0gzXSlbQ0BASF0oW0NIMl1bQ0gyXVtDSDJdMilbQ0BASF0oTjJDMTMpW0NAQF0oTzMpKEMoPU8pT1tDSDNdKVtDSDJdYyhbY0hdW2NIXW40KWMoYzQ1KVtjSF1bY0hdW2NIXW41

>  <s_epik_cmdline>  (190) 
J2VwaWtfcHl0aG9uJywgJy1waHQnLCAnMi4wJywgJy1waCcsICc3LjAnLCAnLXRuJywgJzgnLCAnLW1hJywgJzIwMCcsICctaW1hZScsICc8aW5maWxlLm1hZT4nLCAnLW9tYWUnLCAnPG91dGZpbGUubWFlPic=

>  <r_lp_tautomer_probability>  (190) 
1

>  <r_epik_Ionization_Penalty>  (190) 
2.45756e-05

>  <r_epik_Ionization_Penalty_Charging>  (190) 
0

>  <r_epik_Ionization_Penalty_Neutral>  (190) 
2.45756e-05

>  <r_epik_State_Penalty>  (190) 
-0

>  <r_epik_Charging_Adjusted_Penalty>  (190) 
0

>  <i_epik_Tot_Q>  (190) 
0

>  <i_epik_Tot_abs_Q>  (190) 
0

>  <s_epik_Chemistry_Notes>  (190) 
This compound has an ester and may undergo hydrolysis at high or low pH.

>  <s_lp_Force_Field>  (190) 
OPLS3e

>  <r_lp_Energy>  (190) 
94.2605

>  <b_lp_Chiralities_Consistent>  (190) 
1

>  <s_lp_Variant>  (190) 
57:0-1

>  <s_i_glide_gridfile>  (190) 
pfpi4k_grid

>  <i_i_glide_lignum>  (190) 
38

>  <i_i_glide_rotatable_bonds>  (190) 
8

>  <r_i_docking_score>  (190) 
-2.77769

>  <r_i_glide_ligand_efficiency>  (190) 
-0.0816966

>  <r_i_glide_ligand_efficiency_sa>  (190) 
-0.264665

>  <r_i_glide_ligand_efficiency_ln>  (190) 
-0.613669

>  <r_i_glide_gscore>  (190) 
-2.77769

>  <r_i_glide_lipo>  (190) 
-0.44459

>  <r_i_glide_hbond>  (190) 
-0.241321

>  <r_i_glide_metal>  (190) 
-0

>  <r_i_glide_rewards>  (190) 
-0.221787

>  <r_i_glide_evdw>  (190) 
-23.5892

>  <r_i_glide_ecoul>  (190) 
-7.01363

>  <r_i_glide_erotb>  (190) 
0.461782

>  <r_i_glide_esite>  (190) 
-0.100266

>  <r_i_glide_emodel>  (190) 
-35.7133

>  <r_i_glide_energy>  (190) 
-30.6028

>  <r_i_glide_einternal>  (190) 
3.41457

>  <r_i_glide_intrahb_reward>  (190) 
-0

>  <i_i_glide_confnum>  (190) 
1

>  <i_i_glide_posenum>  (190) 
22

>  <r_i_glide_eff_state_penalty>  (190) 
0

>  <ligand_id>  (190) 
57

>  <original_smiles>  (190) 
COC(=O)C1=C2OC(Cc3ccnc4ncccc34)(C(=O)OC)C3C(CCCN23)C1C(=O)OC

>  <smiles>  (190) 
[H]c1nc2nc([H])c([H])c(C([H])([H])C3(C(=O)OC([H])([H])[H])OC4=C(C(=O)OC([H])([H])[H])C([H])(C(=O)OC([H])([H])[H])C5([H])C([H])([H])C([H])([H])C([H])([H])N4C35[H])c2c([H])c1[H]

$$$$
57:0:1
     RDKit          3D

 59 63  0  0  1  0  0  0  0  0999 V2000
   -1.9524   -7.8738    2.6930 C   0  0  0  0  0  0  0  0  0  0  0  0
   -0.5789   -8.1754    2.8378 O   0  0  0  0  0  0  0  0  0  0  0  0
    0.3539   -7.4981    2.1353 C   0  0  0  0  0  0  0  0  0  0  0  0
    0.0755   -6.6036    1.3387 O   0  0  0  0  0  0  0  0  0  0  0  0
    1.7415   -7.9943    2.4115 C   0  0  0  0  0  0  0  0  0  0  0  0
    2.7696   -7.5867    1.6267 C   0  0  0  0  0  0  0  0  0  0  0  0
    2.9631   -6.2460    1.7559 O   0  0  0  0  0  0  0  0  0  0  0  0
    3.9963   -6.0723    2.7411 C   0  0  1  0  0  0  0  0  0  0  0  0
    5.1614   -5.2864    2.0622 C   0  0  0  0  0  0  0  0  0  0  0  0
    4.9097   -3.7894    1.7816 C   0  0  0  0  0  0  0  0  0  0  0  0
    5.0185   -2.8875    2.8634 C   0  0  0  0  0  0  0  0  0  0  0  0
    4.7513   -1.5294    2.6430 C   0  0  0  0  0  0  0  0  0  0  0  0
    4.4643   -1.0226    1.4396 N   0  0  0  0  0  0  0  0  0  0  0  0
    4.4117   -1.8382    0.3622 C   0  0  0  0  0  0  0  0  0  0  0  0
    4.1721   -1.2849   -0.8440 N   0  0  0  0  0  0  0  0  0  0  0  0
    4.0851   -2.0647   -1.9354 C   0  0  0  0  0  0  0  0  0  0  0  0
    4.2815   -3.4533   -1.8980 C   0  0  0  0  0  0  0  0  0  0  0  0
    4.5453   -4.0538   -0.6608 C   0  0  0  0  0  0  0  0  0  0  0  0
    4.6272   -3.2553    0.5025 C   0  0  0  0  0  0  0  0  0  0  0  0
    3.4131   -5.3378    3.9600 C   0  0  0  0  0  0  0  0  0  0  0  0
    2.2853   -4.8448    3.9447 O   0  0  0  0  0  0  0  0  0  0  0  0
    4.2902   -5.2503    4.9743 O   0  0  0  0  0  0  0  0  0  0  0  0
    3.9487   -4.4883    6.1181 C   0  0  0  0  0  0  0  0  0  0  0  0
    4.4264   -7.5478    3.0450 C   0  0  1  0  0  0  0  0  0  0  0  0
    3.6761   -8.4249    4.1075 C   0  0  2  0  0  0  0  0  0  0  0  0
    4.3342   -9.8304    4.0973 C   0  0  0  0  0  0  0  0  0  0  0  0
    4.2006  -10.4905    2.6962 C   0  0  0  0  0  0  0  0  0  0  0  0
    4.5181   -9.4988    1.5545 C   0  0  0  0  0  0  0  0  0  0  0  0
    4.0316   -8.1395    1.8032 N   0  0  0  0  0  0  0  0  0  0  0  0
    2.1312   -8.6149    3.7862 C   0  0  1  0  0  0  0  0  0  0  0  0
    1.2610   -8.2473    5.0300 C   0  0  0  0  0  0  0  0  0  0  0  0
    1.1794   -7.0859    5.4188 O   0  0  0  0  0  0  0  0  0  0  0  0
    0.6389   -9.2598    5.6762 O   0  0  0  0  0  0  0  0  0  0  0  0
    0.6880  -10.6084    5.2378 C   0  0  0  0  0  0  0  0  0  0  0  0
   -2.5457   -8.4653    3.3869 H   0  0  0  0  0  0  0  0  0  0  0  0
   -2.2738   -8.1180    1.6856 H   0  0  0  0  0  0  0  0  0  0  0  0
   -2.1463   -6.8241    2.8979 H   0  0  0  0  0  0  0  0  0  0  0  0
    6.0436   -5.3474    2.6951 H   0  0  0  0  0  0  0  0  0  0  0  0
    5.4605   -5.8326    1.1655 H   0  0  0  0  0  0  0  0  0  0  0  0
    5.2720   -3.2106    3.8570 H   0  0  0  0  0  0  0  0  0  0  0  0
    4.7622   -0.8353    3.4779 H   0  0  0  0  0  0  0  0  0  0  0  0
    3.8469   -1.5643   -2.8693 H   0  0  0  0  0  0  0  0  0  0  0  0
    4.2128   -4.0583   -2.7911 H   0  0  0  0  0  0  0  0  0  0  0  0
    4.6779   -5.1249   -0.6441 H   0  0  0  0  0  0  0  0  0  0  0  0
    4.8172   -4.4142    6.7726 H   0  0  0  0  0  0  0  0  0  0  0  0
    3.1381   -4.9757    6.6596 H   0  0  0  0  0  0  0  0  0  0  0  0
    3.6427   -3.4729    5.8532 H   0  0  0  0  0  0  0  0  0  0  0  0
    5.5051   -7.6185    3.1895 H   0  0  0  0  0  0  0  0  0  0  0  0
    3.8275   -8.0014    5.1007 H   0  0  0  0  0  0  0  0  0  0  0  0
    5.3913   -9.7482    4.3585 H   0  0  0  0  0  0  0  0  0  0  0  0
    3.8900  -10.4808    4.8556 H   0  0  0  0  0  0  0  0  0  0  0  0
    4.8415  -11.3705    2.6228 H   0  0  0  0  0  0  0  0  0  0  0  0
    3.2003  -10.8897    2.5285 H   0  0  0  0  0  0  0  0  0  0  0  0
    5.6039   -9.4507    1.4442 H   0  0  0  0  0  0  0  0  0  0  0  0
    4.1193   -9.8542    0.6025 H   0  0  0  0  0  0  0  0  0  0  0  0
    1.9734   -9.6594    3.5263 H   0  0  0  0  0  0  0  0  0  0  0  0
    0.1268  -11.2639    5.9103 H   0  0  0  0  0  0  0  0  0  0  0  0
    1.7210  -10.9625    5.2221 H   0  0  0  0  0  0  0  0  0  0  0  0
    0.2434  -10.6911    4.2425 H   0  0  0  0  0  0  0  0  0  0  0  0
  1  2  1  0
  1 35  1  0
  1 36  1  0
  1 37  1  0
  2  3  1  0
  3  4  2  0
  3  5  1  0
  5 30  1  0
  5  6  2  0
  6 29  1  0
  6  7  1  0
  7  8  1  0
  8  9  1  6
  8 20  1  0
  8 24  1  0
  9 10  1  0
  9 38  1  0
  9 39  1  0
 10 19  1  0
 10 11  2  0
 11 12  1  0
 11 40  1  0
 12 13  2  0
 12 41  1  0
 13 14  1  0
 14 19  2  0
 14 15  1  0
 15 16  2  0
 16 17  1  0
 16 42  1  0
 17 18  2  0
 17 43  1  0
 18 19  1  0
 18 44  1  0
 20 21  2  0
 20 22  1  0
 22 23  1  0
 23 45  1  0
 23 46  1  0
 23 47  1  0
 24 29  1  0
 24 25  1  0
 24 48  1  1
 25 26  1  0
 25 30  1  0
 25 49  1  1
 26 27  1  0
 26 50  1  0
 26 51  1  0
 27 28  1  0
 27 52  1  0
 27 53  1  0
 28 29  1  0
 28 54  1  0
 28 55  1  0
 30 31  1  0
 30 56  1  6
 31 32  2  0
 31 33  1  0
 33 34  1  0
 34 57  1  0
 34 58  1  0
 34 59  1  0
M  END
>  <i_m_ct_stereo_status>  (191) 
1

>  <s_m_source_file>  (191) 
/var/tmp/pbs.5076255.sched01/tmp8yzwbncg/40d_vk9m1l.sdf

>  <i_m_source_file_index>  (191) 
38

>  <i_lp_mmshare_version>  (191) 
48012

>  <i_f3d_flags>  (191) 
0

>  <s_epik_input>  (191) 
W0NIM11PQyg9TylDPTFbQ0BIXShDKD1PKU9bQ0gzXSlbQ0BASF0oW0NIMl1bQ0gyXVtDSDJdMilbQ0BASF0oTjJDMTMpW0NAQF0oTzMpKEMoPU8pT1tDSDNdKVtDSDJdYyhbY0hdW2NIXW40KWMoYzQ1KVtjSF1bY0hdW2NIXW41

>  <s_epik_cmdline>  (191) 
J2VwaWtfcHl0aG9uJywgJy1waHQnLCAnMi4wJywgJy1waCcsICc3LjAnLCAnLXRuJywgJzgnLCAnLW1hJywgJzIwMCcsICctaW1hZScsICc8aW5maWxlLm1hZT4nLCAnLW9tYWUnLCAnPG91dGZpbGUubWFlPic=

>  <r_lp_tautomer_probability>  (191) 
1

>  <r_epik_Ionization_Penalty>  (191) 
2.45756e-05

>  <r_epik_Ionization_Penalty_Charging>  (191) 
0

>  <r_epik_Ionization_Penalty_Neutral>  (191) 
2.45756e-05

>  <r_epik_State_Penalty>  (191) 
-0

>  <r_epik_Charging_Adjusted_Penalty>  (191) 
0

>  <i_epik_Tot_Q>  (191) 
0

>  <i_epik_Tot_abs_Q>  (191) 
0

>  <s_epik_Chemistry_Notes>  (191) 
This compound has an ester and may undergo hydrolysis at high or low pH.

>  <s_lp_Force_Field>  (191) 
OPLS3e

>  <r_lp_Energy>  (191) 
94.2605

>  <b_lp_Chiralities_Consistent>  (191) 
1

>  <s_lp_Variant>  (191) 
57:0-1

>  <s_i_glide_gridfile>  (191) 
pfpi4k_grid

>  <i_i_glide_lignum>  (191) 
38

>  <i_i_glide_rotatable_bonds>  (191) 
8

>  <r_i_docking_score>  (191) 
-2.25094

>  <r_i_glide_ligand_efficiency>  (191) 
-0.0662041

>  <r_i_glide_ligand_efficiency_sa>  (191) 
-0.214476

>  <r_i_glide_ligand_efficiency_ln>  (191) 
-0.497295

>  <r_i_glide_gscore>  (191) 
-2.25094

>  <r_i_glide_lipo>  (191) 
-0.183689

>  <r_i_glide_hbond>  (191) 
-0.191149

>  <r_i_glide_metal>  (191) 
-0

>  <r_i_glide_rewards>  (191) 
-0.221787

>  <r_i_glide_evdw>  (191) 
-32.2955

>  <r_i_glide_ecoul>  (191) 
-2.74361

>  <r_i_glide_erotb>  (191) 
0.461782

>  <r_i_glide_esite>  (191) 
-0.0897804

>  <r_i_glide_emodel>  (191) 
-34.3711

>  <r_i_glide_energy>  (191) 
-35.0391

>  <r_i_glide_einternal>  (191) 
11.3778

>  <r_i_glide_intrahb_reward>  (191) 
-0

>  <i_i_glide_confnum>  (191) 
1

>  <i_i_glide_posenum>  (191) 
14

>  <r_i_glide_eff_state_penalty>  (191) 
0

>  <ligand_id>  (191) 
57

>  <original_smiles>  (191) 
COC(=O)C1=C2OC(Cc3ccnc4ncccc34)(C(=O)OC)C3C(CCCN23)C1C(=O)OC

>  <smiles>  (191) 
[H]c1nc2nc([H])c([H])c(C([H])([H])C3(C(=O)OC([H])([H])[H])OC4=C(C(=O)OC([H])([H])[H])C([H])(C(=O)OC([H])([H])[H])C5([H])C([H])([H])C([H])([H])C([H])([H])N4C35[H])c2c([H])c1[H]

$$$$
57:0:2
     RDKit          3D

 59 63  0  0  1  0  0  0  0  0999 V2000
    2.5444   -2.8835   -2.7279 C   0  0  0  0  0  0  0  0  0  0  0  0
    2.9544   -2.7714   -1.3763 O   0  0  0  0  0  0  0  0  0  0  0  0
    2.6204   -3.7063   -0.4582 C   0  0  0  0  0  0  0  0  0  0  0  0
    1.8420   -4.6491   -0.6825 O   0  0  0  0  0  0  0  0  0  0  0  0
    3.1832   -3.4039    0.8775 C   0  0  0  0  0  0  0  0  0  0  0  0
    2.6157   -4.0098    1.9445 C   0  0  0  0  0  0  0  0  0  0  0  0
    2.7461   -5.3566    1.8725 O   0  0  0  0  0  0  0  0  0  0  0  0
    3.8969   -5.7178    2.6532 C   0  0  1  0  0  0  0  0  0  0  0  0
    3.4455   -6.7055    3.7874 C   0  0  0  0  0  0  0  0  0  0  0  0
    2.6568   -7.9276    3.3278 C   0  0  0  0  0  0  0  0  0  0  0  0
    3.3676   -9.0634    2.8992 C   0  0  0  0  0  0  0  0  0  0  0  0
    2.6475  -10.1932    2.4801 C   0  0  0  0  0  0  0  0  0  0  0  0
    1.3074  -10.2555    2.4840 N   0  0  0  0  0  0  0  0  0  0  0  0
    0.5842   -9.1957    2.8918 C   0  0  0  0  0  0  0  0  0  0  0  0
   -0.7699   -9.2879    2.8731 N   0  0  0  0  0  0  0  0  0  0  0  0
   -1.5163   -8.2627    3.3034 C   0  0  0  0  0  0  0  0  0  0  0  0
   -0.9769   -7.0535    3.7621 C   0  0  0  0  0  0  0  0  0  0  0  0
    0.4203   -6.9116    3.7654 C   0  0  0  0  0  0  0  0  0  0  0  0
    1.2313   -7.9877    3.3353 C   0  0  0  0  0  0  0  0  0  0  0  0
    4.9641   -6.3516    1.7418 C   0  0  0  0  0  0  0  0  0  0  0  0
    4.7559   -6.5580    0.5466 O   0  0  0  0  0  0  0  0  0  0  0  0
    6.0964   -6.6534    2.3971 O   0  0  0  0  0  0  0  0  0  0  0  0
    7.1635   -7.2654    1.6981 C   0  0  0  0  0  0  0  0  0  0  0  0
    4.3051   -4.3365    3.2563 C   0  0  1  0  0  0  0  0  0  0  0  0
    5.2175   -3.3077    2.4887 C   0  0  2  0  0  0  0  0  0  0  0  0
    5.3345   -2.0436    3.3712 C   0  0  0  0  0  0  0  0  0  0  0  0
    3.9479   -1.4093    3.6305 C   0  0  0  0  0  0  0  0  0  0  0  0
    2.8860   -2.4570    3.9998 C   0  0  0  0  0  0  0  0  0  0  0  0
    3.0181   -3.7017    3.2286 N   0  0  0  0  0  0  0  0  0  0  0  0
    4.6498   -2.8789    1.0661 C   0  0  1  0  0  0  0  0  0  0  0  0
    5.6853   -3.1377   -0.0672 C   0  0  0  0  0  0  0  0  0  0  0  0
    6.6522   -3.9014    0.0813 O   0  0  0  0  0  0  0  0  0  0  0  0
    5.4675   -2.4178   -1.1811 O   0  0  0  0  0  0  0  0  0  0  0  0
    6.1421   -2.7690   -2.3733 C   0  0  0  0  0  0  0  0  0  0  0  0
    3.0917   -2.1495   -3.3116 H   0  0  0  0  0  0  0  0  0  0  0  0
    1.4723   -2.6944   -2.8762 H   0  0  0  0  0  0  0  0  0  0  0  0
    2.7915   -3.8588   -3.1547 H   0  0  0  0  0  0  0  0  0  0  0  0
    4.3192   -7.0621    4.3353 H   0  0  0  0  0  0  0  0  0  0  0  0
    2.8927   -6.1592    4.5610 H   0  0  0  0  0  0  0  0  0  0  0  0
    4.4425   -9.0844    2.8773 H   0  0  0  0  0  0  0  0  0  0  0  0
    3.1591  -11.0802    2.1311 H   0  0  0  0  0  0  0  0  0  0  0  0
   -2.5875   -8.4175    3.2887 H   0  0  0  0  0  0  0  0  0  0  0  0
   -1.6173   -6.2763    4.1167 H   0  0  0  0  0  0  0  0  0  0  0  0
    0.8474   -5.9909    4.0996 H   0  0  0  0  0  0  0  0  0  0  0  0
    7.9837   -7.4645    2.3863 H   0  0  0  0  0  0  0  0  0  0  0  0
    7.5339   -6.6117    0.9060 H   0  0  0  0  0  0  0  0  0  0  0  0
    6.8542   -8.2150    1.2578 H   0  0  0  0  0  0  0  0  0  0  0  0
    4.6656   -4.4566    4.2846 H   0  0  0  0  0  0  0  0  0  0  0  0
    6.2089   -3.7327    2.4417 H   0  0  0  0  0  0  0  0  0  0  0  0
    5.7930   -2.3134    4.3170 H   0  0  0  0  0  0  0  0  0  0  0  0
    5.9957   -1.3103    2.9025 H   0  0  0  0  0  0  0  0  0  0  0  0
    4.0134   -0.6574    4.4169 H   0  0  0  0  0  0  0  0  0  0  0  0
    3.6033   -0.8813    2.7420 H   0  0  0  0  0  0  0  0  0  0  0  0
    2.9893   -2.7188    5.0531 H   0  0  0  0  0  0  0  0  0  0  0  0
    1.8854   -2.0619    3.8711 H   0  0  0  0  0  0  0  0  0  0  0  0
    4.5262   -1.7967    1.0409 H   0  0  0  0  0  0  0  0  0  0  0  0
    5.6590   -2.2709   -3.2071 H   0  0  0  0  0  0  0  0  0  0  0  0
    6.0810   -3.8443   -2.5816 H   0  0  0  0  0  0  0  0  0  0  0  0
    7.2037   -2.4824   -2.3548 H   0  0  0  0  0  0  0  0  0  0  0  0
  1  2  1  0
  1 35  1  0
  1 36  1  0
  1 37  1  0
  2  3  1  0
  3  4  2  0
  3  5  1  0
  5 30  1  0
  5  6  2  0
  6 29  1  0
  6  7  1  0
  7  8  1  0
  8  9  1  1
  8 20  1  0
  8 24  1  0
  9 10  1  0
  9 38  1  0
  9 39  1  0
 10 19  1  0
 10 11  2  0
 11 12  1  0
 11 40  1  0
 12 13  2  0
 12 41  1  0
 13 14  1  0
 14 19  2  0
 14 15  1  0
 15 16  2  0
 16 17  1  0
 16 42  1  0
 17 18  2  0
 17 43  1  0
 18 19  1  0
 18 44  1  0
 20 21  2  0
 20 22  1  0
 22 23  1  0
 23 45  1  0
 23 46  1  0
 23 47  1  0
 24 29  1  0
 24 25  1  0
 24 48  1  1
 25 26  1  0
 25 30  1  0
 25 49  1  6
 26 27  1  0
 26 50  1  0
 26 51  1  0
 27 28  1  0
 27 52  1  0
 27 53  1  0
 28 29  1  0
 28 54  1  0
 28 55  1  0
 30 31  1  0
 30 56  1  1
 31 32  2  0
 31 33  1  0
 33 34  1  0
 34 57  1  0
 34 58  1  0
 34 59  1  0
M  END
>  <i_m_ct_stereo_status>  (192) 
1

>  <s_m_source_file>  (192) 
/var/tmp/pbs.5076255.sched01/tmp8yzwbncg/40d_vk9m1l.sdf

>  <i_m_source_file_index>  (192) 
38

>  <i_lp_mmshare_version>  (192) 
48012

>  <i_f3d_flags>  (192) 
0

>  <s_epik_input>  (192) 
W0NIM11PQyg9TylDPTFbQ0BIXShDKD1PKU9bQ0gzXSlbQ0BASF0oW0NIMl1bQ0gyXVtDSDJdMilbQ0BASF0oTjJDMTMpW0NAQF0oTzMpKEMoPU8pT1tDSDNdKVtDSDJdYyhbY0hdW2NIXW40KWMoYzQ1KVtjSF1bY0hdW2NIXW41

>  <s_epik_cmdline>  (192) 
J2VwaWtfcHl0aG9uJywgJy1waHQnLCAnMi4wJywgJy1waCcsICc3LjAnLCAnLXRuJywgJzgnLCAnLW1hJywgJzIwMCcsICctaW1hZScsICc8aW5maWxlLm1hZT4nLCAnLW9tYWUnLCAnPG91dGZpbGUubWFlPic=

>  <r_lp_tautomer_probability>  (192) 
1

>  <r_epik_Ionization_Penalty>  (192) 
2.45756e-05

>  <r_epik_Ionization_Penalty_Charging>  (192) 
0

>  <r_epik_Ionization_Penalty_Neutral>  (192) 
2.45756e-05

>  <r_epik_State_Penalty>  (192) 
-0

>  <r_epik_Charging_Adjusted_Penalty>  (192) 
0

>  <i_epik_Tot_Q>  (192) 
0

>  <i_epik_Tot_abs_Q>  (192) 
0

>  <s_epik_Chemistry_Notes>  (192) 
This compound has an ester and may undergo hydrolysis at high or low pH.

>  <s_lp_Force_Field>  (192) 
OPLS3e

>  <r_lp_Energy>  (192) 
94.2605

>  <b_lp_Chiralities_Consistent>  (192) 
1

>  <s_lp_Variant>  (192) 
57:0-1

>  <s_i_glide_gridfile>  (192) 
pfpi4k_grid

>  <i_i_glide_lignum>  (192) 
38

>  <i_i_glide_rotatable_bonds>  (192) 
8

>  <r_i_docking_score>  (192) 
-1.83393

>  <r_i_glide_ligand_efficiency>  (192) 
-0.0539392

>  <r_i_glide_ligand_efficiency_sa>  (192) 
-0.174742

>  <r_i_glide_ligand_efficiency_ln>  (192) 
-0.405167

>  <r_i_glide_gscore>  (192) 
-1.83393

>  <r_i_glide_lipo>  (192) 
-0.23897

>  <r_i_glide_hbond>  (192) 
-0.00625737

>  <r_i_glide_metal>  (192) 
-0

>  <r_i_glide_rewards>  (192) 
-0.35704

>  <r_i_glide_evdw>  (192) 
-33.2911

>  <r_i_glide_ecoul>  (192) 
0.165379

>  <r_i_glide_erotb>  (192) 
0.461782

>  <r_i_glide_esite>  (192) 
-0.0536971

>  <r_i_glide_emodel>  (192) 
-34.3866

>  <r_i_glide_energy>  (192) 
-33.1258

>  <r_i_glide_einternal>  (192) 
4.38599

>  <r_i_glide_intrahb_reward>  (192) 
-0

>  <i_i_glide_confnum>  (192) 
3

>  <i_i_glide_posenum>  (192) 
4

>  <r_i_glide_eff_state_penalty>  (192) 
0

>  <ligand_id>  (192) 
57

>  <original_smiles>  (192) 
COC(=O)C1=C2OC(Cc3ccnc4ncccc34)(C(=O)OC)C3C(CCCN23)C1C(=O)OC

>  <smiles>  (192) 
[H]c1nc2nc([H])c([H])c(C([H])([H])C3(C(=O)OC([H])([H])[H])OC4=C(C(=O)OC([H])([H])[H])C([H])(C(=O)OC([H])([H])[H])C5([H])C([H])([H])C([H])([H])C([H])([H])N4C35[H])c2c([H])c1[H]

$$$$
58:0:0
     RDKit          3D

 61 67  0  0  1  0  0  0  0  0999 V2000
    8.6122   -6.4744    1.2344 C   0  0  0  0  0  0  0  0  0  0  0  0
    7.3522   -5.7306    1.0185 C   0  0  0  0  0  0  0  0  0  0  0  0
    7.2821   -4.5073    0.4837 N   0  0  0  0  0  0  0  0  0  0  0  0
    5.9296   -4.1488    0.4450 C   0  0  0  0  0  0  0  0  0  0  0  0
    5.4229   -3.0099   -0.0184 N   0  0  0  0  0  0  0  0  0  0  0  0
    4.0729   -2.8589    0.0390 C   0  0  0  0  0  0  0  0  0  0  0  0
    3.1871   -3.8361    0.5597 C   0  0  0  0  0  0  0  0  0  0  0  0
    3.7268   -5.0266    1.0274 C   0  0  0  0  0  0  0  0  0  0  0  0
    5.1300   -5.2033    0.9824 C   0  0  0  0  0  0  0  0  0  0  0  0
    6.0672   -6.1403    1.3072 N   0  0  0  0  0  0  0  0  0  0  0  0
    5.7579   -7.4482    1.9241 C   0  0  2  0  0  0  0  0  0  0  0  0
    4.7925   -8.3303    1.0785 C   0  0  0  0  0  0  0  0  0  0  0  0
    4.2627   -9.5497    1.8796 C   0  0  1  0  0  0  0  0  0  0  0  0
    5.4014  -10.4300    2.4140 C   0  0  0  0  0  0  0  0  0  0  0  0
    5.7168   -9.8427    3.8031 C   0  0  0  0  0  0  0  0  0  0  0  0
    4.7373   -8.6667    3.9565 C   0  0  1  0  0  0  0  0  0  0  0  0
    5.3174   -7.3271    3.4107 C   0  0  0  0  0  0  0  0  0  0  0  0
    3.6054   -9.1101    3.1234 N   0  0  1  0  0  0  0  0  0  0  0  0
    2.4021   -8.2181    3.0387 C   0  0  2  0  0  0  0  0  0  0  0  0
    1.7842   -7.9312    4.4224 C   0  0  2  0  0  0  0  0  0  0  0  0
    1.2733   -9.2545    5.0261 C   0  0  0  0  0  0  0  0  0  0  0  0
    0.2110   -9.8514    4.0830 C   0  0  1  0  0  0  0  0  0  0  0  0
   -0.9537   -8.8475    3.9456 C   0  0  0  0  0  0  0  0  0  0  0  0
   -0.4510   -7.5210    3.3437 C   0  0  1  0  0  0  0  0  0  0  0  0
    0.6289   -6.9227    4.2674 C   0  0  0  0  0  0  0  0  0  0  0  0
    0.1480   -7.7976    1.9543 C   0  0  0  0  0  0  0  0  0  0  0  0
    1.3061   -8.7990    2.1160 C   0  0  2  0  0  0  0  0  0  0  0  0
    0.8049  -10.1353    2.6935 C   0  0  0  0  0  0  0  0  0  0  0  0
    9.4306   -5.8465    0.8845 H   0  0  0  0  0  0  0  0  0  0  0  0
    8.6130   -7.3993    0.6617 H   0  0  0  0  0  0  0  0  0  0  0  0
    8.7607   -6.6815    2.2923 H   0  0  0  0  0  0  0  0  0  0  0  0
    3.6712   -1.9359   -0.3391 H   0  0  0  0  0  0  0  0  0  0  0  0
    2.1181   -3.6545    0.5760 H   0  0  0  0  0  0  0  0  0  0  0  0
    3.0442   -5.7747    1.3850 H   0  0  0  0  0  0  0  0  0  0  0  0
    6.6715   -8.0378    1.9652 H   0  0  0  0  0  0  0  0  0  0  0  0
    3.9393   -7.7630    0.7136 H   0  0  0  0  0  0  0  0  0  0  0  0
    5.2963   -8.6805    0.1767 H   0  0  0  0  0  0  0  0  0  0  0  0
    3.6025  -10.1584    1.2628 H   0  0  0  0  0  0  0  0  0  0  0  0
    5.0255  -11.4487    2.5184 H   0  0  0  0  0  0  0  0  0  0  0  0
    6.2574  -10.4621    1.7392 H   0  0  0  0  0  0  0  0  0  0  0  0
    5.4916  -10.5885    4.5664 H   0  0  0  0  0  0  0  0  0  0  0  0
    6.7569   -9.5396    3.9273 H   0  0  0  0  0  0  0  0  0  0  0  0
    4.4661   -8.5704    5.0079 H   0  0  0  0  0  0  0  0  0  0  0  0
    6.1687   -7.0309    4.0278 H   0  0  0  0  0  0  0  0  0  0  0  0
    4.5933   -6.5187    3.5366 H   0  0  0  0  0  0  0  0  0  0  0  0
    2.6726   -7.2575    2.6456 H   0  0  0  0  0  0  0  0  0  0  0  0
    2.5011   -7.4559    5.0871 H   0  0  0  0  0  0  0  0  0  0  0  0
    2.0861   -9.9698    5.1751 H   0  0  0  0  0  0  0  0  0  0  0  0
    0.8544   -9.0785    6.0153 H   0  0  0  0  0  0  0  0  0  0  0  0
   -0.1437  -10.7924    4.4969 H   0  0  0  0  0  0  0  0  0  0  0  0
   -1.7422   -9.2730    3.3261 H   0  0  0  0  0  0  0  0  0  0  0  0
   -1.3831   -8.6607    4.9285 H   0  0  0  0  0  0  0  0  0  0  0  0
   -1.2876   -6.8296    3.2488 H   0  0  0  0  0  0  0  0  0  0  0  0
    0.2136   -6.7018    5.2502 H   0  0  0  0  0  0  0  0  0  0  0  0
    1.0033   -5.9791    3.8640 H   0  0  0  0  0  0  0  0  0  0  0  0
   -0.6080   -8.2069    1.2830 H   0  0  0  0  0  0  0  0  0  0  0  0
    0.5098   -6.8772    1.4943 H   0  0  0  0  0  0  0  0  0  0  0  0
    1.7001   -8.9542    1.1231 H   0  0  0  0  0  0  0  0  0  0  0  0
    1.6183  -10.8571    2.7781 H   0  0  0  0  0  0  0  0  0  0  0  0
    0.0684  -10.6035    2.0396 H   0  0  0  0  0  0  0  0  0  0  0  0
    3.2978   -9.9737    3.5402 H   0  0  0  0  0  0  0  0  0  0  0  0
  1  2  1  0
  1 29  1  0
  1 30  1  0
  1 31  1  0
  2 10  1  0
  2  3  2  0
  3  4  1  0
  4  9  2  0
  4  5  1  0
  5  6  2  0
  6  7  1  0
  6 32  1  0
  7  8  2  0
  7 33  1  0
  8  9  1  0
  8 34  1  0
  9 10  1  0
 10 11  1  0
 11 17  1  0
 11 12  1  0
 11 35  1  1
 12 13  1  0
 12 36  1  0
 12 37  1  0
 13 18  1  0
 13 14  1  0
 13 38  1  6
 14 15  1  0
 14 39  1  0
 14 40  1  0
 15 16  1  0
 15 41  1  0
 15 42  1  0
 16 17  1  0
 16 18  1  0
 16 43  1  1
 17 44  1  0
 17 45  1  0
 18 19  1  0
 18 61  1  1
 19 27  1  0
 19 20  1  0
 19 46  1  6
 20 25  1  0
 20 21  1  0
 20 47  1  1
 21 22  1  0
 21 48  1  0
 21 49  1  0
 22 28  1  0
 22 23  1  0
 22 50  1  1
 23 24  1  0
 23 51  1  0
 23 52  1  0
 24 25  1  0
 24 26  1  0
 24 53  1  6
 25 54  1  0
 25 55  1  0
 26 27  1  0
 26 56  1  0
 26 57  1  0
 27 28  1  0
 27 58  1  6
 28 59  1  0
 28 60  1  0
M  CHG  1  18   1
M  END
>  <i_m_ct_stereo_status>  (193) 
1

>  <s_m_source_file>  (193) 
/var/tmp/pbs.5076255.sched01/tmp8yzwbncg/40d_vk9m1l.sdf

>  <i_m_source_file_index>  (193) 
39

>  <i_lp_mmshare_version>  (193) 
48012

>  <i_f3d_flags>  (193) 
0

>  <s_epik_input>  (193) 
bjFbY0hdW2NIXVtjSF1jKGMxMiluKGMobjIpW0NIM10pW0NASF0oW0NIMl1bQ0BASF0zNClbQ0gyXVtDQEhdKFtDSDJdW0NIMl0zKU40W0NASF0oW0NAQEhdNTYpW0NASF03W0NIMl1bQ0BASF0oW0NIMl02KVtDSDJdW0NAQEhdKFtDSDJdNSlbQ0gyXTc=

>  <s_epik_cmdline>  (193) 
J2VwaWtfcHl0aG9uJywgJy1waHQnLCAnMi4wJywgJy1waCcsICc3LjAnLCAnLXRuJywgJzgnLCAnLW1hJywgJzIwMCcsICctaW1hZScsICc8aW5maWxlLm1hZT4nLCAnLW9tYWUnLCAnPG91dGZpbGUubWFlPic=

>  <r_lp_tautomer_probability>  (193) 
1

>  <r_epik_Ionization_Penalty>  (193) 
0.00181357

>  <r_epik_Ionization_Penalty_Charging>  (193) 
0.000488512

>  <r_epik_Ionization_Penalty_Neutral>  (193) 
0.00132505

>  <r_epik_State_Penalty>  (193) 
2.45052e-10

>  <r_epik_Charging_Adjusted_Penalty>  (193) 
0.000488512

>  <i_epik_Tot_Q>  (193) 
1

>  <i_epik_Tot_abs_Q>  (193) 
1

>  <s_lp_Force_Field>  (193) 
OPLS3e

>  <r_lp_Energy>  (193) 
27.8928

>  <b_lp_Chiralities_Consistent>  (193) 
1

>  <s_lp_Variant>  (193) 
58:0-1

>  <s_i_glide_gridfile>  (193) 
pfpi4k_grid

>  <i_i_glide_lignum>  (193) 
39

>  <i_i_glide_rotatable_bonds>  (193) 
2

>  <r_i_docking_score>  (193) 
-2.88528

>  <r_i_glide_ligand_efficiency>  (193) 
-0.103046

>  <r_i_glide_ligand_efficiency_sa>  (193) 
-0.312907

>  <r_i_glide_ligand_efficiency_ln>  (193) 
-0.666007

>  <r_i_glide_gscore>  (193) 
-2.88528

>  <r_i_glide_lipo>  (193) 
-0.270832

>  <r_i_glide_hbond>  (193) 
0

>  <r_i_glide_metal>  (193) 
-0

>  <r_i_glide_rewards>  (193) 
-1.1741

>  <r_i_glide_evdw>  (193) 
-25.1108

>  <r_i_glide_ecoul>  (193) 
-2.97495

>  <r_i_glide_erotb>  (193) 
0.271776

>  <r_i_glide_esite>  (193) 
-0.0103427

>  <r_i_glide_emodel>  (193) 
-33.6334

>  <r_i_glide_energy>  (193) 
-28.0857

>  <r_i_glide_einternal>  (193) 
0.14996

>  <r_i_glide_intrahb_reward>  (193) 
-0

>  <i_i_glide_confnum>  (193) 
2

>  <i_i_glide_posenum>  (193) 
8

>  <r_i_glide_eff_state_penalty>  (193) 
0

>  <ligand_id>  (193) 
58

>  <original_smiles>  (193) 
Cc1nc2ncccc2n1C1CC2CCC(C1)N2C1C2CC3CC(C2)CC1C3

>  <smiles>  (193) 
[H]c1nc2nc(C([H])([H])[H])n(C3([H])C([H])([H])C4([H])C([H])([H])C([H])([H])C([H])(C3([H])[H])[N+]4([H])C3([H])C4([H])C([H])([H])C5([H])C([H])([H])C([H])(C4([H])[H])C([H])([H])C3([H])C5([H])[H])c2c([H])c1[H]

$$$$
58:0:1
     RDKit          3D

 61 67  0  0  1  0  0  0  0  0999 V2000
    8.4569   -5.2233    0.5540 C   0  0  0  0  0  0  0  0  0  0  0  0
    7.1266   -4.5670    0.6889 C   0  0  0  0  0  0  0  0  0  0  0  0
    6.9029   -3.2736    0.4158 N   0  0  0  0  0  0  0  0  0  0  0  0
    5.5450   -3.0282    0.6708 C   0  0  0  0  0  0  0  0  0  0  0  0
    4.9111   -1.8687    0.5225 N   0  0  0  0  0  0  0  0  0  0  0  0
    3.5841   -1.8452    0.8246 C   0  0  0  0  0  0  0  0  0  0  0  0
    2.8573   -2.9684    1.2882 C   0  0  0  0  0  0  0  0  0  0  0  0
    3.5272   -4.1808    1.4242 C   0  0  0  0  0  0  0  0  0  0  0  0
    4.9089   -4.2255    1.1163 C   0  0  0  0  0  0  0  0  0  0  0  0
    5.9303   -5.1266    1.0981 N   0  0  0  0  0  0  0  0  0  0  0  0
    5.7973   -6.5472    1.4906 C   0  0  2  0  0  0  0  0  0  0  0  0
    4.6988   -7.3203    0.6993 C   0  0  0  0  0  0  0  0  0  0  0  0
    4.4019   -8.7105    1.3113 C   0  0  1  0  0  0  0  0  0  0  0  0
    5.6636   -9.5782    1.4314 C   0  0  0  0  0  0  0  0  0  0  0  0
    6.2303   -9.2382    2.8211 C   0  0  0  0  0  0  0  0  0  0  0  0
    5.2604   -8.1934    3.3926 C   0  0  1  0  0  0  0  0  0  0  0  0
    5.6648   -6.7351    3.0285 C   0  0  0  0  0  0  0  0  0  0  0  0
    3.9966   -8.5579    2.7229 N   0  0  1  0  0  0  0  0  0  0  0  0
    2.7718   -7.7548    3.0505 C   0  0  2  0  0  0  0  0  0  0  0  0
    2.4499   -7.7670    4.5622 C   0  0  2  0  0  0  0  0  0  0  0  0
    2.1270   -9.2128    4.9965 C   0  0  0  0  0  0  0  0  0  0  0  0
    0.9061   -9.7178    4.1974 C   0  0  1  0  0  0  0  0  0  0  0  0
   -0.2919   -8.7926    4.4903 C   0  0  0  0  0  0  0  0  0  0  0  0
    0.0208   -7.3449    4.0570 C   0  0  1  0  0  0  0  0  0  0  0  0
    1.2510   -6.8385    4.8374 C   0  0  0  0  0  0  0  0  0  0  0  0
    0.3220   -7.3251    2.5477 C   0  0  0  0  0  0  0  0  0  0  0  0
    1.5235   -8.2487    2.2770 C   0  0  2  0  0  0  0  0  0  0  0  0
    1.2037   -9.7006    2.6847 C   0  0  0  0  0  0  0  0  0  0  0  0
    9.1678   -4.4796    0.2020 H   0  0  0  0  0  0  0  0  0  0  0  0
    8.4110   -6.0366   -0.1665 H   0  0  0  0  0  0  0  0  0  0  0  0
    8.7854   -5.6104    1.5163 H   0  0  0  0  0  0  0  0  0  0  0  0
    3.0698   -0.9058    0.6934 H   0  0  0  0  0  0  0  0  0  0  0  0
    1.8028   -2.8810    1.5163 H   0  0  0  0  0  0  0  0  0  0  0  0
    2.9534   -5.0305    1.7369 H   0  0  0  0  0  0  0  0  0  0  0  0
    6.7227   -7.0583    1.2319 H   0  0  0  0  0  0  0  0  0  0  0  0
    3.7688   -6.7704    0.6140 H   0  0  0  0  0  0  0  0  0  0  0  0
    5.0005   -7.4349   -0.3342 H   0  0  0  0  0  0  0  0  0  0  0  0
    3.6596   -9.2405    0.7130 H   0  0  0  0  0  0  0  0  0  0  0  0
    5.3840  -10.6312    1.4186 H   0  0  0  0  0  0  0  0  0  0  0  0
    6.3646   -9.4201    0.6116 H   0  0  0  0  0  0  0  0  0  0  0  0
    6.1900  -10.1305    3.4464 H   0  0  0  0  0  0  0  0  0  0  0  0
    7.2635   -8.8910    2.8013 H   0  0  0  0  0  0  0  0  0  0  0  0
    5.2075   -8.3179    4.4730 H   0  0  0  0  0  0  0  0  0  0  0  0
    6.6154   -6.4960    3.5119 H   0  0  0  0  0  0  0  0  0  0  0  0
    4.9511   -6.0201    3.4451 H   0  0  0  0  0  0  0  0  0  0  0  0
    2.9133   -6.7143    2.8062 H   0  0  0  0  0  0  0  0  0  0  0  0
    3.2723   -7.3621    5.1480 H   0  0  0  0  0  0  0  0  0  0  0  0
    2.9806   -9.8761    4.8411 H   0  0  0  0  0  0  0  0  0  0  0  0
    1.9231   -9.2431    6.0667 H   0  0  0  0  0  0  0  0  0  0  0  0
    0.6764  -10.7385    4.5002 H   0  0  0  0  0  0  0  0  0  0  0  0
   -1.1777   -9.1511    3.9699 H   0  0  0  0  0  0  0  0  0  0  0  0
   -0.5091   -8.8243    5.5564 H   0  0  0  0  0  0  0  0  0  0  0  0
   -0.8389   -6.7060    4.2637 H   0  0  0  0  0  0  0  0  0  0  0  0
    1.0467   -6.8251    5.9086 H   0  0  0  0  0  0  0  0  0  0  0  0
    1.4949   -5.8116    4.5526 H   0  0  0  0  0  0  0  0  0  0  0  0
   -0.5419   -7.6647    1.9716 H   0  0  0  0  0  0  0  0  0  0  0  0
    0.5461   -6.3113    2.2122 H   0  0  0  0  0  0  0  0  0  0  0  0
    1.6835   -8.2012    1.2087 H   0  0  0  0  0  0  0  0  0  0  0  0
    2.0434  -10.3596    2.4598 H   0  0  0  0  0  0  0  0  0  0  0  0
    0.3652  -10.0912    2.1035 H   0  0  0  0  0  0  0  0  0  0  0  0
    3.8107   -9.5052    3.0170 H   0  0  0  0  0  0  0  0  0  0  0  0
  1  2  1  0
  1 29  1  0
  1 30  1  0
  1 31  1  0
  2 10  1  0
  2  3  2  0
  3  4  1  0
  4  9  2  0
  4  5  1  0
  5  6  2  0
  6  7  1  0
  6 32  1  0
  7  8  2  0
  7 33  1  0
  8  9  1  0
  8 34  1  0
  9 10  1  0
 10 11  1  0
 11 17  1  0
 11 12  1  0
 11 35  1  6
 12 13  1  0
 12 36  1  0
 12 37  1  0
 13 18  1  0
 13 14  1  0
 13 38  1  6
 14 15  1  0
 14 39  1  0
 14 40  1  0
 15 16  1  0
 15 41  1  0
 15 42  1  0
 16 17  1  0
 16 18  1  0
 16 43  1  1
 17 44  1  0
 17 45  1  0
 18 19  1  0
 18 61  1  1
 19 27  1  0
 19 20  1  0
 19 46  1  6
 20 25  1  0
 20 21  1  0
 20 47  1  1
 21 22  1  0
 21 48  1  0
 21 49  1  0
 22 28  1  0
 22 23  1  0
 22 50  1  1
 23 24  1  0
 23 51  1  0
 23 52  1  0
 24 25  1  0
 24 26  1  0
 24 53  1  6
 25 54  1  0
 25 55  1  0
 26 27  1  0
 26 56  1  0
 26 57  1  0
 27 28  1  0
 27 58  1  6
 28 59  1  0
 28 60  1  0
M  CHG  1  18   1
M  END
>  <i_m_ct_stereo_status>  (194) 
1

>  <s_m_source_file>  (194) 
/var/tmp/pbs.5076255.sched01/tmp8yzwbncg/40d_vk9m1l.sdf

>  <i_m_source_file_index>  (194) 
39

>  <i_lp_mmshare_version>  (194) 
48012

>  <i_f3d_flags>  (194) 
0

>  <s_epik_input>  (194) 
bjFbY0hdW2NIXVtjSF1jKGMxMiluKGMobjIpW0NIM10pW0NASF0oW0NIMl1bQ0BASF0zNClbQ0gyXVtDQEhdKFtDSDJdW0NIMl0zKU40W0NASF0oW0NAQEhdNTYpW0NASF03W0NIMl1bQ0BASF0oW0NIMl02KVtDSDJdW0NAQEhdKFtDSDJdNSlbQ0gyXTc=

>  <s_epik_cmdline>  (194) 
J2VwaWtfcHl0aG9uJywgJy1waHQnLCAnMi4wJywgJy1waCcsICc3LjAnLCAnLXRuJywgJzgnLCAnLW1hJywgJzIwMCcsICctaW1hZScsICc8aW5maWxlLm1hZT4nLCAnLW9tYWUnLCAnPG91dGZpbGUubWFlPic=

>  <r_lp_tautomer_probability>  (194) 
1

>  <r_epik_Ionization_Penalty>  (194) 
0.00181357

>  <r_epik_Ionization_Penalty_Charging>  (194) 
0.000488512

>  <r_epik_Ionization_Penalty_Neutral>  (194) 
0.00132505

>  <r_epik_State_Penalty>  (194) 
2.45052e-10

>  <r_epik_Charging_Adjusted_Penalty>  (194) 
0.000488512

>  <i_epik_Tot_Q>  (194) 
1

>  <i_epik_Tot_abs_Q>  (194) 
1

>  <s_lp_Force_Field>  (194) 
OPLS3e

>  <r_lp_Energy>  (194) 
27.8928

>  <b_lp_Chiralities_Consistent>  (194) 
1

>  <s_lp_Variant>  (194) 
58:0-1

>  <s_i_glide_gridfile>  (194) 
pfpi4k_grid

>  <i_i_glide_lignum>  (194) 
39

>  <i_i_glide_rotatable_bonds>  (194) 
2

>  <r_i_docking_score>  (194) 
-2.82251

>  <r_i_glide_ligand_efficiency>  (194) 
-0.100804

>  <r_i_glide_ligand_efficiency_sa>  (194) 
-0.3061

>  <r_i_glide_ligand_efficiency_ln>  (194) 
-0.651517

>  <r_i_glide_gscore>  (194) 
-2.82251

>  <r_i_glide_lipo>  (194) 
-0.332911

>  <r_i_glide_hbond>  (194) 
0

>  <r_i_glide_metal>  (194) 
-0

>  <r_i_glide_rewards>  (194) 
-1.2003

>  <r_i_glide_evdw>  (194) 
-24.1546

>  <r_i_glide_ecoul>  (194) 
-2.30602

>  <r_i_glide_erotb>  (194) 
0.271776

>  <r_i_glide_esite>  (194) 
-0.00744265

>  <r_i_glide_emodel>  (194) 
-31.9309

>  <r_i_glide_energy>  (194) 
-26.4606

>  <r_i_glide_einternal>  (194) 
0.215607

>  <r_i_glide_intrahb_reward>  (194) 
-0

>  <i_i_glide_confnum>  (194) 
4

>  <i_i_glide_posenum>  (194) 
40

>  <r_i_glide_eff_state_penalty>  (194) 
0

>  <ligand_id>  (194) 
58

>  <original_smiles>  (194) 
Cc1nc2ncccc2n1C1CC2CCC(C1)N2C1C2CC3CC(C2)CC1C3

>  <smiles>  (194) 
[H]c1nc2nc(C([H])([H])[H])n(C3([H])C([H])([H])C4([H])C([H])([H])C([H])([H])C([H])(C3([H])[H])[N+]4([H])C3([H])C4([H])C([H])([H])C5([H])C([H])([H])C([H])(C4([H])[H])C([H])([H])C3([H])C5([H])[H])c2c([H])c1[H]

$$$$
58:0:2
     RDKit          3D

 61 67  0  0  1  0  0  0  0  0999 V2000
    7.7947   -4.9594    0.9490 C   0  0  0  0  0  0  0  0  0  0  0  0
    6.4059   -4.6594    1.3881 C   0  0  0  0  0  0  0  0  0  0  0  0
    5.8833   -3.4230    1.4380 N   0  0  0  0  0  0  0  0  0  0  0  0
    4.5737   -3.5452    1.9029 C   0  0  0  0  0  0  0  0  0  0  0  0
    3.7032   -2.5556    2.1035 N   0  0  0  0  0  0  0  0  0  0  0  0
    2.4702   -2.8880    2.5687 C   0  0  0  0  0  0  0  0  0  0  0  0
    2.0579   -4.2115    2.8651 C   0  0  0  0  0  0  0  0  0  0  0  0
    2.9791   -5.2360    2.6557 C   0  0  0  0  0  0  0  0  0  0  0  0
    4.2653   -4.9136    2.1600 C   0  0  0  0  0  0  0  0  0  0  0  0
    5.4304   -5.5367    1.8115 N   0  0  0  0  0  0  0  0  0  0  0  0
    5.6489   -6.9976    1.8919 C   0  0  2  0  0  0  0  0  0  0  0  0
    4.7211   -7.8037    0.9357 C   0  0  0  0  0  0  0  0  0  0  0  0
    4.7508   -9.3335    1.2483 C   0  0  1  0  0  0  0  0  0  0  0  0
    6.1871   -9.9064    1.1888 C   0  0  0  0  0  0  0  0  0  0  0  0
    6.7326   -9.7441    2.6188 C   0  0  0  0  0  0  0  0  0  0  0  0
    5.5823   -9.0900    3.3891 C   0  0  1  0  0  0  0  0  0  0  0  0
    5.6167   -7.5358    3.3464 C   0  0  0  0  0  0  0  0  0  0  0  0
    4.3986   -9.5891    2.6597 N   0  0  1  0  0  0  0  0  0  0  0  0
    3.0404   -9.1891    3.1498 C   0  0  2  0  0  0  0  0  0  0  0  0
    2.9159   -9.2310    4.6958 C   0  0  2  0  0  0  0  0  0  0  0  0
    3.0977  -10.6887    5.1703 C   0  0  0  0  0  0  0  0  0  0  0  0
    2.0048  -11.5571    4.5263 C   0  0  1  0  0  0  0  0  0  0  0  0
    0.6316  -11.0192    4.9637 C   0  0  0  0  0  0  0  0  0  0  0  0
    0.4387   -9.5615    4.4927 C   0  0  1  0  0  0  0  0  0  0  0  0
    1.5429   -8.6849    5.1165 C   0  0  0  0  0  0  0  0  0  0  0  0
    0.5383   -9.5103    2.9582 C   0  0  0  0  0  0  0  0  0  0  0  0
    1.9213  -10.0509    2.5330 C   0  0  2  0  0  0  0  0  0  0  0  0
    2.0980  -11.5114    2.9878 C   0  0  0  0  0  0  0  0  0  0  0  0
    8.2844   -4.0293    0.6703 H   0  0  0  0  0  0  0  0  0  0  0  0
    7.7708   -5.6249    0.0921 H   0  0  0  0  0  0  0  0  0  0  0  0
    8.3484   -5.4360    1.7574 H   0  0  0  0  0  0  0  0  0  0  0  0
    1.7818   -2.0715    2.7128 H   0  0  0  0  0  0  0  0  0  0  0  0
    1.0588   -4.4216    3.2398 H   0  0  0  0  0  0  0  0  0  0  0  0
    2.6689   -6.2340    2.8939 H   0  0  0  0  0  0  0  0  0  0  0  0
    6.6581   -7.2242    1.5549 H   0  0  0  0  0  0  0  0  0  0  0  0
    3.6970   -7.4336    0.9655 H   0  0  0  0  0  0  0  0  0  0  0  0
    4.9943   -7.6361   -0.1033 H   0  0  0  0  0  0  0  0  0  0  0  0
    4.0916   -9.8616    0.5584 H   0  0  0  0  0  0  0  0  0  0  0  0
    6.1464  -10.9682    0.9462 H   0  0  0  0  0  0  0  0  0  0  0  0
    6.8119   -9.4222    0.4370 H   0  0  0  0  0  0  0  0  0  0  0  0
    6.9226  -10.7255    3.0532 H   0  0  0  0  0  0  0  0  0  0  0  0
    7.6534   -9.1621    2.6940 H   0  0  0  0  0  0  0  0  0  0  0  0
    5.6419   -9.4349    4.4203 H   0  0  0  0  0  0  0  0  0  0  0  0
    6.4935   -7.1842    3.8955 H   0  0  0  0  0  0  0  0  0  0  0  0
    4.7620   -7.1254    3.8845 H   0  0  0  0  0  0  0  0  0  0  0  0
    2.8047   -8.1888    2.8406 H   0  0  0  0  0  0  0  0  0  0  0  0
    3.6217   -8.5758    5.1968 H   0  0  0  0  0  0  0  0  0  0  0  0
    4.0696  -11.0983    4.8958 H   0  0  0  0  0  0  0  0  0  0  0  0
    3.0476  -10.7424    6.2586 H   0  0  0  0  0  0  0  0  0  0  0  0
    2.1327  -12.5847    4.8587 H   0  0  0  0  0  0  0  0  0  0  0  0
   -0.1474  -11.6574    4.5573 H   0  0  0  0  0  0  0  0  0  0  0  0
    0.5579  -11.0579    6.0483 H   0  0  0  0  0  0  0  0  0  0  0  0
   -0.5420   -9.2054    4.8126 H   0  0  0  0  0  0  0  0  0  0  0  0
    1.4806   -8.6914    6.2062 H   0  0  0  0  0  0  0  0  0  0  0  0
    1.4354   -7.6431    4.8055 H   0  0  0  0  0  0  0  0  0  0  0  0
   -0.2529  -10.1107    2.5086 H   0  0  0  0  0  0  0  0  0  0  0  0
    0.3937   -8.4911    2.6001 H   0  0  0  0  0  0  0  0  0  0  0  0
    1.9652   -9.9863    1.4554 H   0  0  0  0  0  0  0  0  0  0  0  0
    3.0564  -11.9023    2.6445 H   0  0  0  0  0  0  0  0  0  0  0  0
    1.3361  -12.1568    2.5455 H   0  0  0  0  0  0  0  0  0  0  0  0
    4.4456  -10.5941    2.7359 H   0  0  0  0  0  0  0  0  0  0  0  0
  1  2  1  0
  1 29  1  0
  1 30  1  0
  1 31  1  0
  2 10  1  0
  2  3  2  0
  3  4  1  0
  4  9  2  0
  4  5  1  0
  5  6  2  0
  6  7  1  0
  6 32  1  0
  7  8  2  0
  7 33  1  0
  8  9  1  0
  8 34  1  0
  9 10  1  0
 10 11  1  0
 11 17  1  0
 11 12  1  0
 11 35  1  6
 12 13  1  0
 12 36  1  0
 12 37  1  0
 13 18  1  0
 13 14  1  0
 13 38  1  6
 14 15  1  0
 14 39  1  0
 14 40  1  0
 15 16  1  0
 15 41  1  0
 15 42  1  0
 16 17  1  0
 16 18  1  0
 16 43  1  1
 17 44  1  0
 17 45  1  0
 18 19  1  0
 18 61  1  6
 19 27  1  0
 19 20  1  0
 19 46  1  6
 20 25  1  0
 20 21  1  0
 20 47  1  1
 21 22  1  0
 21 48  1  0
 21 49  1  0
 22 28  1  0
 22 23  1  0
 22 50  1  1
 23 24  1  0
 23 51  1  0
 23 52  1  0
 24 25  1  0
 24 26  1  0
 24 53  1  6
 25 54  1  0
 25 55  1  0
 26 27  1  0
 26 56  1  0
 26 57  1  0
 27 28  1  0
 27 58  1  6
 28 59  1  0
 28 60  1  0
M  CHG  1  18   1
M  END
>  <i_m_ct_stereo_status>  (195) 
1

>  <s_m_source_file>  (195) 
/var/tmp/pbs.5076255.sched01/tmp8yzwbncg/40d_vk9m1l.sdf

>  <i_m_source_file_index>  (195) 
39

>  <i_lp_mmshare_version>  (195) 
48012

>  <i_f3d_flags>  (195) 
0

>  <s_epik_input>  (195) 
bjFbY0hdW2NIXVtjSF1jKGMxMiluKGMobjIpW0NIM10pW0NASF0oW0NIMl1bQ0BASF0zNClbQ0gyXVtDQEhdKFtDSDJdW0NIMl0zKU40W0NASF0oW0NAQEhdNTYpW0NASF03W0NIMl1bQ0BASF0oW0NIMl02KVtDSDJdW0NAQEhdKFtDSDJdNSlbQ0gyXTc=

>  <s_epik_cmdline>  (195) 
J2VwaWtfcHl0aG9uJywgJy1waHQnLCAnMi4wJywgJy1waCcsICc3LjAnLCAnLXRuJywgJzgnLCAnLW1hJywgJzIwMCcsICctaW1hZScsICc8aW5maWxlLm1hZT4nLCAnLW9tYWUnLCAnPG91dGZpbGUubWFlPic=

>  <r_lp_tautomer_probability>  (195) 
1

>  <r_epik_Ionization_Penalty>  (195) 
0.00181357

>  <r_epik_Ionization_Penalty_Charging>  (195) 
0.000488512

>  <r_epik_Ionization_Penalty_Neutral>  (195) 
0.00132505

>  <r_epik_State_Penalty>  (195) 
2.45052e-10

>  <r_epik_Charging_Adjusted_Penalty>  (195) 
0.000488512

>  <i_epik_Tot_Q>  (195) 
1

>  <i_epik_Tot_abs_Q>  (195) 
1

>  <s_lp_Force_Field>  (195) 
OPLS3e

>  <r_lp_Energy>  (195) 
27.8928

>  <b_lp_Chiralities_Consistent>  (195) 
1

>  <s_lp_Variant>  (195) 
58:0-1

>  <s_i_glide_gridfile>  (195) 
pfpi4k_grid

>  <i_i_glide_lignum>  (195) 
39

>  <i_i_glide_rotatable_bonds>  (195) 
2

>  <r_i_docking_score>  (195) 
-2.66392

>  <r_i_glide_ligand_efficiency>  (195) 
-0.0951401

>  <r_i_glide_ligand_efficiency_sa>  (195) 
-0.288901

>  <r_i_glide_ligand_efficiency_ln>  (195) 
-0.614912

>  <r_i_glide_gscore>  (195) 
-2.66392

>  <r_i_glide_lipo>  (195) 
-0.375399

>  <r_i_glide_hbond>  (195) 
0

>  <r_i_glide_metal>  (195) 
-0

>  <r_i_glide_rewards>  (195) 
-1.04008

>  <r_i_glide_evdw>  (195) 
-22.3171

>  <r_i_glide_ecoul>  (195) 
-2.47458

>  <r_i_glide_erotb>  (195) 
0.271776

>  <r_i_glide_esite>  (195) 
-0.0331804

>  <r_i_glide_emodel>  (195) 
-29.2848

>  <r_i_glide_energy>  (195) 
-24.7917

>  <r_i_glide_einternal>  (195) 
0.963173

>  <r_i_glide_intrahb_reward>  (195) 
-0

>  <i_i_glide_confnum>  (195) 
5

>  <i_i_glide_posenum>  (195) 
36

>  <r_i_glide_eff_state_penalty>  (195) 
0

>  <ligand_id>  (195) 
58

>  <original_smiles>  (195) 
Cc1nc2ncccc2n1C1CC2CCC(C1)N2C1C2CC3CC(C2)CC1C3

>  <smiles>  (195) 
[H]c1nc2nc(C([H])([H])[H])n(C3([H])C([H])([H])C4([H])C([H])([H])C([H])([H])C([H])(C3([H])[H])[N+]4([H])C3([H])C4([H])C([H])([H])C5([H])C([H])([H])C([H])(C4([H])[H])C([H])([H])C3([H])C5([H])[H])c2c([H])c1[H]

$$$$
58:1:0
     RDKit          3D

 61 67  0  0  1  0  0  0  0  0999 V2000
    0.4199   -4.7602    9.4862 C   0  0  0  0  0  0  0  0  0  0  0  0
    0.3024   -4.0775    8.1600 C   0  0  0  0  0  0  0  0  0  0  0  0
   -0.5813   -3.1271    7.9269 N   0  0  0  0  0  0  0  0  0  0  0  0
   -0.3115   -2.6259    6.6474 C   0  0  0  0  0  0  0  0  0  0  0  0
   -1.0316   -1.6893    6.0439 N   0  0  0  0  0  0  0  0  0  0  0  0
   -0.6382   -1.3432    4.7788 C   0  0  0  0  0  0  0  0  0  0  0  0
    0.4109   -1.9373    4.0919 C   0  0  0  0  0  0  0  0  0  0  0  0
    1.1627   -2.9351    4.7410 C   0  0  0  0  0  0  0  0  0  0  0  0
    0.7746   -3.3026    6.0699 C   0  0  0  0  0  0  0  0  0  0  0  0
    1.0763   -4.2723    7.0186 N   0  0  0  0  0  0  0  0  0  0  0  0
    2.0009   -5.4245    6.8904 C   0  0  1  0  0  0  0  0  0  0  0  0
    1.3794   -6.8137    7.2806 C   0  0  0  0  0  0  0  0  0  0  0  0
    0.5761   -7.4836    6.1396 C   0  0  1  0  0  0  0  0  0  0  0  0
   -0.5014   -6.5573    5.5481 C   0  0  0  0  0  0  0  0  0  0  0  0
    0.2227   -5.8836    4.3825 C   0  0  0  0  0  0  0  0  0  0  0  0
    1.6959   -6.3237    4.4774 C   0  0  1  0  0  0  0  0  0  0  0  0
    2.6380   -5.5665    5.4875 C   0  0  0  0  0  0  0  0  0  0  0  0
    1.4603   -7.6909    4.9813 N   0  0  1  0  0  0  0  0  0  0  0  0
    2.6199   -8.5857    5.1436 C   0  0  2  0  0  0  0  0  0  0  0  0
    3.3366   -8.7453    3.7806 C   0  0  1  0  0  0  0  0  0  0  0  0
    4.5643   -9.6409    3.9787 C   0  0  0  0  0  0  0  0  0  0  0  0
    4.0977  -11.0211    4.4788 C   0  0  2  0  0  0  0  0  0  0  0  0
    3.1483  -11.6597    3.4351 C   0  0  0  0  0  0  0  0  0  0  0  0
    1.9099  -10.7483    3.2554 C   0  0  2  0  0  0  0  0  0  0  0  0
    2.3747   -9.3708    2.7398 C   0  0  0  0  0  0  0  0  0  0  0  0
    1.1669  -10.5756    4.5987 C   0  0  0  0  0  0  0  0  0  0  0  0
    2.1414   -9.9674    5.6359 C   0  0  1  0  0  0  0  0  0  0  0  0
    3.3662  -10.8687    5.8273 C   0  0  0  0  0  0  0  0  0  0  0  0
    0.0861   -4.0684   10.2664 H   0  0  0  0  0  0  0  0  0  0  0  0
    1.4630   -5.0265    9.6753 H   0  0  0  0  0  0  0  0  0  0  0  0
   -0.2195   -5.6465    9.5608 H   0  0  0  0  0  0  0  0  0  0  0  0
   -1.2028   -0.5574    4.3004 H   0  0  0  0  0  0  0  0  0  0  0  0
    0.6132   -1.7291    3.0479 H   0  0  0  0  0  0  0  0  0  0  0  0
    1.8382   -3.4644    4.0975 H   0  0  0  0  0  0  0  0  0  0  0  0
    2.7905   -5.1944    7.6021 H   0  0  0  0  0  0  0  0  0  0  0  0
    2.1529   -7.4864    7.6368 H   0  0  0  0  0  0  0  0  0  0  0  0
    0.7195   -6.7744    8.1248 H   0  0  0  0  0  0  0  0  0  0  0  0
    0.0867   -8.3955    6.4800 H   0  0  0  0  0  0  0  0  0  0  0  0
   -1.3758   -7.0894    5.1607 H   0  0  0  0  0  0  0  0  0  0  0  0
   -0.8732   -5.8460    6.2925 H   0  0  0  0  0  0  0  0  0  0  0  0
   -0.2072   -6.0303    3.3942 H   0  0  0  0  0  0  0  0  0  0  0  0
    0.0176   -4.8585    4.4945 H   0  0  0  0  0  0  0  0  0  0  0  0
    2.1444   -6.3124    3.4756 H   0  0  0  0  0  0  0  0  0  0  0  0
    2.9914   -4.6084    5.1572 H   0  0  0  0  0  0  0  0  0  0  0  0
    3.6011   -6.0653    5.5610 H   0  0  0  0  0  0  0  0  0  0  0  0
    3.3009   -8.1520    5.8769 H   0  0  0  0  0  0  0  0  0  0  0  0
    3.6911   -7.7834    3.4119 H   0  0  0  0  0  0  0  0  0  0  0  0
    5.1052   -9.7374    3.0389 H   0  0  0  0  0  0  0  0  0  0  0  0
    5.2500   -9.1816    4.6925 H   0  0  0  0  0  0  0  0  0  0  0  0
    4.9683  -11.6561    4.6156 H   0  0  0  0  0  0  0  0  0  0  0  0
    3.6620  -11.7715    2.4932 H   0  0  0  0  0  0  0  0  0  0  0  0
    2.8532  -12.6446    3.7528 H   0  0  0  0  0  0  0  0  0  0  0  0
    1.2312  -11.1941    2.5312 H   0  0  0  0  0  0  0  0  0  0  0  0
    1.5126   -8.7283    2.5518 H   0  0  0  0  0  0  0  0  0  0  0  0
    2.8758   -9.4742    1.7786 H   0  0  0  0  0  0  0  0  0  0  0  0
    0.2912   -9.9389    4.4542 H   0  0  0  0  0  0  0  0  0  0  0  0
    0.7697  -11.5215    4.9638 H   0  0  0  0  0  0  0  0  0  0  0  0
    1.6440   -9.8803    6.6041 H   0  0  0  0  0  0  0  0  0  0  0  0
    3.0473  -11.8387    6.2049 H   0  0  0  0  0  0  0  0  0  0  0  0
    4.0275  -10.4401    6.5832 H   0  0  0  0  0  0  0  0  0  0  0  0
    0.8974   -8.1521    4.2796 H   0  0  0  0  0  0  0  0  0  0  0  0
  1  2  1  0
  1 29  1  0
  1 30  1  0
  1 31  1  0
  2 10  1  0
  2  3  2  0
  3  4  1  0
  4  9  2  0
  4  5  1  0
  5  6  2  0
  6  7  1  0
  6 32  1  0
  7  8  2  0
  7 33  1  0
  8  9  1  0
  8 34  1  0
  9 10  1  0
 10 11  1  0
 11 17  1  0
 11 12  1  0
 11 35  1  1
 12 13  1  0
 12 36  1  0
 12 37  1  0
 13 18  1  0
 13 14  1  0
 13 38  1  1
 14 15  1  0
 14 39  1  0
 14 40  1  0
 15 16  1  0
 15 41  1  0
 15 42  1  0
 16 17  1  0
 16 18  1  0
 16 43  1  6
 17 44  1  0
 17 45  1  0
 18 19  1  0
 18 61  1  6
 19 27  1  0
 19 20  1  0
 19 46  1  1
 20 25  1  0
 20 21  1  0
 20 47  1  6
 21 22  1  0
 21 48  1  0
 21 49  1  0
 22 28  1  0
 22 23  1  0
 22 50  1  1
 23 24  1  0
 23 51  1  0
 23 52  1  0
 24 25  1  0
 24 26  1  0
 24 53  1  6
 25 54  1  0
 25 55  1  0
 26 27  1  0
 26 56  1  0
 26 57  1  0
 27 28  1  0
 27 58  1  1
 28 59  1  0
 28 60  1  0
M  CHG  1  18   1
M  END
>  <i_m_ct_stereo_status>  (196) 
1

>  <s_m_source_file>  (196) 
/var/tmp/pbs.5076255.sched01/tmp8yzwbncg/40d_vk9m1l.sdf

>  <i_m_source_file_index>  (196) 
40

>  <i_lp_mmshare_version>  (196) 
48012

>  <i_f3d_flags>  (196) 
0

>  <s_epik_input>  (196) 
bjFbY0hdW2NIXVtjSF1jKGMxMiluKGMobjIpW0NIM10pW0NASF0oW0NIMl1bQ0BASF0zNClbQ0gyXVtDQEhdKFtDSDJdW0NIMl0zKU40W0NASF0oW0NAQEhdNTYpW0NASF03W0NIMl1bQ0BASF0oW0NIMl02KVtDSDJdW0NAQEhdKFtDSDJdNSlbQ0gyXTc=

>  <s_epik_cmdline>  (196) 
J2VwaWtfcHl0aG9uJywgJy1waHQnLCAnMi4wJywgJy1waCcsICc3LjAnLCAnLXRuJywgJzgnLCAnLW1hJywgJzIwMCcsICctaW1hZScsICc8aW5maWxlLm1hZT4nLCAnLW9tYWUnLCAnPG91dGZpbGUubWFlPic=

>  <r_lp_tautomer_probability>  (196) 
1

>  <r_epik_Ionization_Penalty>  (196) 
0.00181357

>  <r_epik_Ionization_Penalty_Charging>  (196) 
0.000488512

>  <r_epik_Ionization_Penalty_Neutral>  (196) 
0.00132505

>  <r_epik_State_Penalty>  (196) 
2.45052e-10

>  <r_epik_Charging_Adjusted_Penalty>  (196) 
0.000488512

>  <i_epik_Tot_Q>  (196) 
1

>  <i_epik_Tot_abs_Q>  (196) 
1

>  <s_lp_Force_Field>  (196) 
OPLS3e

>  <r_lp_Energy>  (196) 
40.3679

>  <b_lp_Chiralities_Consistent>  (196) 
1

>  <s_lp_Variant>  (196) 
58:0-2

>  <s_i_glide_gridfile>  (196) 
pfpi4k_grid

>  <i_i_glide_lignum>  (196) 
40

>  <i_i_glide_rotatable_bonds>  (196) 
2

>  <r_i_docking_score>  (196) 
-2.56561

>  <r_i_glide_ligand_efficiency>  (196) 
-0.0916291

>  <r_i_glide_ligand_efficiency_sa>  (196) 
-0.27824

>  <r_i_glide_ligand_efficiency_ln>  (196) 
-0.592219

>  <r_i_glide_gscore>  (196) 
-2.56561

>  <r_i_glide_lipo>  (196) 
-0.130113

>  <r_i_glide_hbond>  (196) 
-0.0976203

>  <r_i_glide_metal>  (196) 
-0

>  <r_i_glide_rewards>  (196) 
-0.834916

>  <r_i_glide_evdw>  (196) 
-16.3964

>  <r_i_glide_ecoul>  (196) 
-5.97194

>  <r_i_glide_erotb>  (196) 
0.271776

>  <r_i_glide_esite>  (196) 
-0.0591297

>  <r_i_glide_emodel>  (196) 
-23.0771

>  <r_i_glide_energy>  (196) 
-22.3684

>  <r_i_glide_einternal>  (196) 
0.257866

>  <r_i_glide_intrahb_reward>  (196) 
-0

>  <i_i_glide_confnum>  (196) 
2

>  <i_i_glide_posenum>  (196) 
19

>  <r_i_glide_eff_state_penalty>  (196) 
0

>  <ligand_id>  (196) 
58

>  <original_smiles>  (196) 
Cc1nc2ncccc2n1C1CC2CCC(C1)N2C1C2CC3CC(C2)CC1C3

>  <smiles>  (196) 
[H]c1nc2nc(C([H])([H])[H])n(C3([H])C([H])([H])C4([H])C([H])([H])C([H])([H])C([H])(C3([H])[H])[N+]4([H])C3([H])C4([H])C([H])([H])C5([H])C([H])([H])C([H])(C4([H])[H])C([H])([H])C3([H])C5([H])[H])c2c([H])c1[H]

$$$$
58:1:1
     RDKit          3D

 61 67  0  0  1  0  0  0  0  0999 V2000
    0.4292   -4.9911    9.9279 C   0  0  0  0  0  0  0  0  0  0  0  0
    0.5243   -4.1349    8.6980 C   0  0  0  0  0  0  0  0  0  0  0  0
   -0.2191   -3.0212    8.5348 N   0  0  0  0  0  0  0  0  0  0  0  0
    0.2736   -2.4105    7.4150 C   0  0  0  0  0  0  0  0  0  0  0  0
   -0.2211   -1.3051    6.8589 N   0  0  0  0  0  0  0  0  0  0  0  0
    0.3103   -0.8845    5.6876 C   0  0  0  0  0  0  0  0  0  0  0  0
    1.3193   -1.5355    4.9761 C   0  0  0  0  0  0  0  0  0  0  0  0
    1.8373   -2.7306    5.5711 C   0  0  0  0  0  0  0  0  0  0  0  0
    1.3007   -3.1815    6.7522 C   0  0  0  0  0  0  0  0  0  0  0  0
    1.3451   -4.3082    7.6276 N   0  0  0  0  0  0  0  0  0  0  0  0
    2.0901   -5.5775    7.3677 C   0  0  1  0  0  0  0  0  0  0  0  0
    1.2054   -6.8676    7.4666 C   0  0  0  0  0  0  0  0  0  0  0  0
    0.4614   -7.2217    6.1570 C   0  0  1  0  0  0  0  0  0  0  0  0
   -0.3901   -6.0507    5.6351 C   0  0  0  0  0  0  0  0  0  0  0  0
    0.5649   -5.3268    4.6692 C   0  0  0  0  0  0  0  0  0  0  0  0
    1.9359   -6.0383    4.8235 C   0  0  1  0  0  0  0  0  0  0  0  0
    2.8534   -5.6125    6.0342 C   0  0  0  0  0  0  0  0  0  0  0  0
    1.4303   -7.4039    5.0687 N   0  0  1  0  0  0  0  0  0  0  0  0
    2.4055   -8.4949    5.1769 C   0  0  2  0  0  0  0  0  0  0  0  0
    3.2612   -8.5529    3.8849 C   0  0  1  0  0  0  0  0  0  0  0  0
    4.2962   -9.6718    4.0411 C   0  0  0  0  0  0  0  0  0  0  0  0
    3.5588  -11.0081    4.2310 C   0  0  2  0  0  0  0  0  0  0  0  0
    2.6626  -11.2814    3.0051 C   0  0  0  0  0  0  0  0  0  0  0  0
    1.6188  -10.1553    2.8621 C   0  0  2  0  0  0  0  0  0  0  0  0
    2.3573   -8.8198    2.6562 C   0  0  0  0  0  0  0  0  0  0  0  0
    0.7432  -10.0785    4.1287 C   0  0  0  0  0  0  0  0  0  0  0  0
    1.6554   -9.8299    5.3556 C   0  0  1  0  0  0  0  0  0  0  0  0
    2.6917  -10.9496    5.5013 C   0  0  0  0  0  0  0  0  0  0  0  0
    0.1489   -4.3594   10.7775 H   0  0  0  0  0  0  0  0  0  0  0  0
    1.4060   -5.4510   10.1443 H   0  0  0  0  0  0  0  0  0  0  0  0
   -0.3409   -5.7716    9.8398 H   0  0  0  0  0  0  0  0  0  0  0  0
   -0.0782    0.0501    5.2837 H   0  0  0  0  0  0  0  0  0  0  0  0
    1.6192   -1.2566    3.9978 H   0  0  0  0  0  0  0  0  0  0  0  0
    2.4928   -3.2758    4.8908 H   0  0  0  0  0  0  0  0  0  0  0  0
    2.8058   -5.6006    8.1787 H   0  0  0  0  0  0  0  0  0  0  0  0
    1.8079   -7.7199    7.7719 H   0  0  0  0  0  0  0  0  0  0  0  0
    0.4651   -6.8291    8.2446 H   0  0  0  0  0  0  0  0  0  0  0  0
   -0.1990   -8.0735    6.2820 H   0  0  0  0  0  0  0  0  0  0  0  0
   -1.2914   -6.3452    5.0787 H   0  0  0  0  0  0  0  0  0  0  0  0
   -0.7190   -5.3910    6.4438 H   0  0  0  0  0  0  0  0  0  0  0  0
    0.2440   -5.2318    3.6183 H   0  0  0  0  0  0  0  0  0  0  0  0
    0.4867   -4.3408    4.9570 H   0  0  0  0  0  0  0  0  0  0  0  0
    2.5033   -5.9435    3.8803 H   0  0  0  0  0  0  0  0  0  0  0  0
    3.3833   -4.6803    5.8994 H   0  0  0  0  0  0  0  0  0  0  0  0
    3.7159   -6.2701    6.1083 H   0  0  0  0  0  0  0  0  0  0  0  0
    3.0430   -8.3077    6.0428 H   0  0  0  0  0  0  0  0  0  0  0  0
    3.8052   -7.6228    3.7379 H   0  0  0  0  0  0  0  0  0  0  0  0
    4.9339   -9.7060    3.1612 H   0  0  0  0  0  0  0  0  0  0  0  0
    4.9438   -9.4621    4.8938 H   0  0  0  0  0  0  0  0  0  0  0  0
    4.2923  -11.8007    4.3374 H   0  0  0  0  0  0  0  0  0  0  0  0
    3.2749  -11.3282    2.1076 H   0  0  0  0  0  0  0  0  0  0  0  0
    2.1745  -12.2596    3.0879 H   0  0  0  0  0  0  0  0  0  0  0  0
    0.9812  -10.3518    2.0042 H   0  0  0  0  0  0  0  0  0  0  0  0
    1.6387   -8.0147    2.5021 H   0  0  0  0  0  0  0  0  0  0  0  0
    2.9586   -8.8512    1.7495 H   0  0  0  0  0  0  0  0  0  0  0  0
    0.0052   -9.2830    4.0152 H   0  0  0  0  0  0  0  0  0  0  0  0
    0.1639  -10.9871    4.2719 H   0  0  0  0  0  0  0  0  0  0  0  0
    1.0547   -9.8143    6.2663 H   0  0  0  0  0  0  0  0  0  0  0  0
    2.1834  -11.8946    5.6640 H   0  0  0  0  0  0  0  0  0  0  0  0
    3.3023  -10.7755    6.3872 H   0  0  0  0  0  0  0  0  0  0  0  0
    0.8960   -7.6342    4.2456 H   0  0  0  0  0  0  0  0  0  0  0  0
  1  2  1  0
  1 29  1  0
  1 30  1  0
  1 31  1  0
  2 10  1  0
  2  3  2  0
  3  4  1  0
  4  9  2  0
  4  5  1  0
  5  6  2  0
  6  7  1  0
  6 32  1  0
  7  8  2  0
  7 33  1  0
  8  9  1  0
  8 34  1  0
  9 10  1  0
 10 11  1  0
 11 17  1  0
 11 12  1  0
 11 35  1  1
 12 13  1  0
 12 36  1  0
 12 37  1  0
 13 18  1  0
 13 14  1  0
 13 38  1  1
 14 15  1  0
 14 39  1  0
 14 40  1  0
 15 16  1  0
 15 41  1  0
 15 42  1  0
 16 17  1  0
 16 18  1  0
 16 43  1  6
 17 44  1  0
 17 45  1  0
 18 19  1  0
 18 61  1  6
 19 27  1  0
 19 20  1  0
 19 46  1  1
 20 25  1  0
 20 21  1  0
 20 47  1  6
 21 22  1  0
 21 48  1  0
 21 49  1  0
 22 28  1  0
 22 23  1  0
 22 50  1  1
 23 24  1  0
 23 51  1  0
 23 52  1  0
 24 25  1  0
 24 26  1  0
 24 53  1  6
 25 54  1  0
 25 55  1  0
 26 27  1  0
 26 56  1  0
 26 57  1  0
 27 28  1  0
 27 58  1  1
 28 59  1  0
 28 60  1  0
M  CHG  1  18   1
M  END
>  <i_m_ct_stereo_status>  (197) 
1

>  <s_m_source_file>  (197) 
/var/tmp/pbs.5076255.sched01/tmp8yzwbncg/40d_vk9m1l.sdf

>  <i_m_source_file_index>  (197) 
40

>  <i_lp_mmshare_version>  (197) 
48012

>  <i_f3d_flags>  (197) 
0

>  <s_epik_input>  (197) 
bjFbY0hdW2NIXVtjSF1jKGMxMiluKGMobjIpW0NIM10pW0NASF0oW0NIMl1bQ0BASF0zNClbQ0gyXVtDQEhdKFtDSDJdW0NIMl0zKU40W0NASF0oW0NAQEhdNTYpW0NASF03W0NIMl1bQ0BASF0oW0NIMl02KVtDSDJdW0NAQEhdKFtDSDJdNSlbQ0gyXTc=

>  <s_epik_cmdline>  (197) 
J2VwaWtfcHl0aG9uJywgJy1waHQnLCAnMi4wJywgJy1waCcsICc3LjAnLCAnLXRuJywgJzgnLCAnLW1hJywgJzIwMCcsICctaW1hZScsICc8aW5maWxlLm1hZT4nLCAnLW9tYWUnLCAnPG91dGZpbGUubWFlPic=

>  <r_lp_tautomer_probability>  (197) 
1

>  <r_epik_Ionization_Penalty>  (197) 
0.00181357

>  <r_epik_Ionization_Penalty_Charging>  (197) 
0.000488512

>  <r_epik_Ionization_Penalty_Neutral>  (197) 
0.00132505

>  <r_epik_State_Penalty>  (197) 
2.45052e-10

>  <r_epik_Charging_Adjusted_Penalty>  (197) 
0.000488512

>  <i_epik_Tot_Q>  (197) 
1

>  <i_epik_Tot_abs_Q>  (197) 
1

>  <s_lp_Force_Field>  (197) 
OPLS3e

>  <r_lp_Energy>  (197) 
40.3679

>  <b_lp_Chiralities_Consistent>  (197) 
1

>  <s_lp_Variant>  (197) 
58:0-2

>  <s_i_glide_gridfile>  (197) 
pfpi4k_grid

>  <i_i_glide_lignum>  (197) 
40

>  <i_i_glide_rotatable_bonds>  (197) 
2

>  <r_i_docking_score>  (197) 
-2.35615

>  <r_i_glide_ligand_efficiency>  (197) 
-0.0841482

>  <r_i_glide_ligand_efficiency_sa>  (197) 
-0.255524

>  <r_i_glide_ligand_efficiency_ln>  (197) 
-0.543869

>  <r_i_glide_gscore>  (197) 
-2.35615

>  <r_i_glide_lipo>  (197) 
-0.100006

>  <r_i_glide_hbond>  (197) 
-0.141524

>  <r_i_glide_metal>  (197) 
-0

>  <r_i_glide_rewards>  (197) 
-0.834916

>  <r_i_glide_evdw>  (197) 
-14.5749

>  <r_i_glide_ecoul>  (197) 
-5.48317

>  <r_i_glide_erotb>  (197) 
0.271776

>  <r_i_glide_esite>  (197) 
-0.0514209

>  <r_i_glide_emodel>  (197) 
-20.1292

>  <r_i_glide_energy>  (197) 
-20.058

>  <r_i_glide_einternal>  (197) 
0.00623019

>  <r_i_glide_intrahb_reward>  (197) 
-0

>  <i_i_glide_confnum>  (197) 
2

>  <i_i_glide_posenum>  (197) 
21

>  <r_i_glide_eff_state_penalty>  (197) 
0

>  <ligand_id>  (197) 
58

>  <original_smiles>  (197) 
Cc1nc2ncccc2n1C1CC2CCC(C1)N2C1C2CC3CC(C2)CC1C3

>  <smiles>  (197) 
[H]c1nc2nc(C([H])([H])[H])n(C3([H])C([H])([H])C4([H])C([H])([H])C([H])([H])C([H])(C3([H])[H])[N+]4([H])C3([H])C4([H])C([H])([H])C5([H])C([H])([H])C([H])(C4([H])[H])C([H])([H])C3([H])C5([H])[H])c2c([H])c1[H]

$$$$
58:1:2
     RDKit          3D

 61 67  0  0  1  0  0  0  0  0999 V2000
    0.1895   -6.2123    8.2034 C   0  0  0  0  0  0  0  0  0  0  0  0
    0.2271   -5.0943    7.1902 C   0  0  0  0  0  0  0  0  0  0  0  0
   -0.7524   -4.2192    7.0412 N   0  0  0  0  0  0  0  0  0  0  0  0
   -0.2810   -3.2734    6.1713 C   0  0  0  0  0  0  0  0  0  0  0  0
   -0.9970   -2.2094    5.7035 N   0  0  0  0  0  0  0  0  0  0  0  0
   -0.4105   -1.4146    4.7987 C   0  0  0  0  0  0  0  0  0  0  0  0
    0.8923   -1.6052    4.2833 C   0  0  0  0  0  0  0  0  0  0  0  0
    1.6411   -2.6560    4.8156 C   0  0  0  0  0  0  0  0  0  0  0  0
    1.0427   -3.5152    5.7265 C   0  0  0  0  0  0  0  0  0  0  0  0
    1.2640   -4.7854    6.3592 N   0  0  0  0  0  0  0  0  0  0  0  0
    2.4085   -5.6932    6.1082 C   0  0  1  0  0  0  0  0  0  0  0  0
    1.9940   -7.1678    5.7339 C   0  0  0  0  0  0  0  0  0  0  0  0
    1.6998   -7.3659    4.2251 C   0  0  1  0  0  0  0  0  0  0  0  0
    0.6544   -6.3723    3.6963 C   0  0  0  0  0  0  0  0  0  0  0  0
    1.5298   -5.2543    3.1554 C   0  0  0  0  0  0  0  0  0  0  0  0
    2.9690   -5.5377    3.5833 C   0  0  1  0  0  0  0  0  0  0  0  0
    3.4195   -5.1958    5.0562 C   0  0  0  0  0  0  0  0  0  0  0  0
    2.8889   -6.9947    3.4346 N   0  0  1  0  0  0  0  0  0  0  0  0
    4.1215   -7.7804    3.6223 C   0  0  2  0  0  0  0  0  0  0  0  0
    5.2551   -7.1732    2.7635 C   0  0  1  0  0  0  0  0  0  0  0  0
    6.5338   -7.9787    3.0087 C   0  0  0  0  0  0  0  0  0  0  0  0
    6.2903   -9.4362    2.5791 C   0  0  2  0  0  0  0  0  0  0  0  0
    5.9268   -9.4751    1.0791 C   0  0  0  0  0  0  0  0  0  0  0  0
    4.6300   -8.6683    0.8455 C   0  0  2  0  0  0  0  0  0  0  0  0
    4.8765   -7.2075    1.2622 C   0  0  0  0  0  0  0  0  0  0  0  0
    3.4692   -9.2588    1.6824 C   0  0  0  0  0  0  0  0  0  0  0  0
    3.8620   -9.2320    3.1810 C   0  0  1  0  0  0  0  0  0  0  0  0
    5.1429  -10.0444    3.4114 C   0  0  0  0  0  0  0  0  0  0  0  0
   -0.4471   -5.8856    9.0293 H   0  0  0  0  0  0  0  0  0  0  0  0
    1.1882   -6.4110    8.5890 H   0  0  0  0  0  0  0  0  0  0  0  0
   -0.2456   -7.1204    7.7892 H   0  0  0  0  0  0  0  0  0  0  0  0
   -0.9669   -0.5640    4.4624 H   0  0  0  0  0  0  0  0  0  0  0  0
    1.2761   -1.0117    3.4620 H   0  0  0  0  0  0  0  0  0  0  0  0
    2.5396   -2.8613    4.2250 H   0  0  0  0  0  0  0  0  0  0  0  0
    2.9125   -5.7357    7.0732 H   0  0  0  0  0  0  0  0  0  0  0  0
    2.7511   -7.8802    6.0500 H   0  0  0  0  0  0  0  0  0  0  0  0
    1.1312   -7.5041    6.2747 H   0  0  0  0  0  0  0  0  0  0  0  0
    1.3424   -8.3677    4.0075 H   0  0  0  0  0  0  0  0  0  0  0  0
    0.0440   -6.7353    2.8760 H   0  0  0  0  0  0  0  0  0  0  0  0
   -0.0320   -6.0457    4.4883 H   0  0  0  0  0  0  0  0  0  0  0  0
    1.4091   -4.9100    2.1325 H   0  0  0  0  0  0  0  0  0  0  0  0
    1.0439   -4.4323    3.5738 H   0  0  0  0  0  0  0  0  0  0  0  0
    3.6514   -5.0535    2.8737 H   0  0  0  0  0  0  0  0  0  0  0  0
    3.6254   -4.1590    5.2409 H   0  0  0  0  0  0  0  0  0  0  0  0
    4.4125   -5.5958    5.2522 H   0  0  0  0  0  0  0  0  0  0  0  0
    4.3896   -7.7377    4.6736 H   0  0  0  0  0  0  0  0  0  0  0  0
    5.4641   -6.1455    3.0601 H   0  0  0  0  0  0  0  0  0  0  0  0
    7.3587   -7.5416    2.4480 H   0  0  0  0  0  0  0  0  0  0  0  0
    6.8101   -7.9249    4.0631 H   0  0  0  0  0  0  0  0  0  0  0  0
    7.2032  -10.0028    2.7519 H   0  0  0  0  0  0  0  0  0  0  0  0
    6.7432   -9.0590    0.4879 H   0  0  0  0  0  0  0  0  0  0  0  0
    5.8098  -10.5050    0.7386 H   0  0  0  0  0  0  0  0  0  0  0  0
    4.3610   -8.7007   -0.2092 H   0  0  0  0  0  0  0  0  0  0  0  0
    3.9876   -6.6058    1.0580 H   0  0  0  0  0  0  0  0  0  0  0  0
    5.6688   -6.7622    0.6639 H   0  0  0  0  0  0  0  0  0  0  0  0
    2.5600   -8.6756    1.5037 H   0  0  0  0  0  0  0  0  0  0  0  0
    3.2233  -10.2612    1.3706 H   0  0  0  0  0  0  0  0  0  0  0  0
    3.0619   -9.6787    3.7773 H   0  0  0  0  0  0  0  0  0  0  0  0
    4.9747  -11.0852    3.1372 H   0  0  0  0  0  0  0  0  0  0  0  0
    5.3967  -10.0408    4.4743 H   0  0  0  0  0  0  0  0  0  0  0  0
    2.6546   -7.1509    2.4693 H   0  0  0  0  0  0  0  0  0  0  0  0
  1  2  1  0
  1 29  1  0
  1 30  1  0
  1 31  1  0
  2 10  1  0
  2  3  2  0
  3  4  1  0
  4  9  2  0
  4  5  1  0
  5  6  2  0
  6  7  1  0
  6 32  1  0
  7  8  2  0
  7 33  1  0
  8  9  1  0
  8 34  1  0
  9 10  1  0
 10 11  1  0
 11 17  1  0
 11 12  1  0
 11 35  1  1
 12 13  1  0
 12 36  1  0
 12 37  1  0
 13 18  1  0
 13 14  1  0
 13 38  1  1
 14 15  1  0
 14 39  1  0
 14 40  1  0
 15 16  1  0
 15 41  1  0
 15 42  1  0
 16 17  1  0
 16 18  1  0
 16 43  1  6
 17 44  1  0
 17 45  1  0
 18 19  1  0
 18 61  1  6
 19 27  1  0
 19 20  1  0
 19 46  1  1
 20 25  1  0
 20 21  1  0
 20 47  1  1
 21 22  1  0
 21 48  1  0
 21 49  1  0
 22 28  1  0
 22 23  1  0
 22 50  1  6
 23 24  1  0
 23 51  1  0
 23 52  1  0
 24 25  1  0
 24 26  1  0
 24 53  1  6
 25 54  1  0
 25 55  1  0
 26 27  1  0
 26 56  1  0
 26 57  1  0
 27 28  1  0
 27 58  1  1
 28 59  1  0
 28 60  1  0
M  CHG  1  18   1
M  END
>  <i_m_ct_stereo_status>  (198) 
1

>  <s_m_source_file>  (198) 
/var/tmp/pbs.5076255.sched01/tmp8yzwbncg/40d_vk9m1l.sdf

>  <i_m_source_file_index>  (198) 
40

>  <i_lp_mmshare_version>  (198) 
48012

>  <i_f3d_flags>  (198) 
0

>  <s_epik_input>  (198) 
bjFbY0hdW2NIXVtjSF1jKGMxMiluKGMobjIpW0NIM10pW0NASF0oW0NIMl1bQ0BASF0zNClbQ0gyXVtDQEhdKFtDSDJdW0NIMl0zKU40W0NASF0oW0NAQEhdNTYpW0NASF03W0NIMl1bQ0BASF0oW0NIMl02KVtDSDJdW0NAQEhdKFtDSDJdNSlbQ0gyXTc=

>  <s_epik_cmdline>  (198) 
J2VwaWtfcHl0aG9uJywgJy1waHQnLCAnMi4wJywgJy1waCcsICc3LjAnLCAnLXRuJywgJzgnLCAnLW1hJywgJzIwMCcsICctaW1hZScsICc8aW5maWxlLm1hZT4nLCAnLW9tYWUnLCAnPG91dGZpbGUubWFlPic=

>  <r_lp_tautomer_probability>  (198) 
1

>  <r_epik_Ionization_Penalty>  (198) 
0.00181357

>  <r_epik_Ionization_Penalty_Charging>  (198) 
0.000488512

>  <r_epik_Ionization_Penalty_Neutral>  (198) 
0.00132505

>  <r_epik_State_Penalty>  (198) 
2.45052e-10

>  <r_epik_Charging_Adjusted_Penalty>  (198) 
0.000488512

>  <i_epik_Tot_Q>  (198) 
1

>  <i_epik_Tot_abs_Q>  (198) 
1

>  <s_lp_Force_Field>  (198) 
OPLS3e

>  <r_lp_Energy>  (198) 
40.3679

>  <b_lp_Chiralities_Consistent>  (198) 
1

>  <s_lp_Variant>  (198) 
58:0-2

>  <s_i_glide_gridfile>  (198) 
pfpi4k_grid

>  <i_i_glide_lignum>  (198) 
40

>  <i_i_glide_rotatable_bonds>  (198) 
2

>  <r_i_docking_score>  (198) 
-1.86815

>  <r_i_glide_ligand_efficiency>  (198) 
-0.0667198

>  <r_i_glide_ligand_efficiency_sa>  (198) 
-0.202601

>  <r_i_glide_ligand_efficiency_ln>  (198) 
-0.431225

>  <r_i_glide_gscore>  (198) 
-1.86815

>  <r_i_glide_lipo>  (198) 
-0.112589

>  <r_i_glide_hbond>  (198) 
0

>  <r_i_glide_metal>  (198) 
-0

>  <r_i_glide_rewards>  (198) 
-0.834916

>  <r_i_glide_evdw>  (198) 
-19.3795

>  <r_i_glide_ecoul>  (198) 
-2.89171

>  <r_i_glide_erotb>  (198) 
0.271776

>  <r_i_glide_esite>  (198) 
-0.0210862

>  <r_i_glide_emodel>  (198) 
-20.9551

>  <r_i_glide_energy>  (198) 
-22.2712

>  <r_i_glide_einternal>  (198) 
0.244902

>  <r_i_glide_intrahb_reward>  (198) 
-0

>  <i_i_glide_confnum>  (198) 
2

>  <i_i_glide_posenum>  (198) 
35

>  <r_i_glide_eff_state_penalty>  (198) 
0

>  <ligand_id>  (198) 
58

>  <original_smiles>  (198) 
Cc1nc2ncccc2n1C1CC2CCC(C1)N2C1C2CC3CC(C2)CC1C3

>  <smiles>  (198) 
[H]c1nc2nc(C([H])([H])[H])n(C3([H])C([H])([H])C4([H])C([H])([H])C([H])([H])C([H])(C3([H])[H])[N+]4([H])C3([H])C4([H])C([H])([H])C5([H])C([H])([H])C([H])(C4([H])[H])C([H])([H])C3([H])C5([H])[H])c2c([H])c1[H]

$$$$
59:0:0
     RDKit          3D

 53 56  0  0  1  0  0  0  0  0999 V2000
    4.2140   -0.9532   -2.8477 C   0  0  0  0  0  0  0  0  0  0  0  0
    4.1112   -2.4458   -2.4512 C   0  0  0  0  0  0  0  0  0  0  0  0
    3.0387   -3.0125   -3.4148 C   0  0  0  0  0  0  0  0  0  0  0  0
    5.4298   -3.1975   -2.7452 C   0  0  0  0  0  0  0  0  0  0  0  0
    6.5725   -2.8579   -1.7784 C   0  0  0  0  0  0  0  0  0  0  0  0
    6.1702   -3.0891   -0.3174 C   0  0  0  0  0  0  0  0  0  0  0  0
    4.8875   -2.3157    0.1172 C   0  0  1  0  0  0  0  0  0  0  0  0
    5.1978   -0.7935    0.1302 C   0  0  0  0  0  0  0  0  0  0  0  0
    3.7388   -2.6307   -0.9228 C   0  0  2  0  0  0  0  0  0  0  0  0
    3.1673   -4.0401   -0.6502 C   0  0  0  0  0  0  0  0  0  0  0  0
    2.6117   -4.2018    0.7562 C   0  0  1  0  0  0  0  0  0  0  0  0
    1.9314   -5.4473    0.8567 O   0  0  0  0  0  0  0  0  0  0  0  0
    3.6737   -4.0183    1.8448 C   0  0  1  0  0  0  0  0  0  0  0  0
    4.6478   -5.2194    2.0493 C   0  0  0  0  0  0  0  0  0  0  0  0
    4.9372   -5.2953    3.5611 C   0  0  0  0  0  0  0  0  0  0  0  0
    4.1923   -4.0974    4.1619 C   0  0  1  0  0  0  0  0  0  0  0  0
    3.8043   -4.3418    5.4979 O   0  0  0  0  0  0  0  0  0  0  0  0
    5.0107   -2.8009    4.1205 C   0  0  0  0  0  0  0  0  0  0  0  0
    5.4713   -2.4400    2.6953 C   0  0  0  0  0  0  0  0  0  0  0  0
    4.4010   -2.6512    1.5972 C   0  0  1  0  0  0  0  0  0  0  0  0
    3.0000   -3.9427    3.2320 C   0  0  0  0  0  0  0  0  0  0  0  0
    3.8990   -0.7620   -3.8741 H   0  0  0  0  0  0  0  0  0  0  0  0
    5.2300   -0.5895   -2.7855 H   0  0  0  0  0  0  0  0  0  0  0  0
    3.5813   -0.3234   -2.2207 H   0  0  0  0  0  0  0  0  0  0  0  0
    3.0262   -4.1001   -3.4265 H   0  0  0  0  0  0  0  0  0  0  0  0
    3.2340   -2.7283   -4.4516 H   0  0  0  0  0  0  0  0  0  0  0  0
    2.0389   -2.6501   -3.1595 H   0  0  0  0  0  0  0  0  0  0  0  0
    5.2585   -4.2756   -2.7110 H   0  0  0  0  0  0  0  0  0  0  0  0
    5.7478   -2.9988   -3.7647 H   0  0  0  0  0  0  0  0  0  0  0  0
    7.4406   -3.4700   -2.0239 H   0  0  0  0  0  0  0  0  0  0  0  0
    6.9084   -1.8438   -1.9275 H   0  0  0  0  0  0  0  0  0  0  0  0
    6.0169   -4.1607   -0.2314 H   0  0  0  0  0  0  0  0  0  0  0  0
    7.0129   -2.8462    0.3266 H   0  0  0  0  0  0  0  0  0  0  0  0
    4.2933   -0.2047    0.2936 H   0  0  0  0  0  0  0  0  0  0  0  0
    5.6545   -0.4401   -0.7798 H   0  0  0  0  0  0  0  0  0  0  0  0
    5.9206   -0.5083    0.8917 H   0  0  0  0  0  0  0  0  0  0  0  0
    2.9206   -1.9374   -0.7190 H   0  0  0  0  0  0  0  0  0  0  0  0
    2.3316   -4.2310   -1.3172 H   0  0  0  0  0  0  0  0  0  0  0  0
    3.9126   -4.8109   -0.8431 H   0  0  0  0  0  0  0  0  0  0  0  0
    1.8688   -3.4109    0.9006 H   0  0  0  0  0  0  0  0  0  0  0  0
    2.5624   -6.1491    0.7471 H   0  0  0  0  0  0  0  0  0  0  0  0
    4.2033   -6.1638    1.7396 H   0  0  0  0  0  0  0  0  0  0  0  0
    5.5794   -5.1350    1.5026 H   0  0  0  0  0  0  0  0  0  0  0  0
    4.5365   -6.2294    3.9543 H   0  0  0  0  0  0  0  0  0  0  0  0
    6.0041   -5.2866    3.7858 H   0  0  0  0  0  0  0  0  0  0  0  0
    3.3319   -5.1558    5.5332 H   0  0  0  0  0  0  0  0  0  0  0  0
    4.4217   -1.9798    4.5329 H   0  0  0  0  0  0  0  0  0  0  0  0
    5.8793   -2.9111    4.7702 H   0  0  0  0  0  0  0  0  0  0  0  0
    5.8192   -1.4111    2.7391 H   0  0  0  0  0  0  0  0  0  0  0  0
    6.3368   -3.0495    2.4509 H   0  0  0  0  0  0  0  0  0  0  0  0
    3.6455   -1.8905    1.8016 H   0  0  0  0  0  0  0  0  0  0  0  0
    2.4590   -3.0092    3.4002 H   0  0  0  0  0  0  0  0  0  0  0  0
    2.2982   -4.7638    3.3802 H   0  0  0  0  0  0  0  0  0  0  0  0
  1  2  1  0
  1 22  1  0
  1 23  1  0
  1 24  1  0
  2  9  1  0
  2  3  1  0
  2  4  1  0
  3 25  1  0
  3 26  1  0
  3 27  1  0
  4  5  1  0
  4 28  1  0
  4 29  1  0
  5  6  1  0
  5 30  1  0
  5 31  1  0
  6  7  1  0
  6 32  1  0
  6 33  1  0
  7 20  1  0
  7  8  1  1
  7  9  1  0
  8 34  1  0
  8 35  1  0
  8 36  1  0
  9 10  1  0
  9 37  1  1
 10 11  1  0
 10 38  1  0
 10 39  1  0
 11 12  1  0
 11 13  1  0
 11 40  1  1
 12 41  1  0
 13 20  1  0
 13 21  1  0
 13 14  1  1
 14 15  1  0
 14 42  1  0
 14 43  1  0
 15 16  1  0
 15 44  1  0
 15 45  1  0
 16 17  1  1
 16 18  1  0
 16 21  1  0
 17 46  1  0
 18 19  1  0
 18 47  1  0
 18 48  1  0
 19 20  1  0
 19 49  1  0
 19 50  1  0
 20 51  1  1
 21 52  1  0
 21 53  1  0
M  END
>  <i_m_ct_stereo_status>  (199) 
1

>  <s_m_source_file>  (199) 
/var/tmp/pbs.5076255.sched01/tmplj_yfvzq/807e0r74np.sdf

>  <i_m_source_file_index>  (199) 
1

>  <i_lp_mmshare_version>  (199) 
48012

>  <i_f3d_flags>  (199) 
0

>  <s_epik_input>  (199) 
W0NIMl0xW0NIMl1bQ0gyXUMoW0NIM10pKFtDSDNdKVtDQEBIXShbQ0gyXVtDQEhdMltPSF0pW0NAQF0xKFtDSDNdKVtDQEBIXShbQ0BAXTIzNClbQ0gyXVtDSDJdW0NAQF0oW09IXSkoW0NIMl00KVtDSDJdW0NIMl0z

>  <s_epik_cmdline>  (199) 
J2VwaWtfcHl0aG9uJywgJy1waHQnLCAnMi4wJywgJy1waCcsICc3LjAnLCAnLXRuJywgJzgnLCAnLW1hJywgJzIwMCcsICctaW1hZScsICc8aW5maWxlLm1hZT4nLCAnLW9tYWUnLCAnPG91dGZpbGUubWFlPic=

>  <r_lp_tautomer_probability>  (199) 
1

>  <r_epik_Ionization_Penalty>  (199) 
6.10744e-06

>  <r_epik_Ionization_Penalty_Charging>  (199) 
0

>  <r_epik_Ionization_Penalty_Neutral>  (199) 
6.10744e-06

>  <r_epik_State_Penalty>  (199) 
-0

>  <r_epik_Charging_Adjusted_Penalty>  (199) 
0

>  <i_epik_Tot_Q>  (199) 
0

>  <i_epik_Tot_abs_Q>  (199) 
0

>  <s_lp_Force_Field>  (199) 
OPLS3e

>  <r_lp_Energy>  (199) 
65.2639

>  <b_lp_Chiralities_Consistent>  (199) 
1

>  <s_lp_Variant>  (199) 
59:0-1

>  <s_i_glide_gridfile>  (199) 
pfpi4k_grid

>  <i_i_glide_lignum>  (199) 
1

>  <i_i_glide_rotatable_bonds>  (199) 
2

>  <r_i_docking_score>  (199) 
-3.71146

>  <r_i_glide_ligand_efficiency>  (199) 
-0.176736

>  <r_i_glide_ligand_efficiency_sa>  (199) 
-0.487602

>  <r_i_glide_ligand_efficiency_ln>  (199) 
-0.917651

>  <r_i_glide_gscore>  (199) 
-3.71146

>  <r_i_glide_lipo>  (199) 
-0.728861

>  <r_i_glide_hbond>  (199) 
-0.0710904

>  <r_i_glide_metal>  (199) 
-0

>  <r_i_glide_rewards>  (199) 
-1.41507

>  <r_i_glide_evdw>  (199) 
-22.1637

>  <r_i_glide_ecoul>  (199) 
-2.58836

>  <r_i_glide_erotb>  (199) 
0

>  <r_i_glide_esite>  (199) 
0

>  <r_i_glide_emodel>  (199) 
-30.2908

>  <r_i_glide_energy>  (199) 
-24.752

>  <r_i_glide_einternal>  (199) 
0.0214794

>  <r_i_glide_intrahb_reward>  (199) 
-0

>  <i_i_glide_confnum>  (199) 
1

>  <i_i_glide_posenum>  (199) 
8

>  <r_i_glide_eff_state_penalty>  (199) 
0

>  <ligand_id>  (199) 
59

>  <original_smiles>  (199) 
CC1(C)CCCC2(C)C1CC(O)C13CCC(O)(CCC21)C3

>  <smiles>  (199) 
[H]OC1([H])C([H])([H])C2([H])C(C([H])([H])[H])(C([H])([H])[H])C([H])([H])C([H])([H])C([H])([H])C2(C([H])([H])[H])C2([H])C([H])([H])C([H])([H])C3(O[H])C([H])([H])C([H])([H])C12C3([H])[H]

$$$$
59:0:1
     RDKit          3D

 53 56  0  0  1  0  0  0  0  0999 V2000
    4.6166   -0.8627   -2.4679 C   0  0  0  0  0  0  0  0  0  0  0  0
    4.4691   -2.3764   -2.2099 C   0  0  0  0  0  0  0  0  0  0  0  0
    3.4914   -2.8455   -3.3149 C   0  0  0  0  0  0  0  0  0  0  0  0
    5.8095   -3.1175   -2.4352 C   0  0  0  0  0  0  0  0  0  0  0  0
    6.8433   -2.8805   -1.3230 C   0  0  0  0  0  0  0  0  0  0  0  0
    6.2785   -3.2332    0.0610 C   0  0  0  0  0  0  0  0  0  0  0  0
    4.9752   -2.4631    0.4251 C   0  0  1  0  0  0  0  0  0  0  0  0
    5.3113   -0.9540    0.5909 C   0  0  0  0  0  0  0  0  0  0  0  0
    3.9346   -2.6726   -0.7493 C   0  0  2  0  0  0  0  0  0  0  0  0
    3.3158   -4.0863   -0.6505 C   0  0  0  0  0  0  0  0  0  0  0  0
    2.6025   -4.3237    0.6715 C   0  0  1  0  0  0  0  0  0  0  0  0
    1.8759   -5.5364    0.5964 O   0  0  0  0  0  0  0  0  0  0  0  0
    3.5541   -4.2619    1.8765 C   0  0  1  0  0  0  0  0  0  0  0  0
    4.4728   -5.5062    2.0811 C   0  0  0  0  0  0  0  0  0  0  0  0
    4.6040   -5.7116    3.6021 C   0  0  0  0  0  0  0  0  0  0  0  0
    3.8389   -4.5408    4.2224 C   0  0  1  0  0  0  0  0  0  0  0  0
    3.2941   -4.8928    5.4749 O   0  0  0  0  0  0  0  0  0  0  0  0
    4.7065   -3.2769    4.3730 C   0  0  0  0  0  0  0  0  0  0  0  0
    5.3188   -2.8204    3.0338 C   0  0  0  0  0  0  0  0  0  0  0  0
    4.3489   -2.9066    1.8211 C   0  0  1  0  0  0  0  0  0  0  0  0
    2.7507   -4.2738    3.1928 C   0  0  0  0  0  0  0  0  0  0  0  0
    4.3949   -0.5797   -3.4963 H   0  0  0  0  0  0  0  0  0  0  0  0
    5.6364   -0.5280   -2.3118 H   0  0  0  0  0  0  0  0  0  0  0  0
    3.9589   -0.2770   -1.8293 H   0  0  0  0  0  0  0  0  0  0  0  0
    3.4447   -3.9293   -3.3906 H   0  0  0  0  0  0  0  0  0  0  0  0
    3.8016   -2.5022   -4.3046 H   0  0  0  0  0  0  0  0  0  0  0  0
    2.4820   -2.4650   -3.1386 H   0  0  0  0  0  0  0  0  0  0  0  0
    5.6221   -4.1885   -2.5064 H   0  0  0  0  0  0  0  0  0  0  0  0
    6.2323   -2.8362   -3.3987 H   0  0  0  0  0  0  0  0  0  0  0  0
    7.7212   -3.4944   -1.5262 H   0  0  0  0  0  0  0  0  0  0  0  0
    7.2059   -1.8607   -1.3406 H   0  0  0  0  0  0  0  0  0  0  0  0
    6.0971   -4.2987    0.0362 H   0  0  0  0  0  0  0  0  0  0  0  0
    7.0524   -3.0704    0.8096 H   0  0  0  0  0  0  0  0  0  0  0  0
    4.4076   -0.3556    0.7104 H   0  0  0  0  0  0  0  0  0  0  0  0
    5.8641   -0.5374   -0.2367 H   0  0  0  0  0  0  0  0  0  0  0  0
    5.9545   -0.7525    1.4433 H   0  0  0  0  0  0  0  0  0  0  0  0
    3.1039   -1.9845   -0.5814 H   0  0  0  0  0  0  0  0  0  0  0  0
    2.5525   -4.2214   -1.4117 H   0  0  0  0  0  0  0  0  0  0  0  0
    4.0665   -4.8543   -0.8242 H   0  0  0  0  0  0  0  0  0  0  0  0
    1.8556   -3.5337    0.7931 H   0  0  0  0  0  0  0  0  0  0  0  0
    2.4826   -6.2343    0.3901 H   0  0  0  0  0  0  0  0  0  0  0  0
    4.0354   -6.4075    1.6524 H   0  0  0  0  0  0  0  0  0  0  0  0
    5.4586   -5.4090    1.6403 H   0  0  0  0  0  0  0  0  0  0  0  0
    4.1331   -6.6556    3.8794 H   0  0  0  0  0  0  0  0  0  0  0  0
    5.6419   -5.7600    3.9345 H   0  0  0  0  0  0  0  0  0  0  0  0
    4.0104   -5.0808    6.0656 H   0  0  0  0  0  0  0  0  0  0  0  0
    4.0931   -2.4731    4.7857 H   0  0  0  0  0  0  0  0  0  0  0  0
    5.5063   -3.4480    5.0936 H   0  0  0  0  0  0  0  0  0  0  0  0
    5.6700   -1.8059    3.1974 H   0  0  0  0  0  0  0  0  0  0  0  0
    6.2080   -3.4205    2.8367 H   0  0  0  0  0  0  0  0  0  0  0  0
    3.5895   -2.1454    2.0160 H   0  0  0  0  0  0  0  0  0  0  0  0
    2.2060   -3.3467    3.3823 H   0  0  0  0  0  0  0  0  0  0  0  0
    2.0232   -5.0868    3.2055 H   0  0  0  0  0  0  0  0  0  0  0  0
  1  2  1  0
  1 22  1  0
  1 23  1  0
  1 24  1  0
  2  9  1  0
  2  3  1  0
  2  4  1  0
  3 25  1  0
  3 26  1  0
  3 27  1  0
  4  5  1  0
  4 28  1  0
  4 29  1  0
  5  6  1  0
  5 30  1  0
  5 31  1  0
  6  7  1  0
  6 32  1  0
  6 33  1  0
  7 20  1  0
  7  8  1  1
  7  9  1  0
  8 34  1  0
  8 35  1  0
  8 36  1  0
  9 10  1  0
  9 37  1  1
 10 11  1  0
 10 38  1  0
 10 39  1  0
 11 12  1  0
 11 13  1  0
 11 40  1  1
 12 41  1  0
 13 20  1  0
 13 21  1  0
 13 14  1  1
 14 15  1  0
 14 42  1  0
 14 43  1  0
 15 16  1  0
 15 44  1  0
 15 45  1  0
 16 17  1  1
 16 18  1  0
 16 21  1  0
 17 46  1  0
 18 19  1  0
 18 47  1  0
 18 48  1  0
 19 20  1  0
 19 49  1  0
 19 50  1  0
 20 51  1  1
 21 52  1  0
 21 53  1  0
M  END
>  <i_m_ct_stereo_status>  (200) 
1

>  <s_m_source_file>  (200) 
/var/tmp/pbs.5076255.sched01/tmplj_yfvzq/807e0r74np.sdf

>  <i_m_source_file_index>  (200) 
1

>  <i_lp_mmshare_version>  (200) 
48012

>  <i_f3d_flags>  (200) 
0

>  <s_epik_input>  (200) 
W0NIMl0xW0NIMl1bQ0gyXUMoW0NIM10pKFtDSDNdKVtDQEBIXShbQ0gyXVtDQEhdMltPSF0pW0NAQF0xKFtDSDNdKVtDQEBIXShbQ0BAXTIzNClbQ0gyXVtDSDJdW0NAQF0oW09IXSkoW0NIMl00KVtDSDJdW0NIMl0z

>  <s_epik_cmdline>  (200) 
J2VwaWtfcHl0aG9uJywgJy1waHQnLCAnMi4wJywgJy1waCcsICc3LjAnLCAnLXRuJywgJzgnLCAnLW1hJywgJzIwMCcsICctaW1hZScsICc8aW5maWxlLm1hZT4nLCAnLW9tYWUnLCAnPG91dGZpbGUubWFlPic=

>  <r_lp_tautomer_probability>  (200) 
1

>  <r_epik_Ionization_Penalty>  (200) 
6.10744e-06

>  <r_epik_Ionization_Penalty_Charging>  (200) 
0

>  <r_epik_Ionization_Penalty_Neutral>  (200) 
6.10744e-06

>  <r_epik_State_Penalty>  (200) 
-0

>  <r_epik_Charging_Adjusted_Penalty>  (200) 
0

>  <i_epik_Tot_Q>  (200) 
0

>  <i_epik_Tot_abs_Q>  (200) 
0

>  <s_lp_Force_Field>  (200) 
OPLS3e

>  <r_lp_Energy>  (200) 
65.2639

>  <b_lp_Chiralities_Consistent>  (200) 
1

>  <s_lp_Variant>  (200) 
59:0-1

>  <s_i_glide_gridfile>  (200) 
pfpi4k_grid

>  <i_i_glide_lignum>  (200) 
1

>  <i_i_glide_rotatable_bonds>  (200) 
2

>  <r_i_docking_score>  (200) 
-3.6615

>  <r_i_glide_ligand_efficiency>  (200) 
-0.174357

>  <r_i_glide_ligand_efficiency_sa>  (200) 
-0.481038

>  <r_i_glide_ligand_efficiency_ln>  (200) 
-0.905298

>  <r_i_glide_gscore>  (200) 
-3.6615

>  <r_i_glide_lipo>  (200) 
-0.704315

>  <r_i_glide_hbond>  (200) 
-0.0822749

>  <r_i_glide_metal>  (200) 
-0

>  <r_i_glide_rewards>  (200) 
-1.41507

>  <r_i_glide_evdw>  (200) 
-22.4769

>  <r_i_glide_ecoul>  (200) 
-2.23995

>  <r_i_glide_erotb>  (200) 
0

>  <r_i_glide_esite>  (200) 
0

>  <r_i_glide_emodel>  (200) 
-30.1726

>  <r_i_glide_energy>  (200) 
-24.7168

>  <r_i_glide_einternal>  (200) 
0.091776

>  <r_i_glide_intrahb_reward>  (200) 
-0

>  <i_i_glide_confnum>  (200) 
1

>  <i_i_glide_posenum>  (200) 
33

>  <r_i_glide_eff_state_penalty>  (200) 
0

>  <ligand_id>  (200) 
59

>  <original_smiles>  (200) 
CC1(C)CCCC2(C)C1CC(O)C13CCC(O)(CCC21)C3

>  <smiles>  (200) 
[H]OC1([H])C([H])([H])C2([H])C(C([H])([H])[H])(C([H])([H])[H])C([H])([H])C([H])([H])C([H])([H])C2(C([H])([H])[H])C2([H])C([H])([H])C([H])([H])C3(O[H])C([H])([H])C([H])([H])C12C3([H])[H]

$$$$
59:0:2
     RDKit          3D

 53 56  0  0  1  0  0  0  0  0999 V2000
    4.6232   -0.8787   -2.4647 C   0  0  0  0  0  0  0  0  0  0  0  0
    4.4719   -2.3886   -2.1802 C   0  0  0  0  0  0  0  0  0  0  0  0
    3.4960   -2.8774   -3.2770 C   0  0  0  0  0  0  0  0  0  0  0  0
    5.8121   -3.1337   -2.3908 C   0  0  0  0  0  0  0  0  0  0  0  0
    6.8461   -2.8792   -1.2833 C   0  0  0  0  0  0  0  0  0  0  0  0
    6.2792   -3.2066    0.1051 C   0  0  0  0  0  0  0  0  0  0  0  0
    4.9752   -2.4302    0.4554 C   0  0  1  0  0  0  0  0  0  0  0  0
    5.3133   -0.9181    0.5934 C   0  0  0  0  0  0  0  0  0  0  0  0
    3.9365   -2.6624   -0.7160 C   0  0  2  0  0  0  0  0  0  0  0  0
    3.3180   -4.0772   -0.5917 C   0  0  0  0  0  0  0  0  0  0  0  0
    2.6057   -4.2878    0.7357 C   0  0  1  0  0  0  0  0  0  0  0  0
    1.8765   -5.5018    0.6977 O   0  0  0  0  0  0  0  0  0  0  0  0
    3.5528   -4.1986    1.9394 C   0  0  1  0  0  0  0  0  0  0  0  0
    4.4691   -5.4398    2.1702 C   0  0  0  0  0  0  0  0  0  0  0  0
    4.5940   -5.6162    3.6953 C   0  0  0  0  0  0  0  0  0  0  0  0
    3.8304   -4.4320    4.2896 C   0  0  1  0  0  0  0  0  0  0  0  0
    3.2820   -4.7603    5.5481 O   0  0  0  0  0  0  0  0  0  0  0  0
    4.7037   -3.1695    4.4163 C   0  0  0  0  0  0  0  0  0  0  0  0
    5.3160   -2.7390    3.0681 C   0  0  0  0  0  0  0  0  0  0  0  0
    4.3465   -2.8450    1.8578 C   0  0  1  0  0  0  0  0  0  0  0  0
    2.7454   -4.1826    3.2528 C   0  0  0  0  0  0  0  0  0  0  0  0
    4.4063   -0.6156   -3.5002 H   0  0  0  0  0  0  0  0  0  0  0  0
    5.6447   -0.5433   -2.3187 H   0  0  0  0  0  0  0  0  0  0  0  0
    3.9675   -0.2707   -1.8418 H   0  0  0  0  0  0  0  0  0  0  0  0
    3.4516   -3.9619   -3.3352 H   0  0  0  0  0  0  0  0  0  0  0  0
    3.8061   -2.5523   -4.2735 H   0  0  0  0  0  0  0  0  0  0  0  0
    2.4849   -2.4968   -3.1090 H   0  0  0  0  0  0  0  0  0  0  0  0
    5.6234   -4.2079   -2.4427 H   0  0  0  0  0  0  0  0  0  0  0  0
    6.2375   -2.8734   -3.3595 H   0  0  0  0  0  0  0  0  0  0  0  0
    7.7232   -3.4990   -1.4723 H   0  0  0  0  0  0  0  0  0  0  0  0
    7.2089   -1.8580   -1.3191 H   0  0  0  0  0  0  0  0  0  0  0  0
    6.0955   -4.2749    0.1014 H   0  0  0  0  0  0  0  0  0  0  0  0
    7.0528   -3.0320    0.8517 H   0  0  0  0  0  0  0  0  0  0  0  0
    4.4105   -0.3155    0.7015 H   0  0  0  0  0  0  0  0  0  0  0  0
    5.8690   -0.5163   -0.2401 H   0  0  0  0  0  0  0  0  0  0  0  0
    5.9560   -0.7014    1.4433 H   0  0  0  0  0  0  0  0  0  0  0  0
    3.1054   -1.9721   -0.5606 H   0  0  0  0  0  0  0  0  0  0  0  0
    2.5534   -4.2242   -1.3502 H   0  0  0  0  0  0  0  0  0  0  0  0
    4.0649   -4.8528   -0.7511 H   0  0  0  0  0  0  0  0  0  0  0  0
    1.8609   -3.4939    0.8364 H   0  0  0  0  0  0  0  0  0  0  0  0
    2.4894   -6.2144    0.5992 H   0  0  0  0  0  0  0  0  0  0  0  0
    4.0343   -6.3505    1.7588 H   0  0  0  0  0  0  0  0  0  0  0  0
    5.4559   -5.3525    1.7301 H   0  0  0  0  0  0  0  0  0  0  0  0
    4.1228   -6.5537    3.9931 H   0  0  0  0  0  0  0  0  0  0  0  0
    5.6305   -5.6568    4.0333 H   0  0  0  0  0  0  0  0  0  0  0  0
    2.8522   -3.9937    5.8980 H   0  0  0  0  0  0  0  0  0  0  0  0
    4.0988   -2.3532    4.8146 H   0  0  0  0  0  0  0  0  0  0  0  0
    5.5009   -3.3359    5.1402 H   0  0  0  0  0  0  0  0  0  0  0  0
    5.6725   -1.7237    3.2131 H   0  0  0  0  0  0  0  0  0  0  0  0
    6.2046   -3.3439    2.8774 H   0  0  0  0  0  0  0  0  0  0  0  0
    3.5874   -2.0797    2.0374 H   0  0  0  0  0  0  0  0  0  0  0  0
    2.1983   -3.2516    3.4184 H   0  0  0  0  0  0  0  0  0  0  0  0
    2.0168   -4.9956    3.2786 H   0  0  0  0  0  0  0  0  0  0  0  0
  1  2  1  0
  1 22  1  0
  1 23  1  0
  1 24  1  0
  2  9  1  0
  2  3  1  0
  2  4  1  0
  3 25  1  0
  3 26  1  0
  3 27  1  0
  4  5  1  0
  4 28  1  0
  4 29  1  0
  5  6  1  0
  5 30  1  0
  5 31  1  0
  6  7  1  0
  6 32  1  0
  6 33  1  0
  7 20  1  0
  7  8  1  1
  7  9  1  0
  8 34  1  0
  8 35  1  0
  8 36  1  0
  9 10  1  0
  9 37  1  1
 10 11  1  0
 10 38  1  0
 10 39  1  0
 11 12  1  0
 11 13  1  0
 11 40  1  1
 12 41  1  0
 13 20  1  0
 13 21  1  0
 13 14  1  1
 14 15  1  0
 14 42  1  0
 14 43  1  0
 15 16  1  0
 15 44  1  0
 15 45  1  0
 16 17  1  1
 16 18  1  0
 16 21  1  0
 17 46  1  0
 18 19  1  0
 18 47  1  0
 18 48  1  0
 19 20  1  0
 19 49  1  0
 19 50  1  0
 20 51  1  1
 21 52  1  0
 21 53  1  0
M  END
>  <i_m_ct_stereo_status>  (201) 
1

>  <s_m_source_file>  (201) 
/var/tmp/pbs.5076255.sched01/tmplj_yfvzq/807e0r74np.sdf

>  <i_m_source_file_index>  (201) 
1

>  <i_lp_mmshare_version>  (201) 
48012

>  <i_f3d_flags>  (201) 
0

>  <s_epik_input>  (201) 
W0NIMl0xW0NIMl1bQ0gyXUMoW0NIM10pKFtDSDNdKVtDQEBIXShbQ0gyXVtDQEhdMltPSF0pW0NAQF0xKFtDSDNdKVtDQEBIXShbQ0BAXTIzNClbQ0gyXVtDSDJdW0NAQF0oW09IXSkoW0NIMl00KVtDSDJdW0NIMl0z

>  <s_epik_cmdline>  (201) 
J2VwaWtfcHl0aG9uJywgJy1waHQnLCAnMi4wJywgJy1waCcsICc3LjAnLCAnLXRuJywgJzgnLCAnLW1hJywgJzIwMCcsICctaW1hZScsICc8aW5maWxlLm1hZT4nLCAnLW9tYWUnLCAnPG91dGZpbGUubWFlPic=

>  <r_lp_tautomer_probability>  (201) 
1

>  <r_epik_Ionization_Penalty>  (201) 
6.10744e-06

>  <r_epik_Ionization_Penalty_Charging>  (201) 
0

>  <r_epik_Ionization_Penalty_Neutral>  (201) 
6.10744e-06

>  <r_epik_State_Penalty>  (201) 
-0

>  <r_epik_Charging_Adjusted_Penalty>  (201) 
0

>  <i_epik_Tot_Q>  (201) 
0

>  <i_epik_Tot_abs_Q>  (201) 
0

>  <s_lp_Force_Field>  (201) 
OPLS3e

>  <r_lp_Energy>  (201) 
65.2639

>  <b_lp_Chiralities_Consistent>  (201) 
1

>  <s_lp_Variant>  (201) 
59:0-1

>  <s_i_glide_gridfile>  (201) 
pfpi4k_grid

>  <i_i_glide_lignum>  (201) 
1

>  <i_i_glide_rotatable_bonds>  (201) 
2

>  <r_i_docking_score>  (201) 
-3.63984

>  <r_i_glide_ligand_efficiency>  (201) 
-0.173326

>  <r_i_glide_ligand_efficiency_sa>  (201) 
-0.478193

>  <r_i_glide_ligand_efficiency_ln>  (201) 
-0.899944

>  <r_i_glide_gscore>  (201) 
-3.63984

>  <r_i_glide_lipo>  (201) 
-0.680257

>  <r_i_glide_hbond>  (201) 
-0.0848832

>  <r_i_glide_metal>  (201) 
-0

>  <r_i_glide_rewards>  (201) 
-1.41507

>  <r_i_glide_evdw>  (201) 
-22.3668

>  <r_i_glide_ecoul>  (201) 
-2.27528

>  <r_i_glide_erotb>  (201) 
0

>  <r_i_glide_esite>  (201) 
0

>  <r_i_glide_emodel>  (201) 
-30.0967

>  <r_i_glide_energy>  (201) 
-24.6421

>  <r_i_glide_einternal>  (201) 
0.0101615

>  <r_i_glide_intrahb_reward>  (201) 
-0

>  <i_i_glide_confnum>  (201) 
1

>  <i_i_glide_posenum>  (201) 
1

>  <r_i_glide_eff_state_penalty>  (201) 
0

>  <ligand_id>  (201) 
59

>  <original_smiles>  (201) 
CC1(C)CCCC2(C)C1CC(O)C13CCC(O)(CCC21)C3

>  <smiles>  (201) 
[H]OC1([H])C([H])([H])C2([H])C(C([H])([H])[H])(C([H])([H])[H])C([H])([H])C([H])([H])C([H])([H])C2(C([H])([H])[H])C2([H])C([H])([H])C([H])([H])C3(O[H])C([H])([H])C([H])([H])C12C3([H])[H]

$$$$
60:0:0
     RDKit          3D

 60 64  0  0  1  0  0  0  0  0999 V2000
    0.9769    5.3078    8.9007 C   0  0  0  0  0  0  0  0  0  0  0  0
    2.4616    5.2236    8.5136 C   0  0  0  0  0  0  0  0  0  0  0  0
    2.7155    5.3659    7.0032 C   0  0  0  0  0  0  0  0  0  0  0  0
    2.1598    4.1835    6.1906 C   0  0  0  0  0  0  0  0  0  0  0  0
    2.3870    4.3162    4.6734 C   0  0  0  0  0  0  0  0  0  0  0  0
    1.8973    3.1514    3.9464 N   0  0  0  0  0  0  0  0  0  0  0  0
    2.7766    2.1654    3.5225 C   0  0  0  0  0  0  0  0  0  0  0  0
    2.4283    1.0279    2.8850 C   0  0  0  0  0  0  0  0  0  0  0  0
    3.5144    0.1242    2.5148 C   0  0  0  0  0  0  0  0  0  0  0  0
    4.5926    0.0643    3.1057 O   0  0  0  0  0  0  0  0  0  0  0  0
    3.2372   -0.6402    1.4391 N   0  0  0  0  0  0  0  0  0  0  0  0
    4.0747   -1.6758    0.8400 C   0  0  1  0  0  0  0  0  0  0  0  0
    3.3382   -2.2472   -0.4038 C   0  0  0  0  0  0  0  0  0  0  0  0
    4.1957   -3.3525   -1.0628 C   0  0  2  0  0  0  0  0  0  0  0  0
    4.4271   -4.4910   -0.0497 C   0  0  0  0  0  0  0  0  0  0  0  0
    5.1599   -3.9316    1.1854 C   0  0  1  0  0  0  0  0  0  0  0  0
    6.5124   -3.3211    0.7659 C   0  0  0  0  0  0  0  0  0  0  0  0
    6.2824   -2.1998   -0.2688 C   0  0  1  0  0  0  0  0  0  0  0  0
    5.5521   -2.7616   -1.5035 C   0  0  0  0  0  0  0  0  0  0  0  0
    5.4348   -1.0883    0.3682 C   0  0  0  0  0  0  0  0  0  0  0  0
    4.2999   -2.8416    1.8438 C   0  0  0  0  0  0  0  0  0  0  0  0
    0.9854    0.7819    2.6188 C   0  0  0  0  0  0  0  0  0  0  0  0
    0.5862   -0.2569    2.1000 O   0  0  0  0  0  0  0  0  0  0  0  0
    0.0450    1.8414    3.0545 C   0  0  0  0  0  0  0  0  0  0  0  0
   -1.3319    1.6695    2.8267 C   0  0  0  0  0  0  0  0  0  0  0  0
   -2.2139    2.6658    3.2591 C   0  0  0  0  0  0  0  0  0  0  0  0
   -1.6745    3.7990    3.8793 C   0  0  0  0  0  0  0  0  0  0  0  0
   -0.3544    3.9802    4.1046 N   0  0  0  0  0  0  0  0  0  0  0  0
    0.5088    3.0151    3.6925 C   0  0  0  0  0  0  0  0  0  0  0  0
    0.8500    5.2260    9.9804 H   0  0  0  0  0  0  0  0  0  0  0  0
    0.3936    4.5049    8.4509 H   0  0  0  0  0  0  0  0  0  0  0  0
    0.5451    6.2572    8.5831 H   0  0  0  0  0  0  0  0  0  0  0  0
    2.9997    6.0165    9.0345 H   0  0  0  0  0  0  0  0  0  0  0  0
    2.8878    4.2868    8.8749 H   0  0  0  0  0  0  0  0  0  0  0  0
    2.2895    6.3017    6.6432 H   0  0  0  0  0  0  0  0  0  0  0  0
    3.7885    5.4370    6.8286 H   0  0  0  0  0  0  0  0  0  0  0  0
    2.6148    3.2561    6.5360 H   0  0  0  0  0  0  0  0  0  0  0  0
    1.0901    4.0849    6.3627 H   0  0  0  0  0  0  0  0  0  0  0  0
    1.9197    5.2181    4.2754 H   0  0  0  0  0  0  0  0  0  0  0  0
    3.4576    4.4345    4.4836 H   0  0  0  0  0  0  0  0  0  0  0  0
    3.8161    2.3931    3.7153 H   0  0  0  0  0  0  0  0  0  0  0  0
    2.3165   -0.5214    1.0250 H   0  0  0  0  0  0  0  0  0  0  0  0
    2.3656   -2.6571   -0.1205 H   0  0  0  0  0  0  0  0  0  0  0  0
    3.1310   -1.4542   -1.1269 H   0  0  0  0  0  0  0  0  0  0  0  0
    3.6752   -3.7536   -1.9342 H   0  0  0  0  0  0  0  0  0  0  0  0
    3.4704   -4.9234    0.2483 H   0  0  0  0  0  0  0  0  0  0  0  0
    5.0047   -5.2901   -0.5120 H   0  0  0  0  0  0  0  0  0  0  0  0
    5.3299   -4.7343    1.9031 H   0  0  0  0  0  0  0  0  0  0  0  0
    7.0175   -2.9151    1.6414 H   0  0  0  0  0  0  0  0  0  0  0  0
    7.1601   -4.0901    0.3523 H   0  0  0  0  0  0  0  0  0  0  0  0
    7.2457   -1.7879   -0.5623 H   0  0  0  0  0  0  0  0  0  0  0  0
    6.1594   -3.5270   -1.9844 H   0  0  0  0  0  0  0  0  0  0  0  0
    5.3910   -1.9724   -2.2391 H   0  0  0  0  0  0  0  0  0  0  0  0
    5.2620   -0.2739   -0.3373 H   0  0  0  0  0  0  0  0  0  0  0  0
    6.0133   -0.6646    1.1897 H   0  0  0  0  0  0  0  0  0  0  0  0
    4.8013   -2.5073    2.7532 H   0  0  0  0  0  0  0  0  0  0  0  0
    3.3430   -3.2586    2.1605 H   0  0  0  0  0  0  0  0  0  0  0  0
   -1.7208    0.7819    2.3514 H   0  0  0  0  0  0  0  0  0  0  0  0
   -3.2769    2.5672    3.1113 H   0  0  0  0  0  0  0  0  0  0  0  0
   -2.3189    4.5925    4.2230 H   0  0  0  0  0  0  0  0  0  0  0  0
  1  2  1  0
  1 30  1  0
  1 31  1  0
  1 32  1  0
  2  3  1  0
  2 33  1  0
  2 34  1  0
  3  4  1  0
  3 35  1  0
  3 36  1  0
  4  5  1  0
  4 37  1  0
  4 38  1  0
  5  6  1  0
  5 39  1  0
  5 40  1  0
  6 29  1  0
  6  7  1  0
  7  8  2  0
  7 41  1  0
  8  9  1  0
  8 22  1  0
  9 10  2  0
  9 11  1  0
 12 11  1  1
 11 42  1  0
 12 20  1  0
 12 21  1  0
 12 13  1  0
 13 14  1  0
 13 43  1  0
 13 44  1  0
 14 19  1  0
 14 15  1  0
 14 45  1  6
 15 16  1  0
 15 46  1  0
 15 47  1  0
 16 17  1  0
 16 21  1  0
 16 48  1  1
 17 18  1  0
 17 49  1  0
 17 50  1  0
 18 19  1  0
 18 20  1  0
 18 51  1  6
 19 52  1  0
 19 53  1  0
 20 54  1  0
 20 55  1  0
 21 56  1  0
 21 57  1  0
 22 23  2  0
 22 24  1  0
 24 29  2  0
 24 25  1  0
 25 26  2  0
 25 58  1  0
 26 27  1  0
 26 59  1  0
 27 28  2  0
 27 60  1  0
 28 29  1  0
M  END
>  <i_m_ct_stereo_status>  (202) 
1

>  <s_m_source_file>  (202) 
/var/tmp/pbs.5076255.sched01/tmplj_yfvzq/807e0r74np.sdf

>  <i_m_source_file_index>  (202) 
2

>  <i_lp_mmshare_version>  (202) 
48012

>  <i_f3d_flags>  (202) 
0

>  <s_epik_input>  (202) 
W0NIM11bQ0gyXVtDSDJdW0NIMl1bQ0gyXW4oYyhjMTIpbltjSF1bY0hdW2NIXTIpW2NIXWMoYzE9TylDKD1PKVtOSF1DMzRbQ0gyXVtDQEBIXTVbQ0gyXVtDQEhdKFtDSDJdNClbQ0gyXVtDQEBIXShbQ0gyXTUpW0NIMl0z

>  <s_epik_cmdline>  (202) 
J2VwaWtfcHl0aG9uJywgJy1waHQnLCAnMi4wJywgJy1waCcsICc3LjAnLCAnLXRuJywgJzgnLCAnLW1hJywgJzIwMCcsICctaW1hZScsICc8aW5maWxlLm1hZT4nLCAnLW9tYWUnLCAnPG91dGZpbGUubWFlPic=

>  <r_lp_tautomer_probability>  (202) 
1

>  <r_epik_Ionization_Penalty>  (202) 
6.06727e-05

>  <r_epik_Ionization_Penalty_Charging>  (202) 
5.99196e-05

>  <r_epik_Ionization_Penalty_Neutral>  (202) 
7.53122e-07

>  <r_epik_State_Penalty>  (202) 
-0

>  <r_epik_Charging_Adjusted_Penalty>  (202) 
5.99196e-05

>  <i_epik_Tot_Q>  (202) 
0

>  <i_epik_Tot_abs_Q>  (202) 
0

>  <s_lp_Force_Field>  (202) 
OPLS3e

>  <r_lp_Energy>  (202) 
15.1542

>  <b_lp_Chiralities_Consistent>  (202) 
1

>  <s_lp_Variant>  (202) 
60:0-1

>  <s_i_glide_gridfile>  (202) 
pfpi4k_grid

>  <i_i_glide_lignum>  (202) 
2

>  <i_i_glide_rotatable_bonds>  (202) 
7

>  <r_i_docking_score>  (202) 
-2.34643

>  <r_i_glide_ligand_efficiency>  (202) 
-0.0809115

>  <r_i_glide_ligand_efficiency_sa>  (202) 
-0.248586

>  <r_i_glide_ligand_efficiency_ln>  (202) 
-0.537274

>  <r_i_glide_gscore>  (202) 
-2.34643

>  <r_i_glide_lipo>  (202) 
-0.23786

>  <r_i_glide_hbond>  (202) 
-0.000305809

>  <r_i_glide_metal>  (202) 
-0

>  <r_i_glide_rewards>  (202) 
-1.25454

>  <r_i_glide_evdw>  (202) 
-27.4401

>  <r_i_glide_ecoul>  (202) 
-0.821871

>  <r_i_glide_erotb>  (202) 
0.756906

>  <r_i_glide_esite>  (202) 
-0.115343

>  <r_i_glide_emodel>  (202) 
-37.0694

>  <r_i_glide_energy>  (202) 
-28.262

>  <r_i_glide_einternal>  (202) 
1.4963

>  <r_i_glide_intrahb_reward>  (202) 
-0.5

>  <i_i_glide_confnum>  (202) 
1

>  <i_i_glide_posenum>  (202) 
5

>  <r_i_glide_eff_state_penalty>  (202) 
0

>  <ligand_id>  (202) 
60

>  <original_smiles>  (202) 
CCCCCn1cc(C(=O)NC23CC4CC(CC(C4)C2)C3)c(=O)c2cccnc21

>  <smiles>  (202) 
[H]c1nc2c(c([H])c1[H])c(=O)c(C(=O)N([H])C13C([H])([H])C4([H])C([H])([H])C([H])(C([H])([H])C([H])(C4([H])[H])C1([H])[H])C3([H])[H])c([H])n2C([H])([H])C([H])([H])C([H])([H])C([H])([H])C([H])([H])[H]

$$$$
60:0:1
     RDKit          3D

 60 64  0  0  1  0  0  0  0  0999 V2000
    3.7257   -0.4279   -4.3426 C   0  0  0  0  0  0  0  0  0  0  0  0
    3.4455   -0.9546   -2.9304 C   0  0  0  0  0  0  0  0  0  0  0  0
    3.5543   -2.4881   -2.8233 C   0  0  0  0  0  0  0  0  0  0  0  0
    2.9904   -3.0632   -1.5138 C   0  0  0  0  0  0  0  0  0  0  0  0
    3.7537   -2.6026   -0.2559 C   0  0  0  0  0  0  0  0  0  0  0  0
    3.1869   -3.1155    0.9891 N   0  0  0  0  0  0  0  0  0  0  0  0
    2.4806   -2.2678    1.8240 C   0  0  0  0  0  0  0  0  0  0  0  0
    1.8254   -2.6343    2.9608 C   0  0  0  0  0  0  0  0  0  0  0  0
    1.0636   -1.6426    3.7286 C   0  0  0  0  0  0  0  0  0  0  0  0
    0.3581   -1.9070    4.7052 O   0  0  0  0  0  0  0  0  0  0  0  0
    1.1885   -0.3788    3.2728 N   0  0  0  0  0  0  0  0  0  0  0  0
    0.5699    0.8317    3.7938 C   0  0  1  0  0  0  0  0  0  0  0  0
    1.0706    2.0349    2.9483 C   0  0  0  0  0  0  0  0  0  0  0  0
    0.4381    3.3365    3.4851 C   0  0  2  0  0  0  0  0  0  0  0  0
    0.8419    3.5373    4.9617 C   0  0  0  0  0  0  0  0  0  0  0  0
    0.3377    2.3438    5.7957 C   0  0  1  0  0  0  0  0  0  0  0  0
   -1.1990    2.2150    5.6801 C   0  0  0  0  0  0  0  0  0  0  0  0
   -1.6000    2.0382    4.1982 C   0  0  1  0  0  0  0  0  0  0  0  0
   -1.0992    3.2416    3.3767 C   0  0  0  0  0  0  0  0  0  0  0  0
   -0.9740    0.7491    3.6551 C   0  0  0  0  0  0  0  0  0  0  0  0
    0.9870    1.0611    5.2747 C   0  0  0  0  0  0  0  0  0  0  0  0
    1.8674   -4.0749    3.3491 C   0  0  0  0  0  0  0  0  0  0  0  0
    1.2769   -4.5234    4.3324 O   0  0  0  0  0  0  0  0  0  0  0  0
    2.6605   -4.9744    2.4680 C   0  0  0  0  0  0  0  0  0  0  0  0
    2.7657   -6.3474    2.7808 C   0  0  0  0  0  0  0  0  0  0  0  0
    3.5093   -7.1840    1.9360 C   0  0  0  0  0  0  0  0  0  0  0  0
    4.1440   -6.6084    0.8177 C   0  0  0  0  0  0  0  0  0  0  0  0
    4.0631   -5.2924    0.5192 N   0  0  0  0  0  0  0  0  0  0  0  0
    3.3257   -4.4849    1.3150 C   0  0  0  0  0  0  0  0  0  0  0  0
    3.6506    0.6587   -4.3621 H   0  0  0  0  0  0  0  0  0  0  0  0
    3.0084   -0.8202   -5.0623 H   0  0  0  0  0  0  0  0  0  0  0  0
    4.7212   -0.7062   -4.6812 H   0  0  0  0  0  0  0  0  0  0  0  0
    4.1373   -0.4799   -2.2310 H   0  0  0  0  0  0  0  0  0  0  0  0
    2.4464   -0.6387   -2.6336 H   0  0  0  0  0  0  0  0  0  0  0  0
    2.9933   -2.9432   -3.6385 H   0  0  0  0  0  0  0  0  0  0  0  0
    4.5918   -2.8031   -2.9473 H   0  0  0  0  0  0  0  0  0  0  0  0
    1.9327   -2.8103   -1.4304 H   0  0  0  0  0  0  0  0  0  0  0  0
    3.0244   -4.1486   -1.5748 H   0  0  0  0  0  0  0  0  0  0  0  0
    4.8126   -2.8536   -0.3076 H   0  0  0  0  0  0  0  0  0  0  0  0
    3.7155   -1.5138   -0.2353 H   0  0  0  0  0  0  0  0  0  0  0  0
    2.4963   -1.2512    1.4487 H   0  0  0  0  0  0  0  0  0  0  0  0
    1.7581   -0.2634    2.4460 H   0  0  0  0  0  0  0  0  0  0  0  0
    2.1602    2.1090    2.9816 H   0  0  0  0  0  0  0  0  0  0  0  0
    0.8095    1.9103    1.8943 H   0  0  0  0  0  0  0  0  0  0  0  0
    0.7911    4.1828    2.8914 H   0  0  0  0  0  0  0  0  0  0  0  0
    1.9279    3.6085    5.0402 H   0  0  0  0  0  0  0  0  0  0  0  0
    0.4264    4.4676    5.3433 H   0  0  0  0  0  0  0  0  0  0  0  0
    0.6182    2.4786    6.8395 H   0  0  0  0  0  0  0  0  0  0  0  0
   -1.5431    1.3563    6.2566 H   0  0  0  0  0  0  0  0  0  0  0  0
   -1.6790    3.0947    6.1015 H   0  0  0  0  0  0  0  0  0  0  0  0
   -2.6821    1.9658    4.1028 H   0  0  0  0  0  0  0  0  0  0  0  0
   -1.5590    4.1595    3.7375 H   0  0  0  0  0  0  0  0  0  0  0  0
   -1.3884    3.1269    2.3323 H   0  0  0  0  0  0  0  0  0  0  0  0
   -1.2531    0.6015    2.6103 H   0  0  0  0  0  0  0  0  0  0  0  0
   -1.3895   -0.0973    4.2009 H   0  0  0  0  0  0  0  0  0  0  0  0
    0.6733    0.2530    5.9340 H   0  0  0  0  0  0  0  0  0  0  0  0
    2.0735    1.1193    5.3543 H   0  0  0  0  0  0  0  0  0  0  0  0
    2.2806   -6.7618    3.6512 H   0  0  0  0  0  0  0  0  0  0  0  0
    3.6015   -8.2393    2.1304 H   0  0  0  0  0  0  0  0  0  0  0  0
    4.7138   -7.2052    0.1254 H   0  0  0  0  0  0  0  0  0  0  0  0
  1  2  1  0
  1 30  1  0
  1 31  1  0
  1 32  1  0
  2  3  1  0
  2 33  1  0
  2 34  1  0
  3  4  1  0
  3 35  1  0
  3 36  1  0
  4  5  1  0
  4 37  1  0
  4 38  1  0
  5  6  1  0
  5 39  1  0
  5 40  1  0
  6 29  1  0
  6  7  1  0
  7  8  2  0
  7 41  1  0
  8  9  1  0
  8 22  1  0
  9 10  2  0
  9 11  1  0
 12 11  1  6
 11 42  1  0
 12 20  1  0
 12 21  1  0
 12 13  1  0
 13 14  1  0
 13 43  1  0
 13 44  1  0
 14 19  1  0
 14 15  1  0
 14 45  1  6
 15 16  1  0
 15 46  1  0
 15 47  1  0
 16 17  1  0
 16 21  1  0
 16 48  1  1
 17 18  1  0
 17 49  1  0
 17 50  1  0
 18 19  1  0
 18 20  1  0
 18 51  1  1
 19 52  1  0
 19 53  1  0
 20 54  1  0
 20 55  1  0
 21 56  1  0
 21 57  1  0
 22 23  2  0
 22 24  1  0
 24 29  2  0
 24 25  1  0
 25 26  2  0
 25 58  1  0
 26 27  1  0
 26 59  1  0
 27 28  2  0
 27 60  1  0
 28 29  1  0
M  END
>  <i_m_ct_stereo_status>  (203) 
1

>  <s_m_source_file>  (203) 
/var/tmp/pbs.5076255.sched01/tmplj_yfvzq/807e0r74np.sdf

>  <i_m_source_file_index>  (203) 
2

>  <i_lp_mmshare_version>  (203) 
48012

>  <i_f3d_flags>  (203) 
0

>  <s_epik_input>  (203) 
W0NIM11bQ0gyXVtDSDJdW0NIMl1bQ0gyXW4oYyhjMTIpbltjSF1bY0hdW2NIXTIpW2NIXWMoYzE9TylDKD1PKVtOSF1DMzRbQ0gyXVtDQEBIXTVbQ0gyXVtDQEhdKFtDSDJdNClbQ0gyXVtDQEBIXShbQ0gyXTUpW0NIMl0z

>  <s_epik_cmdline>  (203) 
J2VwaWtfcHl0aG9uJywgJy1waHQnLCAnMi4wJywgJy1waCcsICc3LjAnLCAnLXRuJywgJzgnLCAnLW1hJywgJzIwMCcsICctaW1hZScsICc8aW5maWxlLm1hZT4nLCAnLW9tYWUnLCAnPG91dGZpbGUubWFlPic=

>  <r_lp_tautomer_probability>  (203) 
1

>  <r_epik_Ionization_Penalty>  (203) 
6.06727e-05

>  <r_epik_Ionization_Penalty_Charging>  (203) 
5.99196e-05

>  <r_epik_Ionization_Penalty_Neutral>  (203) 
7.53122e-07

>  <r_epik_State_Penalty>  (203) 
-0

>  <r_epik_Charging_Adjusted_Penalty>  (203) 
5.99196e-05

>  <i_epik_Tot_Q>  (203) 
0

>  <i_epik_Tot_abs_Q>  (203) 
0

>  <s_lp_Force_Field>  (203) 
OPLS3e

>  <r_lp_Energy>  (203) 
15.1542

>  <b_lp_Chiralities_Consistent>  (203) 
1

>  <s_lp_Variant>  (203) 
60:0-1

>  <s_i_glide_gridfile>  (203) 
pfpi4k_grid

>  <i_i_glide_lignum>  (203) 
2

>  <i_i_glide_rotatable_bonds>  (203) 
7

>  <r_i_docking_score>  (203) 
-2.08025

>  <r_i_glide_ligand_efficiency>  (203) 
-0.0717327

>  <r_i_glide_ligand_efficiency_sa>  (203) 
-0.220385

>  <r_i_glide_ligand_efficiency_ln>  (203) 
-0.476324

>  <r_i_glide_gscore>  (203) 
-2.08025

>  <r_i_glide_lipo>  (203) 
-0.484583

>  <r_i_glide_hbond>  (203) 
0

>  <r_i_glide_metal>  (203) 
-0

>  <r_i_glide_rewards>  (203) 
-0.728995

>  <r_i_glide_evdw>  (203) 
-28.0556

>  <r_i_glide_ecoul>  (203) 
-1.3157

>  <r_i_glide_erotb>  (203) 
0.756906

>  <r_i_glide_esite>  (203) 
-0.0234383

>  <r_i_glide_emodel>  (203) 
-32.4874

>  <r_i_glide_energy>  (203) 
-29.3713

>  <r_i_glide_einternal>  (203) 
1.51176

>  <r_i_glide_intrahb_reward>  (203) 
-0

>  <i_i_glide_confnum>  (203) 
2

>  <i_i_glide_posenum>  (203) 
13

>  <r_i_glide_eff_state_penalty>  (203) 
0

>  <ligand_id>  (203) 
60

>  <original_smiles>  (203) 
CCCCCn1cc(C(=O)NC23CC4CC(CC(C4)C2)C3)c(=O)c2cccnc21

>  <smiles>  (203) 
[H]c1nc2c(c([H])c1[H])c(=O)c(C(=O)N([H])C13C([H])([H])C4([H])C([H])([H])C([H])(C([H])([H])C([H])(C4([H])[H])C1([H])[H])C3([H])[H])c([H])n2C([H])([H])C([H])([H])C([H])([H])C([H])([H])C([H])([H])[H]

$$$$
60:0:2
     RDKit          3D

 60 64  0  0  1  0  0  0  0  0999 V2000
    3.6268    0.3536   -5.0196 C   0  0  0  0  0  0  0  0  0  0  0  0
    3.7022   -0.8828   -4.1148 C   0  0  0  0  0  0  0  0  0  0  0  0
    4.3308   -0.5991   -2.7324 C   0  0  0  0  0  0  0  0  0  0  0  0
    3.7329   -1.4773   -1.6286 C   0  0  0  0  0  0  0  0  0  0  0  0
    4.3245   -1.1701   -0.2360 C   0  0  0  0  0  0  0  0  0  0  0  0
    3.6726   -1.9125    0.8414 N   0  0  0  0  0  0  0  0  0  0  0  0
    2.7521   -1.2806    1.6617 C   0  0  0  0  0  0  0  0  0  0  0  0
    2.0098   -1.8775    2.6341 C   0  0  0  0  0  0  0  0  0  0  0  0
    1.0280   -1.1012    3.3992 C   0  0  0  0  0  0  0  0  0  0  0  0
    0.1921   -1.5889    4.1652 O   0  0  0  0  0  0  0  0  0  0  0  0
    1.1198    0.2303    3.2147 N   0  0  0  0  0  0  0  0  0  0  0  0
    0.3220    1.2825    3.8271 C   0  0  1  0  0  0  0  0  0  0  0  0
    0.8547    2.6479    3.3204 C   0  0  0  0  0  0  0  0  0  0  0  0
    0.0290    3.7898    3.9554 C   0  0  2  0  0  0  0  0  0  0  0  0
    0.1655    3.7252    5.4928 C   0  0  0  0  0  0  0  0  0  0  0  0
   -0.3640    2.3684    5.9943 C   0  0  1  0  0  0  0  0  0  0  0  0
   -1.8422    2.1848    5.5856 C   0  0  0  0  0  0  0  0  0  0  0  0
   -1.9783    2.2782    4.0486 C   0  0  1  0  0  0  0  0  0  0  0  0
   -1.4554    3.6416    3.5602 C   0  0  0  0  0  0  0  0  0  0  0  0
   -1.1651    1.1526    3.4010 C   0  0  0  0  0  0  0  0  0  0  0  0
    0.4668    1.2430    5.3744 C   0  0  0  0  0  0  0  0  0  0  0  0
    2.1901   -3.3457    2.8351 C   0  0  0  0  0  0  0  0  0  0  0  0
    1.5431   -3.9957    3.6583 O   0  0  0  0  0  0  0  0  0  0  0  0
    3.1919   -4.0163    1.9662 C   0  0  0  0  0  0  0  0  0  0  0  0
    3.4265   -5.3999    2.1092 C   0  0  0  0  0  0  0  0  0  0  0  0
    4.3741   -6.0186    1.2829 C   0  0  0  0  0  0  0  0  0  0  0  0
    5.0625   -5.2223    0.3466 C   0  0  0  0  0  0  0  0  0  0  0  0
    4.8521   -3.8945    0.2060 N   0  0  0  0  0  0  0  0  0  0  0  0
    3.9267   -3.2959    0.9908 C   0  0  0  0  0  0  0  0  0  0  0  0
    3.1793    0.1113   -5.9828 H   0  0  0  0  0  0  0  0  0  0  0  0
    4.6110    0.7869   -5.1997 H   0  0  0  0  0  0  0  0  0  0  0  0
    3.0198    1.1339   -4.5686 H   0  0  0  0  0  0  0  0  0  0  0  0
    2.6840   -1.2536   -3.9985 H   0  0  0  0  0  0  0  0  0  0  0  0
    4.2555   -1.6835   -4.6069 H   0  0  0  0  0  0  0  0  0  0  0  0
    5.4081   -0.7613   -2.7382 H   0  0  0  0  0  0  0  0  0  0  0  0
    4.2071    0.4506   -2.4743 H   0  0  0  0  0  0  0  0  0  0  0  0
    2.6550   -1.3246   -1.6047 H   0  0  0  0  0  0  0  0  0  0  0  0
    3.8838   -2.5270   -1.8830 H   0  0  0  0  0  0  0  0  0  0  0  0
    5.4007   -1.3417   -0.1994 H   0  0  0  0  0  0  0  0  0  0  0  0
    4.2121   -0.1002   -0.0508 H   0  0  0  0  0  0  0  0  0  0  0  0
    2.6696   -0.2292    1.4111 H   0  0  0  0  0  0  0  0  0  0  0  0
    1.8247    0.5347    2.5583 H   0  0  0  0  0  0  0  0  0  0  0  0
    1.9130    2.7717    3.5644 H   0  0  0  0  0  0  0  0  0  0  0  0
    0.7933    2.6958    2.2312 H   0  0  0  0  0  0  0  0  0  0  0  0
    0.4007    4.7513    3.5973 H   0  0  0  0  0  0  0  0  0  0  0  0
    1.2138    3.8373    5.7774 H   0  0  0  0  0  0  0  0  0  0  0  0
   -0.3856    4.5412    5.9575 H   0  0  0  0  0  0  0  0  0  0  0  0
   -0.2729    2.3138    7.0787 H   0  0  0  0  0  0  0  0  0  0  0  0
   -2.1943    1.2105    5.9239 H   0  0  0  0  0  0  0  0  0  0  0  0
   -2.4617    2.9372    6.0685 H   0  0  0  0  0  0  0  0  0  0  0  0
   -3.0205    2.1612    3.7565 H   0  0  0  0  0  0  0  0  0  0  0  0
   -2.0445    4.4444    3.9989 H   0  0  0  0  0  0  0  0  0  0  0  0
   -1.5578    3.7176    2.4776 H   0  0  0  0  0  0  0  0  0  0  0  0
   -1.2534    1.1949    2.3136 H   0  0  0  0  0  0  0  0  0  0  0  0
   -1.5978    0.1994    3.7017 H   0  0  0  0  0  0  0  0  0  0  0  0
    0.1183    0.3066    5.8070 H   0  0  0  0  0  0  0  0  0  0  0  0
    1.5162    1.3404    5.6560 H   0  0  0  0  0  0  0  0  0  0  0  0
    2.8928   -5.9872    2.8419 H   0  0  0  0  0  0  0  0  0  0  0  0
    4.5829   -7.0728    1.3582 H   0  0  0  0  0  0  0  0  0  0  0  0
    5.8027   -5.6434   -0.3125 H   0  0  0  0  0  0  0  0  0  0  0  0
  1  2  1  0
  1 30  1  0
  1 31  1  0
  1 32  1  0
  2  3  1  0
  2 33  1  0
  2 34  1  0
  3  4  1  0
  3 35  1  0
  3 36  1  0
  4  5  1  0
  4 37  1  0
  4 38  1  0
  5  6  1  0
  5 39  1  0
  5 40  1  0
  6 29  1  0
  6  7  1  0
  7  8  2  0
  7 41  1  0
  8  9  1  0
  8 22  1  0
  9 10  2  0
  9 11  1  0
 12 11  1  6
 11 42  1  0
 12 20  1  0
 12 21  1  0
 12 13  1  0
 13 14  1  0
 13 43  1  0
 13 44  1  0
 14 19  1  0
 14 15  1  0
 14 45  1  6
 15 16  1  0
 15 46  1  0
 15 47  1  0
 16 17  1  0
 16 21  1  0
 16 48  1  1
 17 18  1  0
 17 49  1  0
 17 50  1  0
 18 19  1  0
 18 20  1  0
 18 51  1  1
 19 52  1  0
 19 53  1  0
 20 54  1  0
 20 55  1  0
 21 56  1  0
 21 57  1  0
 22 23  2  0
 22 24  1  0
 24 29  2  0
 24 25  1  0
 25 26  2  0
 25 58  1  0
 26 27  1  0
 26 59  1  0
 27 28  2  0
 27 60  1  0
 28 29  1  0
M  END
>  <i_m_ct_stereo_status>  (204) 
1

>  <s_m_source_file>  (204) 
/var/tmp/pbs.5076255.sched01/tmplj_yfvzq/807e0r74np.sdf

>  <i_m_source_file_index>  (204) 
2

>  <i_lp_mmshare_version>  (204) 
48012

>  <i_f3d_flags>  (204) 
0

>  <s_epik_input>  (204) 
W0NIM11bQ0gyXVtDSDJdW0NIMl1bQ0gyXW4oYyhjMTIpbltjSF1bY0hdW2NIXTIpW2NIXWMoYzE9TylDKD1PKVtOSF1DMzRbQ0gyXVtDQEBIXTVbQ0gyXVtDQEhdKFtDSDJdNClbQ0gyXVtDQEBIXShbQ0gyXTUpW0NIMl0z

>  <s_epik_cmdline>  (204) 
J2VwaWtfcHl0aG9uJywgJy1waHQnLCAnMi4wJywgJy1waCcsICc3LjAnLCAnLXRuJywgJzgnLCAnLW1hJywgJzIwMCcsICctaW1hZScsICc8aW5maWxlLm1hZT4nLCAnLW9tYWUnLCAnPG91dGZpbGUubWFlPic=

>  <r_lp_tautomer_probability>  (204) 
1

>  <r_epik_Ionization_Penalty>  (204) 
6.06727e-05

>  <r_epik_Ionization_Penalty_Charging>  (204) 
5.99196e-05

>  <r_epik_Ionization_Penalty_Neutral>  (204) 
7.53122e-07

>  <r_epik_State_Penalty>  (204) 
-0

>  <r_epik_Charging_Adjusted_Penalty>  (204) 
5.99196e-05

>  <i_epik_Tot_Q>  (204) 
0

>  <i_epik_Tot_abs_Q>  (204) 
0

>  <s_lp_Force_Field>  (204) 
OPLS3e

>  <r_lp_Energy>  (204) 
15.1542

>  <b_lp_Chiralities_Consistent>  (204) 
1

>  <s_lp_Variant>  (204) 
60:0-1

>  <s_i_glide_gridfile>  (204) 
pfpi4k_grid

>  <i_i_glide_lignum>  (204) 
2

>  <i_i_glide_rotatable_bonds>  (204) 
7

>  <r_i_docking_score>  (204) 
-2.03035

>  <r_i_glide_ligand_efficiency>  (204) 
-0.0700119

>  <r_i_glide_ligand_efficiency_sa>  (204) 
-0.215099

>  <r_i_glide_ligand_efficiency_ln>  (204) 
-0.464898

>  <r_i_glide_gscore>  (204) 
-2.03035

>  <r_i_glide_lipo>  (204) 
-0.505961

>  <r_i_glide_hbond>  (204) 
0

>  <r_i_glide_metal>  (204) 
-0

>  <r_i_glide_rewards>  (204) 
-0.734439

>  <r_i_glide_evdw>  (204) 
-30.0189

>  <r_i_glide_ecoul>  (204) 
0.0532351

>  <r_i_glide_erotb>  (204) 
0.756906

>  <r_i_glide_esite>  (204) 
-0.0538922

>  <r_i_glide_emodel>  (204) 
-32.5972

>  <r_i_glide_energy>  (204) 
-29.9657

>  <r_i_glide_einternal>  (204) 
2.21642

>  <r_i_glide_intrahb_reward>  (204) 
-0

>  <i_i_glide_confnum>  (204) 
1

>  <i_i_glide_posenum>  (204) 
18

>  <r_i_glide_eff_state_penalty>  (204) 
0

>  <ligand_id>  (204) 
60

>  <original_smiles>  (204) 
CCCCCn1cc(C(=O)NC23CC4CC(CC(C4)C2)C3)c(=O)c2cccnc21

>  <smiles>  (204) 
[H]c1nc2c(c([H])c1[H])c(=O)c(C(=O)N([H])C13C([H])([H])C4([H])C([H])([H])C([H])(C([H])([H])C([H])(C4([H])[H])C1([H])[H])C3([H])[H])c([H])n2C([H])([H])C([H])([H])C([H])([H])C([H])([H])C([H])([H])[H]

$$$$
61:0:0
     RDKit          3D

 34 37  0  0  1  0  0  0  0  0999 V2000
    0.5605   -6.3419    0.9583 O   0  0  0  0  0  0  0  0  0  0  0  0
    1.7745   -6.2797    1.1057 C   0  0  0  0  0  0  0  0  0  0  0  0
    2.6362   -5.3679    0.5196 N   0  0  0  0  0  0  0  0  0  0  0  0
    3.9641   -5.4344    0.9498 C   0  0  0  0  0  0  0  0  0  0  0  0
    5.0792   -4.6460    0.5954 C   0  0  0  0  0  0  0  0  0  0  0  0
    4.9927   -3.5523   -0.2884 N   0  0  0  0  0  0  0  0  0  0  0  0
    6.1167   -3.1841   -1.1459 C   0  0  0  0  0  0  0  0  0  0  0  0
    5.6857   -3.1807   -2.6274 C   0  0  0  0  0  0  0  0  0  0  0  0
    4.4219   -2.3147   -2.8173 C   0  0  0  0  0  0  0  0  0  0  0  0
    3.2886   -2.7606   -1.8587 C   0  0  0  0  0  0  0  0  0  0  0  0
    3.7963   -2.7255   -0.4145 C   0  0  0  0  0  0  0  0  0  0  0  0
    3.9973   -2.4158   -4.1363 O   0  0  0  0  0  0  0  0  0  0  0  0
    3.2423   -1.2369   -4.3306 C   0  0  0  0  0  0  0  0  0  0  0  0
    3.9716   -0.2208   -3.4752 C   0  0  0  0  0  0  0  0  0  0  0  0
    4.7365   -0.9885   -2.5664 O   0  0  0  0  0  0  0  0  0  0  0  0
    6.2876   -4.9397    1.1339 N   0  0  0  0  0  0  0  0  0  0  0  0
    6.3672   -5.9694    1.9887 C   0  0  0  0  0  0  0  0  0  0  0  0
    5.3689   -6.7618    2.3945 N   0  0  0  0  0  0  0  0  0  0  0  0
    4.1795   -6.4675    1.8538 C   0  0  0  0  0  0  0  0  0  0  0  0
    2.7285   -7.3753    2.1964 S   0  0  0  0  0  0  0  0  0  0  0  0
    6.4652   -2.1931   -0.8535 H   0  0  0  0  0  0  0  0  0  0  0  0
    6.9675   -3.8519   -1.0178 H   0  0  0  0  0  0  0  0  0  0  0  0
    6.4884   -2.8237   -3.2684 H   0  0  0  0  0  0  0  0  0  0  0  0
    5.4416   -4.1887   -2.9540 H   0  0  0  0  0  0  0  0  0  0  0  0
    2.4275   -2.1022   -1.9203 H   0  0  0  0  0  0  0  0  0  0  0  0
    2.9573   -3.7509   -2.1636 H   0  0  0  0  0  0  0  0  0  0  0  0
    2.9944   -2.9873    0.2754 H   0  0  0  0  0  0  0  0  0  0  0  0
    4.0602   -1.6998   -0.1539 H   0  0  0  0  0  0  0  0  0  0  0  0
    3.2182   -0.9154   -5.3711 H   0  0  0  0  0  0  0  0  0  0  0  0
    2.2189   -1.4001   -4.0068 H   0  0  0  0  0  0  0  0  0  0  0  0
    4.6145    0.3910   -4.1060 H   0  0  0  0  0  0  0  0  0  0  0  0
    3.2745    0.4324   -2.9708 H   0  0  0  0  0  0  0  0  0  0  0  0
    7.3422   -6.1577    2.4218 H   0  0  0  0  0  0  0  0  0  0  0  0
    2.2999   -4.6668   -0.1207 H   0  0  0  0  0  0  0  0  0  0  0  0
  1  2  2  0
  2 20  1  0
  2  3  1  0
  3  4  1  0
  3 34  1  0
  4 19  2  0
  4  5  1  0
  5  6  1  0
  5 16  2  0
  6 11  1  0
  6  7  1  0
  7  8  1  0
  7 21  1  0
  7 22  1  0
  8  9  1  0
  8 23  1  0
  8 24  1  0
  9 15  1  0
  9 10  1  0
  9 12  1  0
 10 11  1  0
 10 25  1  0
 10 26  1  0
 11 27  1  0
 11 28  1  0
 12 13  1  0
 13 14  1  0
 13 29  1  0
 13 30  1  0
 14 15  1  0
 14 31  1  0
 14 32  1  0
 16 17  1  0
 17 18  2  0
 17 33  1  0
 18 19  1  0
 19 20  1  0
M  END
>  <i_m_ct_stereo_status>  (205) 
1

>  <s_m_source_file>  (205) 
/var/tmp/pbs.5076255.sched01/tmplj_yfvzq/807e0r74np.sdf

>  <i_m_source_file_index>  (205) 
3

>  <i_lp_mmshare_version>  (205) 
48012

>  <i_f3d_flags>  (205) 
0

>  <s_epik_input>  (205) 
W09IXWMobjEpc2MoYzEyKW5bY0hdbmMyTihbQ0gyXVtDSDJdMylbQ0gyXVtDSDJdQzM0T1tDSDJdW0NIMl1PNA==

>  <s_epik_cmdline>  (205) 
J2VwaWtfcHl0aG9uJywgJy1waHQnLCAnMi4wJywgJy1waCcsICc3LjAnLCAnLXRuJywgJzgnLCAnLW1hJywgJzIwMCcsICctaW1hZScsICc8aW5maWxlLm1hZT4nLCAnLW9tYWUnLCAnPG91dGZpbGUubWFlPic=

>  <r_epik_Ionization_Penalty>  (205) 
0.0930973

>  <r_epik_Ionization_Penalty_Charging>  (205) 
0.0416026

>  <r_epik_Ionization_Penalty_Neutral>  (205) 
0.0514947

>  <r_epik_State_Penalty>  (205) 
0.0953523

>  <r_epik_Charging_Adjusted_Penalty>  (205) 
0.136955

>  <i_epik_Tot_Q>  (205) 
0

>  <i_epik_Tot_abs_Q>  (205) 
0

>  <s_lp_Force_Field>  (205) 
OPLS3e

>  <r_lp_Energy>  (205) 
22.7171

>  <b_lp_Chiralities_Consistent>  (205) 
1

>  <s_lp_Variant>  (205) 
61:0-1

>  <s_i_glide_gridfile>  (205) 
pfpi4k_grid

>  <i_i_glide_lignum>  (205) 
3

>  <i_i_glide_rotatable_bonds>  (205) 
1

>  <r_i_docking_score>  (205) 
-4.99025

>  <r_i_glide_ligand_efficiency>  (205) 
-0.249513

>  <r_i_glide_ligand_efficiency_sa>  (205) 
-0.677281

>  <r_i_glide_ligand_efficiency_ln>  (205) 
-1.2489

>  <r_i_glide_gscore>  (205) 
-4.99025

>  <r_i_glide_lipo>  (205) 
-0.645287

>  <r_i_glide_hbond>  (205) 
-0.48

>  <r_i_glide_metal>  (205) 
-0

>  <r_i_glide_rewards>  (205) 
-1.7036

>  <r_i_glide_evdw>  (205) 
-26.3289

>  <r_i_glide_ecoul>  (205) 
-6.75316

>  <r_i_glide_erotb>  (205) 
0.211091

>  <r_i_glide_esite>  (205) 
-0.0430328

>  <r_i_glide_emodel>  (205) 
-43.3183

>  <r_i_glide_energy>  (205) 
-33.082

>  <r_i_glide_einternal>  (205) 
0.559442

>  <r_i_glide_intrahb_reward>  (205) 
-0

>  <i_i_glide_confnum>  (205) 
1

>  <i_i_glide_posenum>  (205) 
36

>  <r_i_glide_eff_state_penalty>  (205) 
0

>  <ligand_id>  (205) 
61

>  <original_smiles>  (205) 
Oc1nc2c(N3CCC4(CC3)OCCO4)ncnc2s1

>  <smiles>  (205) 
[H]c1nc(N2C([H])([H])C([H])([H])C3(OC([H])([H])C([H])([H])O3)C([H])([H])C2([H])[H])c2c(n1)sc(=O)n2[H]

$$$$
61:0:1
     RDKit          3D

 34 37  0  0  1  0  0  0  0  0999 V2000
    1.4282   -5.8506    0.4822 O   0  0  0  0  0  0  0  0  0  0  0  0
    2.5993   -5.4848    0.5382 C   0  0  0  0  0  0  0  0  0  0  0  0
    3.2585   -4.5997   -0.3064 N   0  0  0  0  0  0  0  0  0  0  0  0
    4.6088   -4.3796    0.0144 C   0  0  0  0  0  0  0  0  0  0  0  0
    5.5609   -3.5578   -0.6067 C   0  0  0  0  0  0  0  0  0  0  0  0
    5.2631   -2.8415   -1.7634 N   0  0  0  0  0  0  0  0  0  0  0  0
    5.1738   -3.5146   -3.0455 C   0  0  0  0  0  0  0  0  0  0  0  0
    3.8362   -3.2032   -3.7320 C   0  0  0  0  0  0  0  0  0  0  0  0
    3.5933   -1.6793   -3.7660 C   0  0  0  0  0  0  0  0  0  0  0  0
    3.6970   -1.0671   -2.3440 C   0  0  0  0  0  0  0  0  0  0  0  0
    5.0391   -1.4153   -1.7084 C   0  0  0  0  0  0  0  0  0  0  0  0
    2.3419   -1.4582   -4.2902 O   0  0  0  0  0  0  0  0  0  0  0  0
    2.3677   -0.1151   -4.7357 C   0  0  0  0  0  0  0  0  0  0  0  0
    3.7942    0.0197   -5.2228 C   0  0  0  0  0  0  0  0  0  0  0  0
    4.4966   -1.0542   -4.6061 O   0  0  0  0  0  0  0  0  0  0  0  0
    6.8022   -3.4522   -0.0854 N   0  0  0  0  0  0  0  0  0  0  0  0
    7.0779   -4.1806    1.0066 C   0  0  0  0  0  0  0  0  0  0  0  0
    6.2538   -5.0048    1.6536 N   0  0  0  0  0  0  0  0  0  0  0  0
    5.0216   -5.0789    1.1301 C   0  0  0  0  0  0  0  0  0  0  0  0
    3.7610   -6.0597    1.8094 S   0  0  0  0  0  0  0  0  0  0  0  0
    5.9984   -3.1576   -3.6574 H   0  0  0  0  0  0  0  0  0  0  0  0
    5.3047   -4.5908   -2.9237 H   0  0  0  0  0  0  0  0  0  0  0  0
    3.8048   -3.6153   -4.7334 H   0  0  0  0  0  0  0  0  0  0  0  0
    3.0152   -3.6645   -3.1823 H   0  0  0  0  0  0  0  0  0  0  0  0
    3.6492    0.0120   -2.3962 H   0  0  0  0  0  0  0  0  0  0  0  0
    2.8664   -1.4399   -1.7482 H   0  0  0  0  0  0  0  0  0  0  0  0
    5.0957   -1.0422   -0.6833 H   0  0  0  0  0  0  0  0  0  0  0  0
    5.8168   -0.9228   -2.2872 H   0  0  0  0  0  0  0  0  0  0  0  0
    1.6223    0.0915   -5.5060 H   0  0  0  0  0  0  0  0  0  0  0  0
    2.1497    0.5447   -3.9004 H   0  0  0  0  0  0  0  0  0  0  0  0
    3.8100   -0.1132   -6.3059 H   0  0  0  0  0  0  0  0  0  0  0  0
    4.2197    0.9940   -4.9861 H   0  0  0  0  0  0  0  0  0  0  0  0
    8.0752   -4.0880    1.4118 H   0  0  0  0  0  0  0  0  0  0  0  0
    2.8087   -4.2027   -1.1213 H   0  0  0  0  0  0  0  0  0  0  0  0
  1  2  2  0
  2 20  1  0
  2  3  1  0
  3  4  1  0
  3 34  1  0
  4 19  2  0
  4  5  1  0
  5  6  1  0
  5 16  2  0
  6 11  1  0
  6  7  1  0
  7  8  1  0
  7 21  1  0
  7 22  1  0
  8  9  1  0
  8 23  1  0
  8 24  1  0
  9 15  1  0
  9 10  1  0
  9 12  1  0
 10 11  1  0
 10 25  1  0
 10 26  1  0
 11 27  1  0
 11 28  1  0
 12 13  1  0
 13 14  1  0
 13 29  1  0
 13 30  1  0
 14 15  1  0
 14 31  1  0
 14 32  1  0
 16 17  1  0
 17 18  2  0
 17 33  1  0
 18 19  1  0
 19 20  1  0
M  END
>  <i_m_ct_stereo_status>  (206) 
1

>  <s_m_source_file>  (206) 
/var/tmp/pbs.5076255.sched01/tmplj_yfvzq/807e0r74np.sdf

>  <i_m_source_file_index>  (206) 
3

>  <i_lp_mmshare_version>  (206) 
48012

>  <i_f3d_flags>  (206) 
0

>  <s_epik_input>  (206) 
W09IXWMobjEpc2MoYzEyKW5bY0hdbmMyTihbQ0gyXVtDSDJdMylbQ0gyXVtDSDJdQzM0T1tDSDJdW0NIMl1PNA==

>  <s_epik_cmdline>  (206) 
J2VwaWtfcHl0aG9uJywgJy1waHQnLCAnMi4wJywgJy1waCcsICc3LjAnLCAnLXRuJywgJzgnLCAnLW1hJywgJzIwMCcsICctaW1hZScsICc8aW5maWxlLm1hZT4nLCAnLW9tYWUnLCAnPG91dGZpbGUubWFlPic=

>  <r_epik_Ionization_Penalty>  (206) 
0.0930973

>  <r_epik_Ionization_Penalty_Charging>  (206) 
0.0416026

>  <r_epik_Ionization_Penalty_Neutral>  (206) 
0.0514947

>  <r_epik_State_Penalty>  (206) 
0.0953523

>  <r_epik_Charging_Adjusted_Penalty>  (206) 
0.136955

>  <i_epik_Tot_Q>  (206) 
0

>  <i_epik_Tot_abs_Q>  (206) 
0

>  <s_lp_Force_Field>  (206) 
OPLS3e

>  <r_lp_Energy>  (206) 
22.7171

>  <b_lp_Chiralities_Consistent>  (206) 
1

>  <s_lp_Variant>  (206) 
61:0-1

>  <s_i_glide_gridfile>  (206) 
pfpi4k_grid

>  <i_i_glide_lignum>  (206) 
3

>  <i_i_glide_rotatable_bonds>  (206) 
1

>  <r_i_docking_score>  (206) 
-4.66648

>  <r_i_glide_ligand_efficiency>  (206) 
-0.233324

>  <r_i_glide_ligand_efficiency_sa>  (206) 
-0.633339

>  <r_i_glide_ligand_efficiency_ln>  (206) 
-1.16787

>  <r_i_glide_gscore>  (206) 
-4.66648

>  <r_i_glide_lipo>  (206) 
-0.630105

>  <r_i_glide_hbond>  (206) 
-0.448198

>  <r_i_glide_metal>  (206) 
-0

>  <r_i_glide_rewards>  (206) 
-1.83093

>  <r_i_glide_evdw>  (206) 
-21.1181

>  <r_i_glide_ecoul>  (206) 
-5.81498

>  <r_i_glide_erotb>  (206) 
0.211091

>  <r_i_glide_esite>  (206) 
-0.0401859

>  <r_i_glide_emodel>  (206) 
-34.7643

>  <r_i_glide_energy>  (206) 
-26.9331

>  <r_i_glide_einternal>  (206) 
3.86427

>  <r_i_glide_intrahb_reward>  (206) 
-0

>  <i_i_glide_confnum>  (206) 
4

>  <i_i_glide_posenum>  (206) 
20

>  <r_i_glide_eff_state_penalty>  (206) 
0

>  <ligand_id>  (206) 
61

>  <original_smiles>  (206) 
Oc1nc2c(N3CCC4(CC3)OCCO4)ncnc2s1

>  <smiles>  (206) 
[H]c1nc(N2C([H])([H])C([H])([H])C3(OC([H])([H])C([H])([H])O3)C([H])([H])C2([H])[H])c2c(n1)sc(=O)n2[H]

$$$$
61:0:2
     RDKit          3D

 34 37  0  0  1  0  0  0  0  0999 V2000
    1.0111   -3.7961    4.0042 O   0  0  0  0  0  0  0  0  0  0  0  0
    1.8991   -4.4020    3.4187 C   0  0  0  0  0  0  0  0  0  0  0  0
    2.6162   -3.9900    2.3049 N   0  0  0  0  0  0  0  0  0  0  0  0
    3.5504   -4.9183    1.8099 C   0  0  0  0  0  0  0  0  0  0  0  0
    4.4408   -4.8327    0.7161 C   0  0  0  0  0  0  0  0  0  0  0  0
    4.4827   -3.7217   -0.1435 N   0  0  0  0  0  0  0  0  0  0  0  0
    5.7262   -3.2924   -0.7787 C   0  0  0  0  0  0  0  0  0  0  0  0
    5.5643   -3.2171   -2.3081 C   0  0  0  0  0  0  0  0  0  0  0  0
    4.3287   -2.3708   -2.6811 C   0  0  0  0  0  0  0  0  0  0  0  0
    3.0573   -2.8863   -1.9630 C   0  0  0  0  0  0  0  0  0  0  0  0
    3.2868   -2.9479   -0.4583 C   0  0  0  0  0  0  0  0  0  0  0  0
    4.1339   -2.4292   -4.0540 O   0  0  0  0  0  0  0  0  0  0  0  0
    3.3776   -1.2718   -4.3339 C   0  0  0  0  0  0  0  0  0  0  0  0
    3.9025   -0.2709   -3.3221 C   0  0  0  0  0  0  0  0  0  0  0  0
    4.5566   -1.0455   -2.3357 O   0  0  0  0  0  0  0  0  0  0  0  0
    5.3022   -5.8545    0.4933 N   0  0  0  0  0  0  0  0  0  0  0  0
    5.2620   -6.9153    1.3138 C   0  0  0  0  0  0  0  0  0  0  0  0
    4.4471   -7.0862    2.3585 N   0  0  0  0  0  0  0  0  0  0  0  0
    3.6013   -6.0698    2.5755 C   0  0  0  0  0  0  0  0  0  0  0  0
    2.4712   -6.0540    3.9019 S   0  0  0  0  0  0  0  0  0  0  0  0
    5.9746   -2.3047   -0.3890 H   0  0  0  0  0  0  0  0  0  0  0  0
    6.5612   -3.9417   -0.5147 H   0  0  0  0  0  0  0  0  0  0  0  0
    6.4496   -2.7986   -2.7823 H   0  0  0  0  0  0  0  0  0  0  0  0
    5.4182   -4.2165   -2.7155 H   0  0  0  0  0  0  0  0  0  0  0  0
    2.2033   -2.2396   -2.1435 H   0  0  0  0  0  0  0  0  0  0  0  0
    2.8068   -3.8592   -2.3678 H   0  0  0  0  0  0  0  0  0  0  0  0
    2.3826   -3.3829   -0.0416 H   0  0  0  0  0  0  0  0  0  0  0  0
    3.3905   -1.9407   -0.0537 H   0  0  0  0  0  0  0  0  0  0  0  0
    3.5002   -0.9295   -5.3618 H   0  0  0  0  0  0  0  0  0  0  0  0
    2.3130   -1.4728   -4.1909 H   0  0  0  0  0  0  0  0  0  0  0  0
    4.6134    0.4203   -3.7701 H   0  0  0  0  0  0  0  0  0  0  0  0
    3.0725    0.2852   -2.9104 H   0  0  0  0  0  0  0  0  0  0  0  0
    5.9629   -7.7122    1.1152 H   0  0  0  0  0  0  0  0  0  0  0  0
    2.4548   -3.0878    1.8815 H   0  0  0  0  0  0  0  0  0  0  0  0
  1  2  2  0
  2 20  1  0
  2  3  1  0
  3  4  1  0
  3 34  1  0
  4 19  2  0
  4  5  1  0
  5  6  1  0
  5 16  2  0
  6 11  1  0
  6  7  1  0
  7  8  1  0
  7 21  1  0
  7 22  1  0
  8  9  1  0
  8 23  1  0
  8 24  1  0
  9 15  1  0
  9 10  1  0
  9 12  1  0
 10 11  1  0
 10 25  1  0
 10 26  1  0
 11 27  1  0
 11 28  1  0
 12 13  1  0
 13 14  1  0
 13 29  1  0
 13 30  1  0
 14 15  1  0
 14 31  1  0
 14 32  1  0
 16 17  1  0
 17 18  2  0
 17 33  1  0
 18 19  1  0
 19 20  1  0
M  END
>  <i_m_ct_stereo_status>  (207) 
1

>  <s_m_source_file>  (207) 
/var/tmp/pbs.5076255.sched01/tmplj_yfvzq/807e0r74np.sdf

>  <i_m_source_file_index>  (207) 
3

>  <i_lp_mmshare_version>  (207) 
48012

>  <i_f3d_flags>  (207) 
0

>  <s_epik_input>  (207) 
W09IXWMobjEpc2MoYzEyKW5bY0hdbmMyTihbQ0gyXVtDSDJdMylbQ0gyXVtDSDJdQzM0T1tDSDJdW0NIMl1PNA==

>  <s_epik_cmdline>  (207) 
J2VwaWtfcHl0aG9uJywgJy1waHQnLCAnMi4wJywgJy1waCcsICc3LjAnLCAnLXRuJywgJzgnLCAnLW1hJywgJzIwMCcsICctaW1hZScsICc8aW5maWxlLm1hZT4nLCAnLW9tYWUnLCAnPG91dGZpbGUubWFlPic=

>  <r_epik_Ionization_Penalty>  (207) 
0.0930973

>  <r_epik_Ionization_Penalty_Charging>  (207) 
0.0416026

>  <r_epik_Ionization_Penalty_Neutral>  (207) 
0.0514947

>  <r_epik_State_Penalty>  (207) 
0.0953523

>  <r_epik_Charging_Adjusted_Penalty>  (207) 
0.136955

>  <i_epik_Tot_Q>  (207) 
0

>  <i_epik_Tot_abs_Q>  (207) 
0

>  <s_lp_Force_Field>  (207) 
OPLS3e

>  <r_lp_Energy>  (207) 
22.7171

>  <b_lp_Chiralities_Consistent>  (207) 
1

>  <s_lp_Variant>  (207) 
61:0-1

>  <s_i_glide_gridfile>  (207) 
pfpi4k_grid

>  <i_i_glide_lignum>  (207) 
3

>  <i_i_glide_rotatable_bonds>  (207) 
1

>  <r_i_docking_score>  (207) 
-3.85073

>  <r_i_glide_ligand_efficiency>  (207) 
-0.192536

>  <r_i_glide_ligand_efficiency_sa>  (207) 
-0.522624

>  <r_i_glide_ligand_efficiency_ln>  (207) 
-0.96371

>  <r_i_glide_gscore>  (207) 
-3.85073

>  <r_i_glide_lipo>  (207) 
-0.513916

>  <r_i_glide_hbond>  (207) 
-0.279261

>  <r_i_glide_metal>  (207) 
-0

>  <r_i_glide_rewards>  (207) 
-1.73196

>  <r_i_glide_evdw>  (207) 
-25.262

>  <r_i_glide_ecoul>  (207) 
-1.78909

>  <r_i_glide_erotb>  (207) 
0.211091

>  <r_i_glide_esite>  (207) 
-0.0052159

>  <r_i_glide_emodel>  (207) 
-35.0565

>  <r_i_glide_energy>  (207) 
-27.0511

>  <r_i_glide_einternal>  (207) 
0.0030867

>  <r_i_glide_intrahb_reward>  (207) 
-0

>  <i_i_glide_confnum>  (207) 
1

>  <i_i_glide_posenum>  (207) 
1

>  <r_i_glide_eff_state_penalty>  (207) 
0

>  <ligand_id>  (207) 
61

>  <original_smiles>  (207) 
Oc1nc2c(N3CCC4(CC3)OCCO4)ncnc2s1

>  <smiles>  (207) 
[H]c1nc(N2C([H])([H])C([H])([H])C3(OC([H])([H])C([H])([H])O3)C([H])([H])C2([H])[H])c2c(n1)sc(=O)n2[H]

$$$$
61:1:0
     RDKit          3D

 35 38  0  0  1  0  0  0  0  0999 V2000
    4.6849   -3.8015   -4.0969 O   0  0  0  0  0  0  0  0  0  0  0  0
    4.4690   -3.4000   -2.9612 C   0  0  0  0  0  0  0  0  0  0  0  0
    4.9111   -3.9603   -1.7715 N   0  0  0  0  0  0  0  0  0  0  0  0
    4.3932   -3.3652   -0.6095 C   0  0  0  0  0  0  0  0  0  0  0  0
    4.5663   -3.6942    0.7467 C   0  0  0  0  0  0  0  0  0  0  0  0
    5.3195   -4.8138    1.1455 N   0  0  0  0  0  0  0  0  0  0  0  0
    5.2771   -6.0767    0.4144 C   0  0  0  0  0  0  0  0  0  0  0  0
    4.9253   -7.2499    1.3427 C   0  0  0  0  0  0  0  0  0  0  0  0
    5.8668   -7.2549    2.5685 C   0  0  0  0  0  0  0  0  0  0  0  0
    5.8258   -5.8844    3.3027 C   0  0  0  0  0  0  0  0  0  0  0  0
    6.1813   -4.7580    2.3179 C   0  0  0  0  0  0  0  0  0  0  0  0
    7.1631   -7.5560    2.1603 O   0  0  0  0  0  0  0  0  0  0  0  0
    7.7854   -8.1058    3.3032 C   0  0  0  0  0  0  0  0  0  0  0  0
    6.6160   -8.7972    4.0112 C   0  0  0  0  0  0  0  0  0  0  0  0
    5.4480   -8.2391    3.4443 O   0  0  0  0  0  0  0  0  0  0  0  0
    4.0160   -2.9143    1.7036 N   0  0  0  0  0  0  0  0  0  0  0  0
    3.2688   -1.8536    1.3559 C   0  0  0  0  0  0  0  0  0  0  0  0
    3.0168   -1.5507    0.0749 N   0  0  0  0  0  0  0  0  0  0  0  0
    3.5962   -2.2744   -0.8933 C   0  0  0  0  0  0  0  0  0  0  0  0
    3.4129   -1.9721   -2.5977 S   0  0  0  0  0  0  0  0  0  0  0  0
    4.5396   -6.0590   -0.3892 H   0  0  0  0  0  0  0  0  0  0  0  0
    6.2564   -6.2563   -0.0367 H   0  0  0  0  0  0  0  0  0  0  0  0
    3.8966   -7.1470    1.6839 H   0  0  0  0  0  0  0  0  0  0  0  0
    4.9795   -8.2029    0.8150 H   0  0  0  0  0  0  0  0  0  0  0  0
    4.8187   -5.7298    3.6992 H   0  0  0  0  0  0  0  0  0  0  0  0
    6.5182   -5.8586    4.1454 H   0  0  0  0  0  0  0  0  0  0  0  0
    7.2171   -4.8535    1.9754 H   0  0  0  0  0  0  0  0  0  0  0  0
    6.1169   -3.7934    2.8239 H   0  0  0  0  0  0  0  0  0  0  0  0
    8.6073   -8.7858    3.0730 H   0  0  0  0  0  0  0  0  0  0  0  0
    8.1860   -7.2932    3.9096 H   0  0  0  0  0  0  0  0  0  0  0  0
    6.6124   -9.8717    3.8397 H   0  0  0  0  0  0  0  0  0  0  0  0
    6.6201   -8.6247    5.0849 H   0  0  0  0  0  0  0  0  0  0  0  0
    2.7921   -1.2612    2.1228 H   0  0  0  0  0  0  0  0  0  0  0  0
    5.4573   -4.8188   -1.7718 H   0  0  0  0  0  0  0  0  0  0  0  0
    2.3345   -0.8331   -0.2039 H   0  0  0  0  0  0  0  0  0  0  0  0
  1  2  2  0
  2 20  1  0
  2  3  1  0
  3  4  1  0
  3 34  1  0
  4 19  2  0
  4  5  1  0
  5  6  1  0
  5 16  2  0
  6 11  1  0
  6  7  1  0
  7  8  1  0
  7 21  1  0
  7 22  1  0
  8  9  1  0
  8 23  1  0
  8 24  1  0
  9 15  1  0
  9 10  1  0
  9 12  1  0
 10 11  1  0
 10 25  1  0
 10 26  1  0
 11 27  1  0
 11 28  1  0
 12 13  1  0
 13 14  1  0
 13 29  1  0
 13 30  1  0
 14 15  1  0
 14 31  1  0
 14 32  1  0
 16 17  1  0
 17 18  2  0
 17 33  1  0
 18 19  1  0
 18 35  1  0
 19 20  1  0
M  CHG  1  18   1
M  END
>  <i_m_ct_stereo_status>  (208) 
1

>  <s_m_source_file>  (208) 
/var/tmp/pbs.5076255.sched01/tmplj_yfvzq/807e0r74np.sdf

>  <i_m_source_file_index>  (208) 
4

>  <i_lp_mmshare_version>  (208) 
48012

>  <i_f3d_flags>  (208) 
0

>  <s_epik_input>  (208) 
W09IXWMobjEpc2MoYzEyKW5bY0hdbmMyTihbQ0gyXVtDSDJdMylbQ0gyXVtDSDJdQzM0T1tDSDJdW0NIMl1PNA==

>  <s_epik_cmdline>  (208) 
J2VwaWtfcHl0aG9uJywgJy1waHQnLCAnMi4wJywgJy1waCcsICc3LjAnLCAnLXRuJywgJzgnLCAnLW1hJywgJzIwMCcsICctaW1hZScsICc8aW5maWxlLm1hZT4nLCAnLW9tYWUnLCAnPG91dGZpbGUubWFlPic=

>  <r_epik_Ionization_Penalty>  (208) 
1.52809

>  <r_epik_Ionization_Penalty_Charging>  (208) 
1.52809

>  <r_epik_Ionization_Penalty_Neutral>  (208) 
2.04067e-08

>  <r_epik_State_Penalty>  (208) 
1.3411

>  <r_epik_Charging_Adjusted_Penalty>  (208) 
2.86919

>  <i_epik_Tot_Q>  (208) 
1

>  <i_epik_Tot_abs_Q>  (208) 
1

>  <s_lp_Force_Field>  (208) 
OPLS3e

>  <r_lp_Energy>  (208) 
25.8837

>  <b_lp_Chiralities_Consistent>  (208) 
1

>  <s_lp_Variant>  (208) 
61:0-2

>  <s_i_glide_gridfile>  (208) 
pfpi4k_grid

>  <i_i_glide_lignum>  (208) 
4

>  <i_i_glide_rotatable_bonds>  (208) 
1

>  <r_i_docking_score>  (208) 
-4.21173

>  <r_i_glide_ligand_efficiency>  (208) 
-0.210587

>  <r_i_glide_ligand_efficiency_sa>  (208) 
-0.57162

>  <r_i_glide_ligand_efficiency_ln>  (208) 
-1.05406

>  <r_i_glide_gscore>  (208) 
-4.21173

>  <r_i_glide_lipo>  (208) 
-0.400107

>  <r_i_glide_hbond>  (208) 
-0.124307

>  <r_i_glide_metal>  (208) 
-0

>  <r_i_glide_rewards>  (208) 
-1.49324

>  <r_i_glide_evdw>  (208) 
-20.8121

>  <r_i_glide_ecoul>  (208) 
-8.1562

>  <r_i_glide_erotb>  (208) 
0.209835

>  <r_i_glide_esite>  (208) 
-0.139878

>  <r_i_glide_emodel>  (208) 
-38.1438

>  <r_i_glide_energy>  (208) 
-28.9683

>  <r_i_glide_einternal>  (208) 
0.0123266

>  <r_i_glide_intrahb_reward>  (208) 
-0

>  <i_i_glide_confnum>  (208) 
5

>  <i_i_glide_posenum>  (208) 
3

>  <r_i_glide_eff_state_penalty>  (208) 
0

>  <ligand_id>  (208) 
61

>  <original_smiles>  (208) 
Oc1nc2c(N3CCC4(CC3)OCCO4)ncnc2s1

>  <smiles>  (208) 
[H]c1nc(N2C([H])([H])C([H])([H])C3(OC([H])([H])C([H])([H])O3)C([H])([H])C2([H])[H])c2c(sc(=O)n2[H])[n+]1[H]

$$$$
61:1:1
     RDKit          3D

 35 38  0  0  1  0  0  0  0  0999 V2000
    1.0146   -3.9206    4.1136 O   0  0  0  0  0  0  0  0  0  0  0  0
    1.7560   -4.6050    3.4169 C   0  0  0  0  0  0  0  0  0  0  0  0
    2.4349   -4.2166    2.2699 N   0  0  0  0  0  0  0  0  0  0  0  0
    3.1931   -5.2380    1.6598 C   0  0  0  0  0  0  0  0  0  0  0  0
    4.0122   -5.1901    0.5222 C   0  0  0  0  0  0  0  0  0  0  0  0
    4.1409   -4.0288   -0.2600 N   0  0  0  0  0  0  0  0  0  0  0  0
    5.4254   -3.6251   -0.8157 C   0  0  0  0  0  0  0  0  0  0  0  0
    5.3350   -3.4502   -2.3461 C   0  0  0  0  0  0  0  0  0  0  0  0
    4.1547   -2.5235   -2.7102 C   0  0  0  0  0  0  0  0  0  0  0  0
    2.8275   -3.0073   -2.0787 C   0  0  0  0  0  0  0  0  0  0  0  0
    2.9924   -3.1849   -0.5676 C   0  0  0  0  0  0  0  0  0  0  0  0
    4.0170   -2.4868   -4.0924 O   0  0  0  0  0  0  0  0  0  0  0  0
    3.3285   -1.2796   -4.3287 C   0  0  0  0  0  0  0  0  0  0  0  0
    3.8576   -0.3710   -3.2300 C   0  0  0  0  0  0  0  0  0  0  0  0
    4.4359   -1.2412   -2.2746 O   0  0  0  0  0  0  0  0  0  0  0  0
    4.7107   -6.3012    0.1721 N   0  0  0  0  0  0  0  0  0  0  0  0
    4.5991   -7.4257    0.8954 C   0  0  0  0  0  0  0  0  0  0  0  0
    3.8234   -7.5263    1.9877 N   0  0  0  0  0  0  0  0  0  0  0  0
    3.1309   -6.4333    2.3588 C   0  0  0  0  0  0  0  0  0  0  0  0
    2.1099   -6.3497    3.7632 S   0  0  0  0  0  0  0  0  0  0  0  0
    5.7070   -2.6760   -0.3566 H   0  0  0  0  0  0  0  0  0  0  0  0
    6.2089   -4.3377   -0.5574 H   0  0  0  0  0  0  0  0  0  0  0  0
    6.2621   -3.0424   -2.7563 H   0  0  0  0  0  0  0  0  0  0  0  0
    5.1628   -4.4122   -2.8200 H   0  0  0  0  0  0  0  0  0  0  0  0
    2.0074   -2.3130   -2.2576 H   0  0  0  0  0  0  0  0  0  0  0  0
    2.5325   -3.9274   -2.5662 H   0  0  0  0  0  0  0  0  0  0  0  0
    2.0694   -3.6098   -0.1806 H   0  0  0  0  0  0  0  0  0  0  0  0
    3.1243   -2.2051   -0.1008 H   0  0  0  0  0  0  0  0  0  0  0  0
    3.4977   -0.8778   -5.3286 H   0  0  0  0  0  0  0  0  0  0  0  0
    2.2515   -1.4401   -4.2423 H   0  0  0  0  0  0  0  0  0  0  0  0
    4.6109    0.3199   -3.6063 H   0  0  0  0  0  0  0  0  0  0  0  0
    3.0265    0.1719   -2.7971 H   0  0  0  0  0  0  0  0  0  0  0  0
    5.1532   -8.3066    0.5981 H   0  0  0  0  0  0  0  0  0  0  0  0
    2.3713   -3.2645    1.9201 H   0  0  0  0  0  0  0  0  0  0  0  0
    3.7528   -8.3899    2.5307 H   0  0  0  0  0  0  0  0  0  0  0  0
  1  2  2  0
  2 20  1  0
  2  3  1  0
  3  4  1  0
  3 34  1  0
  4 19  2  0
  4  5  1  0
  5  6  1  0
  5 16  2  0
  6 11  1  0
  6  7  1  0
  7  8  1  0
  7 21  1  0
  7 22  1  0
  8  9  1  0
  8 23  1  0
  8 24  1  0
  9 15  1  0
  9 10  1  0
  9 12  1  0
 10 11  1  0
 10 25  1  0
 10 26  1  0
 11 27  1  0
 11 28  1  0
 12 13  1  0
 13 14  1  0
 13 29  1  0
 13 30  1  0
 14 15  1  0
 14 31  1  0
 14 32  1  0
 16 17  1  0
 17 18  2  0
 17 33  1  0
 18 19  1  0
 18 35  1  0
 19 20  1  0
M  CHG  1  18   1
M  END
>  <i_m_ct_stereo_status>  (209) 
1

>  <s_m_source_file>  (209) 
/var/tmp/pbs.5076255.sched01/tmplj_yfvzq/807e0r74np.sdf

>  <i_m_source_file_index>  (209) 
4

>  <i_lp_mmshare_version>  (209) 
48012

>  <i_f3d_flags>  (209) 
0

>  <s_epik_input>  (209) 
W09IXWMobjEpc2MoYzEyKW5bY0hdbmMyTihbQ0gyXVtDSDJdMylbQ0gyXVtDSDJdQzM0T1tDSDJdW0NIMl1PNA==

>  <s_epik_cmdline>  (209) 
J2VwaWtfcHl0aG9uJywgJy1waHQnLCAnMi4wJywgJy1waCcsICc3LjAnLCAnLXRuJywgJzgnLCAnLW1hJywgJzIwMCcsICctaW1hZScsICc8aW5maWxlLm1hZT4nLCAnLW9tYWUnLCAnPG91dGZpbGUubWFlPic=

>  <r_epik_Ionization_Penalty>  (209) 
1.52809

>  <r_epik_Ionization_Penalty_Charging>  (209) 
1.52809

>  <r_epik_Ionization_Penalty_Neutral>  (209) 
2.04067e-08

>  <r_epik_State_Penalty>  (209) 
1.3411

>  <r_epik_Charging_Adjusted_Penalty>  (209) 
2.86919

>  <i_epik_Tot_Q>  (209) 
1

>  <i_epik_Tot_abs_Q>  (209) 
1

>  <s_lp_Force_Field>  (209) 
OPLS3e

>  <r_lp_Energy>  (209) 
25.8837

>  <b_lp_Chiralities_Consistent>  (209) 
1

>  <s_lp_Variant>  (209) 
61:0-2

>  <s_i_glide_gridfile>  (209) 
pfpi4k_grid

>  <i_i_glide_lignum>  (209) 
4

>  <i_i_glide_rotatable_bonds>  (209) 
1

>  <r_i_docking_score>  (209) 
-3.87567

>  <r_i_glide_ligand_efficiency>  (209) 
-0.193784

>  <r_i_glide_ligand_efficiency_sa>  (209) 
-0.52601

>  <r_i_glide_ligand_efficiency_ln>  (209) 
-0.969953

>  <r_i_glide_gscore>  (209) 
-3.87567

>  <r_i_glide_lipo>  (209) 
-0.4736

>  <r_i_glide_hbond>  (209) 
-0.303601

>  <r_i_glide_metal>  (209) 
-0

>  <r_i_glide_rewards>  (209) 
-1.6392

>  <r_i_glide_evdw>  (209) 
-24.6993

>  <r_i_glide_ecoul>  (209) 
-2.78791

>  <r_i_glide_erotb>  (209) 
0.209835

>  <r_i_glide_esite>  (209) 
-0.0159567

>  <r_i_glide_emodel>  (209) 
-35.777

>  <r_i_glide_energy>  (209) 
-27.4872

>  <r_i_glide_einternal>  (209) 
0.255615

>  <r_i_glide_intrahb_reward>  (209) 
-0

>  <i_i_glide_confnum>  (209) 
1

>  <i_i_glide_posenum>  (209) 
7

>  <r_i_glide_eff_state_penalty>  (209) 
0

>  <ligand_id>  (209) 
61

>  <original_smiles>  (209) 
Oc1nc2c(N3CCC4(CC3)OCCO4)ncnc2s1

>  <smiles>  (209) 
[H]c1nc(N2C([H])([H])C([H])([H])C3(OC([H])([H])C([H])([H])O3)C([H])([H])C2([H])[H])c2c(sc(=O)n2[H])[n+]1[H]

$$$$
61:1:2
     RDKit          3D

 35 38  0  0  1  0  0  0  0  0999 V2000
    4.0320   -0.4484   -3.5953 O   0  0  0  0  0  0  0  0  0  0  0  0
    4.0879   -1.2789   -2.6988 C   0  0  0  0  0  0  0  0  0  0  0  0
    4.0220   -1.0566   -1.3299 N   0  0  0  0  0  0  0  0  0  0  0  0
    4.0551   -2.2091   -0.5301 C   0  0  0  0  0  0  0  0  0  0  0  0
    3.9861   -2.3355    0.8693 C   0  0  0  0  0  0  0  0  0  0  0  0
    3.8480   -1.2293    1.7237 N   0  0  0  0  0  0  0  0  0  0  0  0
    2.9898   -0.0928    1.4034 C   0  0  0  0  0  0  0  0  0  0  0  0
    1.9789    0.1672    2.5326 C   0  0  0  0  0  0  0  0  0  0  0  0
    2.7099    0.2847    3.8886 C   0  0  0  0  0  0  0  0  0  0  0  0
    3.6184   -0.9504    4.1481 C   0  0  0  0  0  0  0  0  0  0  0  0
    4.5783   -1.1729    2.9771 C   0  0  0  0  0  0  0  0  0  0  0  0
    1.7706    0.3951    4.9085 O   0  0  0  0  0  0  0  0  0  0  0  0
    2.4597    1.0554    5.9505 C   0  0  0  0  0  0  0  0  0  0  0  0
    3.4203    1.9757    5.1923 C   0  0  0  0  0  0  0  0  0  0  0  0
    3.4785    1.4377    3.8855 O   0  0  0  0  0  0  0  0  0  0  0  0
    4.0902   -3.5769    1.4086 N   0  0  0  0  0  0  0  0  0  0  0  0
    4.2306   -4.6581    0.6194 C   0  0  0  0  0  0  0  0  0  0  0  0
    4.2784   -4.5733   -0.7153 N   0  0  0  0  0  0  0  0  0  0  0  0
    4.1945   -3.3539   -1.2793 C   0  0  0  0  0  0  0  0  0  0  0  0
    4.2673   -3.0602   -2.9970 S   0  0  0  0  0  0  0  0  0  0  0  0
    3.6084    0.7925    1.2368 H   0  0  0  0  0  0  0  0  0  0  0  0
    2.4177   -0.2754    0.4978 H   0  0  0  0  0  0  0  0  0  0  0  0
    1.3911    1.0690    2.3320 H   0  0  0  0  0  0  0  0  0  0  0  0
    1.2769   -0.6608    2.5892 H   0  0  0  0  0  0  0  0  0  0  0  0
    4.2122   -0.8213    5.0529 H   0  0  0  0  0  0  0  0  0  0  0  0
    2.9736   -1.8151    4.2961 H   0  0  0  0  0  0  0  0  0  0  0  0
    5.1772   -2.0679    3.1471 H   0  0  0  0  0  0  0  0  0  0  0  0
    5.2749   -0.3385    2.9324 H   0  0  0  0  0  0  0  0  0  0  0  0
    1.7902    1.5901    6.6235 H   0  0  0  0  0  0  0  0  0  0  0  0
    2.9984    0.3182    6.5451 H   0  0  0  0  0  0  0  0  0  0  0  0
    3.0487    2.9987    5.1503 H   0  0  0  0  0  0  0  0  0  0  0  0
    4.4127    1.9863    5.6353 H   0  0  0  0  0  0  0  0  0  0  0  0
    4.2579   -5.6447    1.0511 H   0  0  0  0  0  0  0  0  0  0  0  0
    3.8767   -0.1270   -0.9623 H   0  0  0  0  0  0  0  0  0  0  0  0
    4.3344   -5.3828   -1.3358 H   0  0  0  0  0  0  0  0  0  0  0  0
  1  2  2  0
  2 20  1  0
  2  3  1  0
  3  4  1  0
  3 34  1  0
  4 19  2  0
  4  5  1  0
  5  6  1  0
  5 16  2  0
  6 11  1  0
  6  7  1  0
  7  8  1  0
  7 21  1  0
  7 22  1  0
  8  9  1  0
  8 23  1  0
  8 24  1  0
  9 15  1  0
  9 10  1  0
  9 12  1  0
 10 11  1  0
 10 25  1  0
 10 26  1  0
 11 27  1  0
 11 28  1  0
 12 13  1  0
 13 14  1  0
 13 29  1  0
 13 30  1  0
 14 15  1  0
 14 31  1  0
 14 32  1  0
 16 17  1  0
 17 18  2  0
 17 33  1  0
 18 19  1  0
 18 35  1  0
 19 20  1  0
M  CHG  1  18   1
M  END
>  <i_m_ct_stereo_status>  (210) 
1

>  <s_m_source_file>  (210) 
/var/tmp/pbs.5076255.sched01/tmplj_yfvzq/807e0r74np.sdf

>  <i_m_source_file_index>  (210) 
4

>  <i_lp_mmshare_version>  (210) 
48012

>  <i_f3d_flags>  (210) 
0

>  <s_epik_input>  (210) 
W09IXWMobjEpc2MoYzEyKW5bY0hdbmMyTihbQ0gyXVtDSDJdMylbQ0gyXVtDSDJdQzM0T1tDSDJdW0NIMl1PNA==

>  <s_epik_cmdline>  (210) 
J2VwaWtfcHl0aG9uJywgJy1waHQnLCAnMi4wJywgJy1waCcsICc3LjAnLCAnLXRuJywgJzgnLCAnLW1hJywgJzIwMCcsICctaW1hZScsICc8aW5maWxlLm1hZT4nLCAnLW9tYWUnLCAnPG91dGZpbGUubWFlPic=

>  <r_epik_Ionization_Penalty>  (210) 
1.52809

>  <r_epik_Ionization_Penalty_Charging>  (210) 
1.52809

>  <r_epik_Ionization_Penalty_Neutral>  (210) 
2.04067e-08

>  <r_epik_State_Penalty>  (210) 
1.3411

>  <r_epik_Charging_Adjusted_Penalty>  (210) 
2.86919

>  <i_epik_Tot_Q>  (210) 
1

>  <i_epik_Tot_abs_Q>  (210) 
1

>  <s_lp_Force_Field>  (210) 
OPLS3e

>  <r_lp_Energy>  (210) 
25.8837

>  <b_lp_Chiralities_Consistent>  (210) 
1

>  <s_lp_Variant>  (210) 
61:0-2

>  <s_i_glide_gridfile>  (210) 
pfpi4k_grid

>  <i_i_glide_lignum>  (210) 
4

>  <i_i_glide_rotatable_bonds>  (210) 
1

>  <r_i_docking_score>  (210) 
-3.39628

>  <r_i_glide_ligand_efficiency>  (210) 
-0.169814

>  <r_i_glide_ligand_efficiency_sa>  (210) 
-0.460947

>  <r_i_glide_ligand_efficiency_ln>  (210) 
-0.849978

>  <r_i_glide_gscore>  (210) 
-3.39628

>  <r_i_glide_lipo>  (210) 
-0.122964

>  <r_i_glide_hbond>  (210) 
0

>  <r_i_glide_metal>  (210) 
-0

>  <r_i_glide_rewards>  (210) 
-1.4416

>  <r_i_glide_evdw>  (210) 
-24.0582

>  <r_i_glide_ecoul>  (210) 
-5.00546

>  <r_i_glide_erotb>  (210) 
0.209835

>  <r_i_glide_esite>  (210) 
-0.0878262

>  <r_i_glide_emodel>  (210) 
-36.1986

>  <r_i_glide_energy>  (210) 
-29.0637

>  <r_i_glide_einternal>  (210) 
0.454457

>  <r_i_glide_intrahb_reward>  (210) 
-0

>  <i_i_glide_confnum>  (210) 
2

>  <i_i_glide_posenum>  (210) 
4

>  <r_i_glide_eff_state_penalty>  (210) 
0

>  <ligand_id>  (210) 
61

>  <original_smiles>  (210) 
Oc1nc2c(N3CCC4(CC3)OCCO4)ncnc2s1

>  <smiles>  (210) 
[H]c1nc(N2C([H])([H])C([H])([H])C3(OC([H])([H])C([H])([H])O3)C([H])([H])C2([H])[H])c2c(sc(=O)n2[H])[n+]1[H]

$$$$
61:2:0
     RDKit          3D

 33 36  0  0  1  0  0  0  0  0999 V2000
   -0.4166   -6.7225    1.6053 O   0  0  0  0  0  0  0  0  0  0  0  0
    0.8079   -6.7450    1.4683 C   0  0  0  0  0  0  0  0  0  0  0  0
    1.5924   -5.8354    0.9106 N   0  0  0  0  0  0  0  0  0  0  0  0
    2.9160   -6.1155    0.9919 C   0  0  0  0  0  0  0  0  0  0  0  0
    4.0646   -5.3782    0.5643 C   0  0  0  0  0  0  0  0  0  0  0  0
    4.0021   -4.1371   -0.0806 N   0  0  0  0  0  0  0  0  0  0  0  0
    5.0510   -3.1228    0.0495 C   0  0  0  0  0  0  0  0  0  0  0  0
    5.5917   -2.6850   -1.3311 C   0  0  0  0  0  0  0  0  0  0  0  0
    4.4280   -2.2909   -2.2683 C   0  0  0  0  0  0  0  0  0  0  0  0
    3.3715   -3.3958   -2.3429 C   0  0  0  0  0  0  0  0  0  0  0  0
    2.8877   -3.7823   -0.9482 C   0  0  0  0  0  0  0  0  0  0  0  0
    4.9165   -2.0592   -3.5411 O   0  0  0  0  0  0  0  0  0  0  0  0
    3.9488   -1.2281   -4.1572 C   0  0  0  0  0  0  0  0  0  0  0  0
    3.4503   -0.4115   -2.9771 C   0  0  0  0  0  0  0  0  0  0  0  0
    3.8513   -1.1267   -1.8237 O   0  0  0  0  0  0  0  0  0  0  0  0
    5.3040   -5.8842    0.7809 N   0  0  0  0  0  0  0  0  0  0  0  0
    5.4044   -7.0657    1.3872 C   0  0  0  0  0  0  0  0  0  0  0  0
    4.4136   -7.8382    1.8380 N   0  0  0  0  0  0  0  0  0  0  0  0
    3.1966   -7.3240    1.6085 C   0  0  0  0  0  0  0  0  0  0  0  0
    1.7401   -8.1311    2.1000 S   0  0  0  0  0  0  0  0  0  0  0  0
    4.6147   -2.2595    0.5532 H   0  0  0  0  0  0  0  0  0  0  0  0
    5.8680   -3.4537    0.6952 H   0  0  0  0  0  0  0  0  0  0  0  0
    6.2843   -1.8505   -1.2440 H   0  0  0  0  0  0  0  0  0  0  0  0
    6.1374   -3.5035   -1.7859 H   0  0  0  0  0  0  0  0  0  0  0  0
    2.5018   -3.1130   -2.9379 H   0  0  0  0  0  0  0  0  0  0  0  0
    3.8339   -4.2407   -2.8368 H   0  0  0  0  0  0  0  0  0  0  0  0
    2.2094   -4.6205   -1.1039 H   0  0  0  0  0  0  0  0  0  0  0  0
    2.3214   -2.9640   -0.5023 H   0  0  0  0  0  0  0  0  0  0  0  0
    4.3841   -0.5939   -4.9294 H   0  0  0  0  0  0  0  0  0  0  0  0
    3.1453   -1.8169   -4.6089 H   0  0  0  0  0  0  0  0  0  0  0  0
    3.9210    0.5712   -2.9530 H   0  0  0  0  0  0  0  0  0  0  0  0
    2.3707   -0.2817   -2.9773 H   0  0  0  0  0  0  0  0  0  0  0  0
    6.4050   -7.4552    1.5541 H   0  0  0  0  0  0  0  0  0  0  0  0
  1  2  2  0
  2 20  1  0
  2  3  1  0
  3  4  1  0
  4 19  2  0
  4  5  1  0
  5  6  1  0
  5 16  2  0
  6 11  1  0
  6  7  1  0
  7  8  1  0
  7 21  1  0
  7 22  1  0
  8  9  1  0
  8 23  1  0
  8 24  1  0
  9 15  1  0
  9 10  1  0
  9 12  1  0
 10 11  1  0
 10 25  1  0
 10 26  1  0
 11 27  1  0
 11 28  1  0
 12 13  1  0
 13 14  1  0
 13 29  1  0
 13 30  1  0
 14 15  1  0
 14 31  1  0
 14 32  1  0
 16 17  1  0
 17 18  2  0
 17 33  1  0
 18 19  1  0
 19 20  1  0
M  CHG  1   3  -1
M  END
>  <i_m_ct_stereo_status>  (211) 
1

>  <s_m_source_file>  (211) 
/var/tmp/pbs.5076255.sched01/tmplj_yfvzq/807e0r74np.sdf

>  <i_m_source_file_index>  (211) 
5

>  <i_lp_mmshare_version>  (211) 
48012

>  <i_f3d_flags>  (211) 
0

>  <s_epik_input>  (211) 
W09IXWMobjEpc2MoYzEyKW5bY0hdbmMyTihbQ0gyXVtDSDJdMylbQ0gyXVtDSDJdQzM0T1tDSDJdW0NIMl1PNA==

>  <s_epik_cmdline>  (211) 
J2VwaWtfcHl0aG9uJywgJy1waHQnLCAnMi4wJywgJy1waCcsICc3LjAnLCAnLXRuJywgJzgnLCAnLW1hJywgJzIwMCcsICctaW1hZScsICc8aW5maWxlLm1hZT4nLCAnLW9tYWUnLCAnPG91dGZpbGUubWFlPic=

>  <r_epik_Ionization_Penalty>  (211) 
1.8809

>  <r_epik_Ionization_Penalty_Charging>  (211) 
8.17411e-08

>  <r_epik_Ionization_Penalty_Neutral>  (211) 
1.8809

>  <r_epik_State_Penalty>  (211) 
2.03044

>  <r_epik_Charging_Adjusted_Penalty>  (211) 
2.03044

>  <i_epik_Tot_Q>  (211) 
-1

>  <i_epik_Tot_abs_Q>  (211) 
1

>  <s_lp_Force_Field>  (211) 
OPLS3e

>  <r_lp_Energy>  (211) 
32.2622

>  <b_lp_Chiralities_Consistent>  (211) 
1

>  <s_lp_Variant>  (211) 
61:0-3

>  <s_i_glide_gridfile>  (211) 
pfpi4k_grid

>  <i_i_glide_lignum>  (211) 
5

>  <i_i_glide_rotatable_bonds>  (211) 
1

>  <r_i_docking_score>  (211) 
-3.73655

>  <r_i_glide_ligand_efficiency>  (211) 
-0.186828

>  <r_i_glide_ligand_efficiency_sa>  (211) 
-0.507128

>  <r_i_glide_ligand_efficiency_ln>  (211) 
-0.935136

>  <r_i_glide_gscore>  (211) 
-3.73655

>  <r_i_glide_lipo>  (211) 
-0.191167

>  <r_i_glide_hbond>  (211) 
-0.39093

>  <r_i_glide_metal>  (211) 
-0

>  <r_i_glide_rewards>  (211) 
-1.60403

>  <r_i_glide_evdw>  (211) 
-23.7119

>  <r_i_glide_ecoul>  (211) 
-3.79806

>  <r_i_glide_erotb>  (211) 
0.212359

>  <r_i_glide_esite>  (211) 
-0.00748602

>  <r_i_glide_emodel>  (211) 
-35.6216

>  <r_i_glide_energy>  (211) 
-27.51

>  <r_i_glide_einternal>  (211) 
0.235259

>  <r_i_glide_intrahb_reward>  (211) 
-0

>  <i_i_glide_confnum>  (211) 
1

>  <i_i_glide_posenum>  (211) 
18

>  <r_i_glide_eff_state_penalty>  (211) 
0

>  <ligand_id>  (211) 
61

>  <original_smiles>  (211) 
Oc1nc2c(N3CCC4(CC3)OCCO4)ncnc2s1

>  <smiles>  (211) 
[H]c1nc(N2C([H])([H])C([H])([H])C3(OC([H])([H])C([H])([H])O3)C([H])([H])C2([H])[H])c2[n-]c(=O)sc2n1

$$$$
61:2:1
     RDKit          3D

 33 36  0  0  1  0  0  0  0  0999 V2000
    7.4111   -7.5871    1.3552 O   0  0  0  0  0  0  0  0  0  0  0  0
    6.8377   -6.6263    1.8640 C   0  0  0  0  0  0  0  0  0  0  0  0
    6.3386   -5.5280    1.3005 N   0  0  0  0  0  0  0  0  0  0  0  0
    5.7813   -4.6741    2.1779 C   0  0  0  0  0  0  0  0  0  0  0  0
    5.1646   -3.4138    1.9790 C   0  0  0  0  0  0  0  0  0  0  0  0
    5.1094   -2.7866    0.7258 N   0  0  0  0  0  0  0  0  0  0  0  0
    6.2352   -2.8168   -0.1992 C   0  0  0  0  0  0  0  0  0  0  0  0
    5.8190   -3.4282   -1.5528 C   0  0  0  0  0  0  0  0  0  0  0  0
    4.5718   -2.7071   -2.0936 C   0  0  0  0  0  0  0  0  0  0  0  0
    3.4305   -2.7170   -1.0482 C   0  0  0  0  0  0  0  0  0  0  0  0
    3.8973   -2.1205    0.2815 C   0  0  0  0  0  0  0  0  0  0  0  0
    4.1491   -3.3419   -3.2544 O   0  0  0  0  0  0  0  0  0  0  0  0
    3.3868   -2.3649   -3.9238 C   0  0  0  0  0  0  0  0  0  0  0  0
    4.1176   -1.0712   -3.5647 C   0  0  0  0  0  0  0  0  0  0  0  0
    4.8928   -1.3962   -2.4207 O   0  0  0  0  0  0  0  0  0  0  0  0
    4.6268   -2.7386    3.0217 N   0  0  0  0  0  0  0  0  0  0  0  0
    4.7276   -3.2874    4.2371 C   0  0  0  0  0  0  0  0  0  0  0  0
    5.3025   -4.4465    4.5554 N   0  0  0  0  0  0  0  0  0  0  0  0
    5.8068   -5.1031    3.4998 C   0  0  0  0  0  0  0  0  0  0  0  0
    6.5954   -6.6327    3.6519 S   0  0  0  0  0  0  0  0  0  0  0  0
    6.5761   -1.7906   -0.3446 H   0  0  0  0  0  0  0  0  0  0  0  0
    7.0826   -3.3560    0.2242 H   0  0  0  0  0  0  0  0  0  0  0  0
    6.6289   -3.3765   -2.2841 H   0  0  0  0  0  0  0  0  0  0  0  0
    5.5683   -4.4799   -1.4275 H   0  0  0  0  0  0  0  0  0  0  0  0
    2.5986   -2.1251   -1.4053 H   0  0  0  0  0  0  0  0  0  0  0  0
    3.0827   -3.7413   -0.9260 H   0  0  0  0  0  0  0  0  0  0  0  0
    3.0996   -2.1936    1.0200 H   0  0  0  0  0  0  0  0  0  0  0  0
    4.1039   -1.0609    0.1469 H   0  0  0  0  0  0  0  0  0  0  0  0
    3.3766   -2.5501   -4.9948 H   0  0  0  0  0  0  0  0  0  0  0  0
    2.3544   -2.3687   -3.5715 H   0  0  0  0  0  0  0  0  0  0  0  0
    4.7702   -0.7714   -4.3836 H   0  0  0  0  0  0  0  0  0  0  0  0
    3.4342   -0.2502   -3.3569 H   0  0  0  0  0  0  0  0  0  0  0  0
    4.3148   -2.7283    5.0642 H   0  0  0  0  0  0  0  0  0  0  0  0
  1  2  2  0
  2 20  1  0
  2  3  1  0
  3  4  1  0
  4 19  2  0
  4  5  1  0
  5  6  1  0
  5 16  2  0
  6 11  1  0
  6  7  1  0
  7  8  1  0
  7 21  1  0
  7 22  1  0
  8  9  1  0
  8 23  1  0
  8 24  1  0
  9 15  1  0
  9 10  1  0
  9 12  1  0
 10 11  1  0
 10 25  1  0
 10 26  1  0
 11 27  1  0
 11 28  1  0
 12 13  1  0
 13 14  1  0
 13 29  1  0
 13 30  1  0
 14 15  1  0
 14 31  1  0
 14 32  1  0
 16 17  1  0
 17 18  2  0
 17 33  1  0
 18 19  1  0
 19 20  1  0
M  CHG  1   3  -1
M  END
>  <i_m_ct_stereo_status>  (212) 
1

>  <s_m_source_file>  (212) 
/var/tmp/pbs.5076255.sched01/tmplj_yfvzq/807e0r74np.sdf

>  <i_m_source_file_index>  (212) 
5

>  <i_lp_mmshare_version>  (212) 
48012

>  <i_f3d_flags>  (212) 
0

>  <s_epik_input>  (212) 
W09IXWMobjEpc2MoYzEyKW5bY0hdbmMyTihbQ0gyXVtDSDJdMylbQ0gyXVtDSDJdQzM0T1tDSDJdW0NIMl1PNA==

>  <s_epik_cmdline>  (212) 
J2VwaWtfcHl0aG9uJywgJy1waHQnLCAnMi4wJywgJy1waCcsICc3LjAnLCAnLXRuJywgJzgnLCAnLW1hJywgJzIwMCcsICctaW1hZScsICc8aW5maWxlLm1hZT4nLCAnLW9tYWUnLCAnPG91dGZpbGUubWFlPic=

>  <r_epik_Ionization_Penalty>  (212) 
1.8809

>  <r_epik_Ionization_Penalty_Charging>  (212) 
8.17411e-08

>  <r_epik_Ionization_Penalty_Neutral>  (212) 
1.8809

>  <r_epik_State_Penalty>  (212) 
2.03044

>  <r_epik_Charging_Adjusted_Penalty>  (212) 
2.03044

>  <i_epik_Tot_Q>  (212) 
-1

>  <i_epik_Tot_abs_Q>  (212) 
1

>  <s_lp_Force_Field>  (212) 
OPLS3e

>  <r_lp_Energy>  (212) 
32.2622

>  <b_lp_Chiralities_Consistent>  (212) 
1

>  <s_lp_Variant>  (212) 
61:0-3

>  <s_i_glide_gridfile>  (212) 
pfpi4k_grid

>  <i_i_glide_lignum>  (212) 
5

>  <i_i_glide_rotatable_bonds>  (212) 
1

>  <r_i_docking_score>  (212) 
-2.9946

>  <r_i_glide_ligand_efficiency>  (212) 
-0.14973

>  <r_i_glide_ligand_efficiency_sa>  (212) 
-0.40643

>  <r_i_glide_ligand_efficiency_ln>  (212) 
-0.749451

>  <r_i_glide_gscore>  (212) 
-2.9946

>  <r_i_glide_lipo>  (212) 
-0.607476

>  <r_i_glide_hbond>  (212) 
0

>  <r_i_glide_metal>  (212) 
-0

>  <r_i_glide_rewards>  (212) 
-1.51795

>  <r_i_glide_evdw>  (212) 
-24.1129

>  <r_i_glide_ecoul>  (212) 
0.827353

>  <r_i_glide_erotb>  (212) 
0.212359

>  <r_i_glide_esite>  (212) 
0

>  <r_i_glide_emodel>  (212) 
-29.7547

>  <r_i_glide_energy>  (212) 
-23.2855

>  <r_i_glide_einternal>  (212) 
0.446785

>  <r_i_glide_intrahb_reward>  (212) 
-0

>  <i_i_glide_confnum>  (212) 
4

>  <i_i_glide_posenum>  (212) 
15

>  <r_i_glide_eff_state_penalty>  (212) 
0

>  <ligand_id>  (212) 
61

>  <original_smiles>  (212) 
Oc1nc2c(N3CCC4(CC3)OCCO4)ncnc2s1

>  <smiles>  (212) 
[H]c1nc(N2C([H])([H])C([H])([H])C3(OC([H])([H])C([H])([H])O3)C([H])([H])C2([H])[H])c2[n-]c(=O)sc2n1

$$$$
61:2:2
     RDKit          3D

 33 36  0  0  1  0  0  0  0  0999 V2000
    9.0006   -5.8247    0.5307 O   0  0  0  0  0  0  0  0  0  0  0  0
    7.8886   -5.6087    1.0066 C   0  0  0  0  0  0  0  0  0  0  0  0
    6.9439   -4.7712    0.5960 N   0  0  0  0  0  0  0  0  0  0  0  0
    5.8498   -4.7575    1.3803 C   0  0  0  0  0  0  0  0  0  0  0  0
    4.6595   -3.9942    1.2873 C   0  0  0  0  0  0  0  0  0  0  0  0
    4.4701   -2.9958    0.3159 N   0  0  0  0  0  0  0  0  0  0  0  0
    5.5524   -2.1262   -0.1287 C   0  0  0  0  0  0  0  0  0  0  0  0
    5.7486   -2.2573   -1.6522 C   0  0  0  0  0  0  0  0  0  0  0  0
    4.4120   -1.9952   -2.3765 C   0  0  0  0  0  0  0  0  0  0  0  0
    3.2864   -2.9109   -1.8316 C   0  0  0  0  0  0  0  0  0  0  0  0
    3.1714   -2.7956   -0.3069 C   0  0  0  0  0  0  0  0  0  0  0  0
    4.5716   -2.2150   -3.7420 O   0  0  0  0  0  0  0  0  0  0  0  0
    3.5459   -1.4449   -4.3238 C   0  0  0  0  0  0  0  0  0  0  0  0
    3.4311   -0.2556   -3.3905 C   0  0  0  0  0  0  0  0  0  0  0  0
    4.0702   -0.6621   -2.1999 O   0  0  0  0  0  0  0  0  0  0  0  0
    3.6539   -4.1868    2.1713 N   0  0  0  0  0  0  0  0  0  0  0  0
    3.8421   -5.0816    3.1486 C   0  0  0  0  0  0  0  0  0  0  0  0
    4.9240   -5.8290    3.3608 N   0  0  0  0  0  0  0  0  0  0  0  0
    5.8927   -5.6421    2.4516 C   0  0  0  0  0  0  0  0  0  0  0  0
    7.3892   -6.5116    2.4862 S   0  0  0  0  0  0  0  0  0  0  0  0
    5.2927   -1.0974    0.1317 H   0  0  0  0  0  0  0  0  0  0  0  0
    6.4839   -2.3290    0.4000 H   0  0  0  0  0  0  0  0  0  0  0  0
    6.4990   -1.5511   -1.9967 H   0  0  0  0  0  0  0  0  0  0  0  0
    6.0983   -3.2544   -1.9139 H   0  0  0  0  0  0  0  0  0  0  0  0
    2.3152   -2.6798   -2.2706 H   0  0  0  0  0  0  0  0  0  0  0  0
    3.5418   -3.9250   -2.1204 H   0  0  0  0  0  0  0  0  0  0  0  0
    2.4335   -3.5115    0.0547 H   0  0  0  0  0  0  0  0  0  0  0  0
    2.8075   -1.8040   -0.0486 H   0  0  0  0  0  0  0  0  0  0  0  0
    3.7789   -1.1245   -5.3385 H   0  0  0  0  0  0  0  0  0  0  0  0
    2.6229   -2.0211   -4.3543 H   0  0  0  0  0  0  0  0  0  0  0  0
    3.9410    0.6202   -3.7934 H   0  0  0  0  0  0  0  0  0  0  0  0
    2.3957    0.0205   -3.2020 H   0  0  0  0  0  0  0  0  0  0  0  0
    3.0376   -5.2070    3.8551 H   0  0  0  0  0  0  0  0  0  0  0  0
  1  2  2  0
  2 20  1  0
  2  3  1  0
  3  4  1  0
  4 19  2  0
  4  5  1  0
  5  6  1  0
  5 16  2  0
  6 11  1  0
  6  7  1  0
  7  8  1  0
  7 21  1  0
  7 22  1  0
  8  9  1  0
  8 23  1  0
  8 24  1  0
  9 15  1  0
  9 10  1  0
  9 12  1  0
 10 11  1  0
 10 25  1  0
 10 26  1  0
 11 27  1  0
 11 28  1  0
 12 13  1  0
 13 14  1  0
 13 29  1  0
 13 30  1  0
 14 15  1  0
 14 31  1  0
 14 32  1  0
 16 17  1  0
 17 18  2  0
 17 33  1  0
 18 19  1  0
 19 20  1  0
M  CHG  1   3  -1
M  END
>  <i_m_ct_stereo_status>  (213) 
1

>  <s_m_source_file>  (213) 
/var/tmp/pbs.5076255.sched01/tmplj_yfvzq/807e0r74np.sdf

>  <i_m_source_file_index>  (213) 
5

>  <i_lp_mmshare_version>  (213) 
48012

>  <i_f3d_flags>  (213) 
0

>  <s_epik_input>  (213) 
W09IXWMobjEpc2MoYzEyKW5bY0hdbmMyTihbQ0gyXVtDSDJdMylbQ0gyXVtDSDJdQzM0T1tDSDJdW0NIMl1PNA==

>  <s_epik_cmdline>  (213) 
J2VwaWtfcHl0aG9uJywgJy1waHQnLCAnMi4wJywgJy1waCcsICc3LjAnLCAnLXRuJywgJzgnLCAnLW1hJywgJzIwMCcsICctaW1hZScsICc8aW5maWxlLm1hZT4nLCAnLW9tYWUnLCAnPG91dGZpbGUubWFlPic=

>  <r_epik_Ionization_Penalty>  (213) 
1.8809

>  <r_epik_Ionization_Penalty_Charging>  (213) 
8.17411e-08

>  <r_epik_Ionization_Penalty_Neutral>  (213) 
1.8809

>  <r_epik_State_Penalty>  (213) 
2.03044

>  <r_epik_Charging_Adjusted_Penalty>  (213) 
2.03044

>  <i_epik_Tot_Q>  (213) 
-1

>  <i_epik_Tot_abs_Q>  (213) 
1

>  <s_lp_Force_Field>  (213) 
OPLS3e

>  <r_lp_Energy>  (213) 
32.2622

>  <b_lp_Chiralities_Consistent>  (213) 
1

>  <s_lp_Variant>  (213) 
61:0-3

>  <s_i_glide_gridfile>  (213) 
pfpi4k_grid

>  <i_i_glide_lignum>  (213) 
5

>  <i_i_glide_rotatable_bonds>  (213) 
1

>  <r_i_docking_score>  (213) 
-2.9609

>  <r_i_glide_ligand_efficiency>  (213) 
-0.148045

>  <r_i_glide_ligand_efficiency_sa>  (213) 
-0.401856

>  <r_i_glide_ligand_efficiency_ln>  (213) 
-0.741015

>  <r_i_glide_gscore>  (213) 
-2.9609

>  <r_i_glide_lipo>  (213) 
-0.332551

>  <r_i_glide_hbond>  (213) 
-0.0162336

>  <r_i_glide_metal>  (213) 
-0

>  <r_i_glide_rewards>  (213) 
-1.42827

>  <r_i_glide_evdw>  (213) 
-25.3585

>  <r_i_glide_ecoul>  (213) 
-0.85516

>  <r_i_glide_erotb>  (213) 
0.212359

>  <r_i_glide_esite>  (213) 
0

>  <r_i_glide_emodel>  (213) 
-32.5306

>  <r_i_glide_energy>  (213) 
-26.2137

>  <r_i_glide_einternal>  (213) 
0.547549

>  <r_i_glide_intrahb_reward>  (213) 
-0

>  <i_i_glide_confnum>  (213) 
4

>  <i_i_glide_posenum>  (213) 
6

>  <r_i_glide_eff_state_penalty>  (213) 
0

>  <ligand_id>  (213) 
61

>  <original_smiles>  (213) 
Oc1nc2c(N3CCC4(CC3)OCCO4)ncnc2s1

>  <smiles>  (213) 
[H]c1nc(N2C([H])([H])C([H])([H])C3(OC([H])([H])C([H])([H])O3)C([H])([H])C2([H])[H])c2[n-]c(=O)sc2n1

$$$$
61:3:0
     RDKit          3D

 34 37  0  0  1  0  0  0  0  0999 V2000
   -0.9885   -6.7881    2.9932 O   0  0  0  0  0  0  0  0  0  0  0  0
    0.1167   -7.1278    2.5955 C   0  0  0  0  0  0  0  0  0  0  0  0
    1.1371   -6.3835    2.1689 N   0  0  0  0  0  0  0  0  0  0  0  0
    2.2209   -7.0993    1.7839 C   0  0  0  0  0  0  0  0  0  0  0  0
    3.4937   -6.6828    1.3123 C   0  0  0  0  0  0  0  0  0  0  0  0
    3.8398   -5.3253    1.1346 N   0  0  0  0  0  0  0  0  0  0  0  0
    5.1917   -4.8334    1.3666 C   0  0  0  0  0  0  0  0  0  0  0  0
    5.7126   -4.0722    0.1276 C   0  0  0  0  0  0  0  0  0  0  0  0
    4.6984   -2.9845   -0.3133 C   0  0  0  0  0  0  0  0  0  0  0  0
    3.2872   -3.5847   -0.5130 C   0  0  0  0  0  0  0  0  0  0  0  0
    2.8515   -4.3339    0.7399 C   0  0  0  0  0  0  0  0  0  0  0  0
    5.1282   -2.4101   -1.5041 O   0  0  0  0  0  0  0  0  0  0  0  0
    4.4842   -1.1517   -1.5348 C   0  0  0  0  0  0  0  0  0  0  0  0
    4.4357   -0.7765   -0.0489 C   0  0  0  0  0  0  0  0  0  0  0  0
    4.6413   -1.9908    0.6485 O   0  0  0  0  0  0  0  0  0  0  0  0
    4.4352   -7.6054    1.0026 N   0  0  0  0  0  0  0  0  0  0  0  0
    4.1641   -8.9143    1.1293 C   0  0  0  0  0  0  0  0  0  0  0  0
    2.9871   -9.3777    1.5631 N   0  0  0  0  0  0  0  0  0  0  0  0
    2.0466   -8.4725    1.8947 C   0  0  0  0  0  0  0  0  0  0  0  0
    0.4951   -8.8837    2.5280 S   0  0  0  0  0  0  0  0  0  0  0  0
    5.1693   -4.1563    2.2214 H   0  0  0  0  0  0  0  0  0  0  0  0
    5.8786   -5.6364    1.6419 H   0  0  0  0  0  0  0  0  0  0  0  0
    6.6861   -3.6125    0.3177 H   0  0  0  0  0  0  0  0  0  0  0  0
    5.8327   -4.7714   -0.6962 H   0  0  0  0  0  0  0  0  0  0  0  0
    2.5358   -2.8262   -0.7280 H   0  0  0  0  0  0  0  0  0  0  0  0
    3.3227   -4.2525   -1.3744 H   0  0  0  0  0  0  0  0  0  0  0  0
    1.8945   -4.7802    0.4881 H   0  0  0  0  0  0  0  0  0  0  0  0
    2.6879   -3.6350    1.5622 H   0  0  0  0  0  0  0  0  0  0  0  0
    5.0174   -0.4298   -2.1487 H   0  0  0  0  0  0  0  0  0  0  0  0
    3.4829   -1.2597   -1.9557 H   0  0  0  0  0  0  0  0  0  0  0  0
    5.2344   -0.0836    0.2104 H   0  0  0  0  0  0  0  0  0  0  0  0
    3.4826   -0.3296    0.2283 H   0  0  0  0  0  0  0  0  0  0  0  0
    4.9102   -9.6464    0.8692 H   0  0  0  0  0  0  0  0  0  0  0  0
    2.7938  -10.3787    1.6370 H   0  0  0  0  0  0  0  0  0  0  0  0
  1  2  2  0
  2 20  1  0
  2  3  1  0
  3  4  1  0
  4 19  2  0
  4  5  1  0
  5  6  1  0
  5 16  2  0
  6 11  1  0
  6  7  1  0
  7  8  1  0
  7 21  1  0
  7 22  1  0
  8  9  1  0
  8 23  1  0
  8 24  1  0
  9 15  1  0
  9 10  1  0
  9 12  1  0
 10 11  1  0
 10 25  1  0
 10 26  1  0
 11 27  1  0
 11 28  1  0
 12 13  1  0
 13 14  1  0
 13 29  1  0
 13 30  1  0
 14 15  1  0
 14 31  1  0
 14 32  1  0
 16 17  1  0
 17 18  2  0
 17 33  1  0
 18 19  1  0
 18 34  1  0
 19 20  1  0
M  CHG  2   3  -1  18   1
M  END
>  <i_m_ct_stereo_status>  (214) 
1

>  <s_m_source_file>  (214) 
/var/tmp/pbs.5076255.sched01/tmplj_yfvzq/807e0r74np.sdf

>  <i_m_source_file_index>  (214) 
6

>  <i_lp_mmshare_version>  (214) 
48012

>  <i_f3d_flags>  (214) 
0

>  <s_epik_input>  (214) 
W09IXWMobjEpc2MoYzEyKW5bY0hdbmMyTihbQ0gyXVtDSDJdMylbQ0gyXVtDSDJdQzM0T1tDSDJdW0NIMl1PNA==

>  <s_epik_cmdline>  (214) 
J2VwaWtfcHl0aG9uJywgJy1waHQnLCAnMi4wJywgJy1waCcsICc3LjAnLCAnLXRuJywgJzgnLCAnLW1hJywgJzIwMCcsICctaW1hZScsICc8aW5maWxlLm1hZT4nLCAnLW9tYWUnLCAnPG91dGZpbGUubWFlPic=

>  <r_epik_Ionization_Penalty>  (214) 
2.06961

>  <r_epik_Ionization_Penalty_Charging>  (214) 
0.569438

>  <r_epik_Ionization_Penalty_Neutral>  (214) 
1.50017

>  <r_epik_State_Penalty>  (214) 
2.61142

>  <r_epik_Charging_Adjusted_Penalty>  (214) 
3.18086

>  <i_epik_Tot_Q>  (214) 
0

>  <i_epik_Tot_abs_Q>  (214) 
2

>  <s_lp_Force_Field>  (214) 
OPLS3e

>  <r_lp_Energy>  (214) 
31.1675

>  <b_lp_Chiralities_Consistent>  (214) 
1

>  <s_lp_Variant>  (214) 
61:0-4

>  <s_i_glide_gridfile>  (214) 
pfpi4k_grid

>  <i_i_glide_lignum>  (214) 
6

>  <i_i_glide_rotatable_bonds>  (214) 
1

>  <r_i_docking_score>  (214) 
-4.02016

>  <r_i_glide_ligand_efficiency>  (214) 
-0.201008

>  <r_i_glide_ligand_efficiency_sa>  (214) 
-0.54562

>  <r_i_glide_ligand_efficiency_ln>  (214) 
-1.00611

>  <r_i_glide_gscore>  (214) 
-4.02016

>  <r_i_glide_lipo>  (214) 
-0.191183

>  <r_i_glide_hbond>  (214) 
-0.16

>  <r_i_glide_metal>  (214) 
-0

>  <r_i_glide_rewards>  (214) 
-1.74386

>  <r_i_glide_evdw>  (214) 
-22.4016

>  <r_i_glide_ecoul>  (214) 
-6.13119

>  <r_i_glide_erotb>  (214) 
0.211091

>  <r_i_glide_esite>  (214) 
-0.0964506

>  <r_i_glide_emodel>  (214) 
-39.7289

>  <r_i_glide_energy>  (214) 
-28.5328

>  <r_i_glide_einternal>  (214) 
0.104607

>  <r_i_glide_intrahb_reward>  (214) 
-0

>  <i_i_glide_confnum>  (214) 
3

>  <i_i_glide_posenum>  (214) 
12

>  <r_i_glide_eff_state_penalty>  (214) 
0

>  <ligand_id>  (214) 
61

>  <original_smiles>  (214) 
Oc1nc2c(N3CCC4(CC3)OCCO4)ncnc2s1

>  <smiles>  (214) 
[H]c1nc(N2C([H])([H])C([H])([H])C3(OC([H])([H])C([H])([H])O3)C([H])([H])C2([H])[H])c2[n-]c(=O)sc2[n+]1[H]

$$$$
61:3:1
     RDKit          3D

 34 37  0  0  1  0  0  0  0  0999 V2000
   -1.7822   -7.1498    3.1463 O   0  0  0  0  0  0  0  0  0  0  0  0
   -0.6600   -7.4795    2.7868 C   0  0  0  0  0  0  0  0  0  0  0  0
    0.3355   -6.7307    2.3042 N   0  0  0  0  0  0  0  0  0  0  0  0
    1.4732   -7.4344    2.0839 C   0  0  0  0  0  0  0  0  0  0  0  0
    2.7464   -7.0157    1.6367 C   0  0  0  0  0  0  0  0  0  0  0  0
    3.0448   -5.6653    1.3877 N   0  0  0  0  0  0  0  0  0  0  0  0
    2.5682   -4.5936    2.2510 C   0  0  0  0  0  0  0  0  0  0  0  0
    3.7356   -3.6872    2.6809 C   0  0  0  0  0  0  0  0  0  0  0  0
    4.5318   -3.2104    1.4416 C   0  0  0  0  0  0  0  0  0  0  0  0
    4.9785   -4.4128    0.5612 C   0  0  0  0  0  0  0  0  0  0  0  0
    3.7760   -5.2841    0.1965 C   0  0  0  0  0  0  0  0  0  0  0  0
    5.6494   -2.5056    1.8666 O   0  0  0  0  0  0  0  0  0  0  0  0
    5.9723   -1.6669    0.7768 C   0  0  0  0  0  0  0  0  0  0  0  0
    4.5970   -1.3507    0.1804 C   0  0  0  0  0  0  0  0  0  0  0  0
    3.7401   -2.3549    0.6938 O   0  0  0  0  0  0  0  0  0  0  0  0
    3.7348   -7.9168    1.4260 N   0  0  0  0  0  0  0  0  0  0  0  0
    3.5146   -9.2202    1.6635 C   0  0  0  0  0  0  0  0  0  0  0  0
    2.3472   -9.6853    2.1226 N   0  0  0  0  0  0  0  0  0  0  0  0
    1.3580   -8.7971    2.3267 C   0  0  0  0  0  0  0  0  0  0  0  0
   -0.2100   -9.2194    2.8946 S   0  0  0  0  0  0  0  0  0  0  0  0
    1.8168   -4.0123    1.7146 H   0  0  0  0  0  0  0  0  0  0  0  0
    2.0894   -4.9961    3.1434 H   0  0  0  0  0  0  0  0  0  0  0  0
    3.3762   -2.8309    3.2577 H   0  0  0  0  0  0  0  0  0  0  0  0
    4.4060   -4.2504    3.3268 H   0  0  0  0  0  0  0  0  0  0  0  0
    5.4525   -4.0764   -0.3618 H   0  0  0  0  0  0  0  0  0  0  0  0
    5.7128   -4.9883    1.1201 H   0  0  0  0  0  0  0  0  0  0  0  0
    4.1044   -6.1495   -0.3820 H   0  0  0  0  0  0  0  0  0  0  0  0
    3.1137   -4.7143   -0.4529 H   0  0  0  0  0  0  0  0  0  0  0  0
    6.5291   -0.7834    1.0813 H   0  0  0  0  0  0  0  0  0  0  0  0
    6.5957   -2.2215    0.0754 H   0  0  0  0  0  0  0  0  0  0  0  0
    4.2431   -0.3677    0.4919 H   0  0  0  0  0  0  0  0  0  0  0  0
    4.6052   -1.3843   -0.9072 H   0  0  0  0  0  0  0  0  0  0  0  0
    4.3024   -9.9375    1.5053 H   0  0  0  0  0  0  0  0  0  0  0  0
    2.1823  -10.6794    2.2846 H   0  0  0  0  0  0  0  0  0  0  0  0
  1  2  2  0
  2 20  1  0
  2  3  1  0
  3  4  1  0
  4 19  2  0
  4  5  1  0
  5  6  1  0
  5 16  2  0
  6 11  1  0
  6  7  1  0
  7  8  1  0
  7 21  1  0
  7 22  1  0
  8  9  1  0
  8 23  1  0
  8 24  1  0
  9 15  1  0
  9 10  1  0
  9 12  1  0
 10 11  1  0
 10 25  1  0
 10 26  1  0
 11 27  1  0
 11 28  1  0
 12 13  1  0
 13 14  1  0
 13 29  1  0
 13 30  1  0
 14 15  1  0
 14 31  1  0
 14 32  1  0
 16 17  1  0
 17 18  2  0
 17 33  1  0
 18 19  1  0
 18 34  1  0
 19 20  1  0
M  CHG  2   3  -1  18   1
M  END
>  <i_m_ct_stereo_status>  (215) 
1

>  <s_m_source_file>  (215) 
/var/tmp/pbs.5076255.sched01/tmplj_yfvzq/807e0r74np.sdf

>  <i_m_source_file_index>  (215) 
6

>  <i_lp_mmshare_version>  (215) 
48012

>  <i_f3d_flags>  (215) 
0

>  <s_epik_input>  (215) 
W09IXWMobjEpc2MoYzEyKW5bY0hdbmMyTihbQ0gyXVtDSDJdMylbQ0gyXVtDSDJdQzM0T1tDSDJdW0NIMl1PNA==

>  <s_epik_cmdline>  (215) 
J2VwaWtfcHl0aG9uJywgJy1waHQnLCAnMi4wJywgJy1waCcsICc3LjAnLCAnLXRuJywgJzgnLCAnLW1hJywgJzIwMCcsICctaW1hZScsICc8aW5maWxlLm1hZT4nLCAnLW9tYWUnLCAnPG91dGZpbGUubWFlPic=

>  <r_epik_Ionization_Penalty>  (215) 
2.06961

>  <r_epik_Ionization_Penalty_Charging>  (215) 
0.569438

>  <r_epik_Ionization_Penalty_Neutral>  (215) 
1.50017

>  <r_epik_State_Penalty>  (215) 
2.61142

>  <r_epik_Charging_Adjusted_Penalty>  (215) 
3.18086

>  <i_epik_Tot_Q>  (215) 
0

>  <i_epik_Tot_abs_Q>  (215) 
2

>  <s_lp_Force_Field>  (215) 
OPLS3e

>  <r_lp_Energy>  (215) 
31.1675

>  <b_lp_Chiralities_Consistent>  (215) 
1

>  <s_lp_Variant>  (215) 
61:0-4

>  <s_i_glide_gridfile>  (215) 
pfpi4k_grid

>  <i_i_glide_lignum>  (215) 
6

>  <i_i_glide_rotatable_bonds>  (215) 
1

>  <r_i_docking_score>  (215) 
-3.91903

>  <r_i_glide_ligand_efficiency>  (215) 
-0.195951

>  <r_i_glide_ligand_efficiency_sa>  (215) 
-0.531894

>  <r_i_glide_ligand_efficiency_ln>  (215) 
-0.980804

>  <r_i_glide_gscore>  (215) 
-3.91903

>  <r_i_glide_lipo>  (215) 
-0.178132

>  <r_i_glide_hbond>  (215) 
-0.139405

>  <r_i_glide_metal>  (215) 
-0

>  <r_i_glide_rewards>  (215) 
-1.74113

>  <r_i_glide_evdw>  (215) 
-23.1246

>  <r_i_glide_ecoul>  (215) 
-5.76941

>  <r_i_glide_erotb>  (215) 
0.211091

>  <r_i_glide_esite>  (215) 
-0.049819

>  <r_i_glide_emodel>  (215) 
-39.7373

>  <r_i_glide_energy>  (215) 
-28.894

>  <r_i_glide_einternal>  (215) 
0.390239

>  <r_i_glide_intrahb_reward>  (215) 
-0

>  <i_i_glide_confnum>  (215) 
2

>  <i_i_glide_posenum>  (215) 
13

>  <r_i_glide_eff_state_penalty>  (215) 
0

>  <ligand_id>  (215) 
61

>  <original_smiles>  (215) 
Oc1nc2c(N3CCC4(CC3)OCCO4)ncnc2s1

>  <smiles>  (215) 
[H]c1nc(N2C([H])([H])C([H])([H])C3(OC([H])([H])C([H])([H])O3)C([H])([H])C2([H])[H])c2[n-]c(=O)sc2[n+]1[H]

$$$$
61:3:2
     RDKit          3D

 34 37  0  0  1  0  0  0  0  0999 V2000
   -1.4048   -7.1266    2.8717 O   0  0  0  0  0  0  0  0  0  0  0  0
   -0.2886   -7.6096    2.7209 C   0  0  0  0  0  0  0  0  0  0  0  0
    0.8589   -7.0016    2.4179 N   0  0  0  0  0  0  0  0  0  0  0  0
    1.9246   -7.8405    2.3731 C   0  0  0  0  0  0  0  0  0  0  0  0
    3.2970   -7.5702    2.1466 C   0  0  0  0  0  0  0  0  0  0  0  0
    3.8190   -6.2758    1.9762 N   0  0  0  0  0  0  0  0  0  0  0  0
    4.8872   -6.0089    1.0200 C   0  0  0  0  0  0  0  0  0  0  0  0
    4.4487   -4.9297    0.0053 C   0  0  0  0  0  0  0  0  0  0  0  0
    3.9019   -3.6806    0.7374 C   0  0  0  0  0  0  0  0  0  0  0  0
    2.7844   -4.0687    1.7426 C   0  0  0  0  0  0  0  0  0  0  0  0
    3.2989   -5.1337    2.7148 C   0  0  0  0  0  0  0  0  0  0  0  0
    3.3952   -2.7906   -0.1962 O   0  0  0  0  0  0  0  0  0  0  0  0
    3.4355   -1.5327    0.4482 C   0  0  0  0  0  0  0  0  0  0  0  0
    4.6857   -1.6603    1.3245 C   0  0  0  0  0  0  0  0  0  0  0  0
    4.9361   -3.0526    1.4119 O   0  0  0  0  0  0  0  0  0  0  0  0
    4.1878   -8.5890    2.0979 N   0  0  0  0  0  0  0  0  0  0  0  0
    3.7701   -9.8571    2.2602 C   0  0  0  0  0  0  0  0  0  0  0  0
    2.4926  -10.1779    2.5049 N   0  0  0  0  0  0  0  0  0  0  0  0
    1.5994   -9.1762    2.5765 C   0  0  0  0  0  0  0  0  0  0  0  0
   -0.0754   -9.3942    2.9170 S   0  0  0  0  0  0  0  0  0  0  0  0
    5.7730   -5.6692    1.5601 H   0  0  0  0  0  0  0  0  0  0  0  0
    5.1743   -6.9160    0.4822 H   0  0  0  0  0  0  0  0  0  0  0  0
    5.2653   -4.6484   -0.6665 H   0  0  0  0  0  0  0  0  0  0  0  0
    3.6510   -5.3232   -0.6199 H   0  0  0  0  0  0  0  0  0  0  0  0
    2.4488   -3.2109    2.3265 H   0  0  0  0  0  0  0  0  0  0  0  0
    1.9267   -4.4321    1.1766 H   0  0  0  0  0  0  0  0  0  0  0  0
    2.5119   -5.4036    3.4191 H   0  0  0  0  0  0  0  0  0  0  0  0
    4.0986   -4.7097    3.3219 H   0  0  0  0  0  0  0  0  0  0  0  0
    3.4770   -0.6989   -0.2501 H   0  0  0  0  0  0  0  0  0  0  0  0
    2.5344   -1.4003    1.0467 H   0  0  0  0  0  0  0  0  0  0  0  0
    5.5432   -1.1664    0.8660 H   0  0  0  0  0  0  0  0  0  0  0  0
    4.5336   -1.2407    2.3177 H   0  0  0  0  0  0  0  0  0  0  0  0
    4.4881  -10.6581    2.2144 H   0  0  0  0  0  0  0  0  0  0  0  0
    2.1916  -11.1483    2.6102 H   0  0  0  0  0  0  0  0  0  0  0  0
  1  2  2  0
  2 20  1  0
  2  3  1  0
  3  4  1  0
  4 19  2  0
  4  5  1  0
  5  6  1  0
  5 16  2  0
  6 11  1  0
  6  7  1  0
  7  8  1  0
  7 21  1  0
  7 22  1  0
  8  9  1  0
  8 23  1  0
  8 24  1  0
  9 15  1  0
  9 10  1  0
  9 12  1  0
 10 11  1  0
 10 25  1  0
 10 26  1  0
 11 27  1  0
 11 28  1  0
 12 13  1  0
 13 14  1  0
 13 29  1  0
 13 30  1  0
 14 15  1  0
 14 31  1  0
 14 32  1  0
 16 17  1  0
 17 18  2  0
 17 33  1  0
 18 19  1  0
 18 34  1  0
 19 20  1  0
M  CHG  2   3  -1  18   1
M  END
>  <i_m_ct_stereo_status>  (216) 
1

>  <s_m_source_file>  (216) 
/var/tmp/pbs.5076255.sched01/tmplj_yfvzq/807e0r74np.sdf

>  <i_m_source_file_index>  (216) 
6

>  <i_lp_mmshare_version>  (216) 
48012

>  <i_f3d_flags>  (216) 
0

>  <s_epik_input>  (216) 
W09IXWMobjEpc2MoYzEyKW5bY0hdbmMyTihbQ0gyXVtDSDJdMylbQ0gyXVtDSDJdQzM0T1tDSDJdW0NIMl1PNA==

>  <s_epik_cmdline>  (216) 
J2VwaWtfcHl0aG9uJywgJy1waHQnLCAnMi4wJywgJy1waCcsICc3LjAnLCAnLXRuJywgJzgnLCAnLW1hJywgJzIwMCcsICctaW1hZScsICc8aW5maWxlLm1hZT4nLCAnLW9tYWUnLCAnPG91dGZpbGUubWFlPic=

>  <r_epik_Ionization_Penalty>  (216) 
2.06961

>  <r_epik_Ionization_Penalty_Charging>  (216) 
0.569438

>  <r_epik_Ionization_Penalty_Neutral>  (216) 
1.50017

>  <r_epik_State_Penalty>  (216) 
2.61142

>  <r_epik_Charging_Adjusted_Penalty>  (216) 
3.18086

>  <i_epik_Tot_Q>  (216) 
0

>  <i_epik_Tot_abs_Q>  (216) 
2

>  <s_lp_Force_Field>  (216) 
OPLS3e

>  <r_lp_Energy>  (216) 
31.1675

>  <b_lp_Chiralities_Consistent>  (216) 
1

>  <s_lp_Variant>  (216) 
61:0-4

>  <s_i_glide_gridfile>  (216) 
pfpi4k_grid

>  <i_i_glide_lignum>  (216) 
6

>  <i_i_glide_rotatable_bonds>  (216) 
1

>  <r_i_docking_score>  (216) 
-3.8541

>  <r_i_glide_ligand_efficiency>  (216) 
-0.192705

>  <r_i_glide_ligand_efficiency_sa>  (216) 
-0.523082

>  <r_i_glide_ligand_efficiency_ln>  (216) 
-0.964555

>  <r_i_glide_gscore>  (216) 
-3.8541

>  <r_i_glide_lipo>  (216) 
-0.166414

>  <r_i_glide_hbond>  (216) 
-0.16

>  <r_i_glide_metal>  (216) 
-0

>  <r_i_glide_rewards>  (216) 
-1.74824

>  <r_i_glide_evdw>  (216) 
-21.4087

>  <r_i_glide_ecoul>  (216) 
-5.67866

>  <r_i_glide_erotb>  (216) 
0.211091

>  <r_i_glide_esite>  (216) 
-0.068309

>  <r_i_glide_emodel>  (216) 
-37.7743

>  <r_i_glide_energy>  (216) 
-27.0874

>  <r_i_glide_einternal>  (216) 
0.469426

>  <r_i_glide_intrahb_reward>  (216) 
-0

>  <i_i_glide_confnum>  (216) 
3

>  <i_i_glide_posenum>  (216) 
15

>  <r_i_glide_eff_state_penalty>  (216) 
0

>  <ligand_id>  (216) 
61

>  <original_smiles>  (216) 
Oc1nc2c(N3CCC4(CC3)OCCO4)ncnc2s1

>  <smiles>  (216) 
[H]c1nc(N2C([H])([H])C([H])([H])C3(OC([H])([H])C([H])([H])O3)C([H])([H])C2([H])[H])c2[n-]c(=O)sc2[n+]1[H]

$$$$
62:0:0
     RDKit          3D

 87 96  0  0  1  0  0  0  0  0999 V2000
    2.1925   -2.5544    3.6008 C   0  0  0  0  0  0  0  0  0  0  0  0
    2.6843   -3.7073    4.2698 O   0  0  0  0  0  0  0  0  0  0  0  0
    2.5645   -4.9174    3.6263 C   0  0  0  0  0  0  0  0  0  0  0  0
    2.0171   -5.1041    2.3459 C   0  0  0  0  0  0  0  0  0  0  0  0
    2.0262   -6.3657    1.7237 C   0  0  0  0  0  0  0  0  0  0  0  0
    2.5310   -7.5022    2.3846 C   0  0  0  0  0  0  0  0  0  0  0  0
    2.9763   -7.3017    3.7395 C   0  0  0  0  0  0  0  0  0  0  0  0
    3.0952   -6.0425    4.3128 C   0  0  0  0  0  0  0  0  0  0  0  0
    3.8089   -5.9817    5.4508 O   0  0  0  0  0  0  0  0  0  0  0  0
    4.4431   -7.2450    5.6419 C   0  0  2  0  0  0  0  0  0  0  0  0
    5.9963   -7.1236    5.4891 C   0  0  2  0  0  0  0  0  0  0  0  0
    6.5073   -6.4559    6.6630 O   0  0  0  0  0  0  0  0  0  0  0  0
    7.8571   -5.9694    6.6953 C   0  0  0  0  0  0  0  0  0  0  0  0
    6.5285   -6.4737    4.1765 C   0  0  0  0  0  0  0  0  0  0  0  0
    7.3089   -7.5916    3.4622 C   0  0  0  0  0  0  0  0  0  0  0  0
    6.6959   -8.9157    3.9875 C   0  0  2  0  0  0  0  0  0  0  0  0
    7.5457  -10.0382    3.7632 O   0  0  0  0  0  0  0  0  0  0  0  0
    8.8875  -10.0207    4.2458 C   0  0  0  0  0  0  0  0  0  0  0  0
    5.3243   -9.1082    3.2383 C   0  0  2  0  0  0  0  0  0  0  0  0
    4.1882   -9.5556    4.1437 C   0  0  1  0  0  0  0  0  0  0  0  0
    4.3744  -10.8024    5.0665 C   0  0  1  0  0  0  0  0  0  0  0  0
    5.1110  -12.0042    4.4187 C   0  0  0  0  0  0  0  0  0  0  0  0
    5.9341  -12.9094    5.3867 C   0  0  0  0  0  0  0  0  0  0  0  0
    7.3966  -13.0619    4.9644 C   0  0  0  0  0  0  0  0  0  0  0  0
    8.4135  -12.6410    5.8419 C   0  0  0  0  0  0  0  0  0  0  0  0
    9.7590  -12.6731    5.4548 C   0  0  0  0  0  0  0  0  0  0  0  0
   10.0997  -13.1618    4.1611 C   0  0  0  0  0  0  0  0  0  0  0  0
    9.0901  -13.5869    3.2882 C   0  0  0  0  0  0  0  0  0  0  0  0
    7.7430  -13.5265    3.6848 C   0  0  0  0  0  0  0  0  0  0  0  0
    4.7347  -10.3736    6.4734 C   0  0  1  0  0  0  0  0  0  0  0  0
    5.9913   -9.4987    6.6435 C   0  0  0  0  0  0  0  0  0  0  0  0
    6.5517   -8.5532    5.5028 C   0  0  2  0  0  0  0  0  0  0  0  0
    3.2169   -9.9741    6.5918 C   0  0  2  0  0  0  0  0  0  0  0  0
    3.0544  -11.2405    5.7480 C   0  0  1  0  0  0  0  0  0  0  0  0
    1.9186  -11.2640    4.8795 O   0  0  0  0  0  0  0  0  0  0  0  0
    0.9058  -10.4176    5.3224 C   0  0  0  0  0  0  0  0  0  0  0  0
    1.2938   -9.0845    5.2208 O   0  0  0  0  0  0  0  0  0  0  0  0
    2.5570   -8.7776    5.8442 C   0  0  2  0  0  0  0  0  0  0  0  0
    3.5618   -8.2629    4.7849 C   0  0  2  0  0  0  0  0  0  0  0  0
    5.2038   -9.7646    1.8757 N   0  0  2  0  0  0  0  0  0  0  0  0
    6.4702   -9.9542    1.0974 C   0  0  0  0  0  0  0  0  0  0  0  0
    4.1227   -9.1339    1.0127 C   0  0  0  0  0  0  0  0  0  0  0  0
    2.7091   -8.8401    1.6469 C   0  0  0  0  0  0  0  0  0  0  0  0
    2.3512   -1.6894    4.2428 H   0  0  0  0  0  0  0  0  0  0  0  0
    1.1217   -2.6284    3.4030 H   0  0  0  0  0  0  0  0  0  0  0  0
    2.7234   -2.3727    2.6646 H   0  0  0  0  0  0  0  0  0  0  0  0
    1.6473   -4.2587    1.7919 H   0  0  0  0  0  0  0  0  0  0  0  0
    1.6700   -6.4447    0.6947 H   0  0  0  0  0  0  0  0  0  0  0  0
    4.3181   -7.4519    6.7036 H   0  0  0  0  0  0  0  0  0  0  0  0
    8.1726   -5.7870    7.7271 H   0  0  0  0  0  0  0  0  0  0  0  0
    7.9355   -5.0348    6.1366 H   0  0  0  0  0  0  0  0  0  0  0  0
    8.5727   -6.6678    6.2685 H   0  0  0  0  0  0  0  0  0  0  0  0
    5.6963   -6.1370    3.5559 H   0  0  0  0  0  0  0  0  0  0  0  0
    7.1803   -5.6081    4.3342 H   0  0  0  0  0  0  0  0  0  0  0  0
    7.3152   -7.4728    2.3771 H   0  0  0  0  0  0  0  0  0  0  0  0
    8.3377   -7.4804    3.7828 H   0  0  0  0  0  0  0  0  0  0  0  0
    9.3512  -10.9279    3.8767 H   0  0  0  0  0  0  0  0  0  0  0  0
    8.8935  -10.0649    5.3368 H   0  0  0  0  0  0  0  0  0  0  0  0
    9.4725   -9.1466    3.9436 H   0  0  0  0  0  0  0  0  0  0  0  0
    5.0992   -8.1039    2.9117 H   0  0  0  0  0  0  0  0  0  0  0  0
    3.4237   -9.9903    3.5375 H   0  0  0  0  0  0  0  0  0  0  0  0
    4.3485  -12.6217    3.9372 H   0  0  0  0  0  0  0  0  0  0  0  0
    5.7052  -11.6867    3.5693 H   0  0  0  0  0  0  0  0  0  0  0  0
    5.8970  -12.5481    6.4121 H   0  0  0  0  0  0  0  0  0  0  0  0
    5.5074  -13.9146    5.3722 H   0  0  0  0  0  0  0  0  0  0  0  0
    8.1606  -12.2407    6.8053 H   0  0  0  0  0  0  0  0  0  0  0  0
   10.5176  -12.3611    6.1359 H   0  0  0  0  0  0  0  0  0  0  0  0
   11.1289  -13.1847    3.8776 H   0  0  0  0  0  0  0  0  0  0  0  0
    9.3483  -13.8858    2.2807 H   0  0  0  0  0  0  0  0  0  0  0  0
    6.9673  -13.7620    2.9659 H   0  0  0  0  0  0  0  0  0  0  0  0
    4.8368  -11.2095    7.1771 H   0  0  0  0  0  0  0  0  0  0  0  0
    5.9382   -8.9257    7.5743 H   0  0  0  0  0  0  0  0  0  0  0  0
    6.7930  -10.2053    6.8396 H   0  0  0  0  0  0  0  0  0  0  0  0
    7.5786   -8.4598    5.8373 H   0  0  0  0  0  0  0  0  0  0  0  0
    2.8215  -10.1228    7.5928 H   0  0  0  0  0  0  0  0  0  0  0  0
    3.1432  -12.1649    6.3244 H   0  0  0  0  0  0  0  0  0  0  0  0
    0.0267  -10.5612    4.7006 H   0  0  0  0  0  0  0  0  0  0  0  0
    0.6118  -10.6545    6.3505 H   0  0  0  0  0  0  0  0  0  0  0  0
    2.2944   -7.9952    6.5639 H   0  0  0  0  0  0  0  0  0  0  0  0
    6.9862   -9.0092    0.9149 H   0  0  0  0  0  0  0  0  0  0  0  0
    6.2310  -10.4073    0.1373 H   0  0  0  0  0  0  0  0  0  0  0  0
    7.1293  -10.6703    1.5878 H   0  0  0  0  0  0  0  0  0  0  0  0
    4.5291   -8.2266    0.5592 H   0  0  0  0  0  0  0  0  0  0  0  0
    3.9874   -9.8374    0.1896 H   0  0  0  0  0  0  0  0  0  0  0  0
    2.2003   -9.7096    2.0657 H   0  0  0  0  0  0  0  0  0  0  0  0
    2.0852   -8.7131    0.7769 H   0  0  0  0  0  0  0  0  0  0  0  0
    4.8706  -10.7205    2.0468 H   0  0  0  0  0  0  0  0  0  0  0  0
  1  2  1  0
  1 44  1  0
  1 45  1  0
  1 46  1  0
  2  3  1  0
  3  8  2  0
  3  4  1  0
  4  5  2  0
  4 47  1  0
  5  6  1  0
  5 48  1  0
  6 43  1  0
  6  7  2  0
 39  7  1  6
  7  8  1  0
  8  9  1  0
  9 10  1  0
 10 39  1  0
 10 11  1  0
 10 49  1  1
 11 32  1  0
 11 12  1  1
 11 14  1  0
 12 13  1  0
 13 50  1  0
 13 51  1  0
 13 52  1  0
 14 15  1  0
 14 53  1  0
 14 54  1  0
 15 16  1  0
 15 55  1  0
 15 56  1  0
 16 32  1  0
 16 17  1  1
 16 19  1  0
 17 18  1  0
 18 57  1  0
 18 58  1  0
 18 59  1  0
 19 20  1  0
 19 40  1  0
 19 60  1  6
 20 39  1  0
 20 21  1  0
 20 61  1  6
 21 34  1  0
 21 22  1  6
 21 30  1  0
 22 23  1  0
 22 62  1  0
 22 63  1  0
 23 24  1  0
 23 64  1  0
 23 65  1  0
 24 29  1  0
 24 25  2  0
 25 26  1  0
 25 66  1  0
 26 27  2  0
 26 67  1  0
 27 28  1  0
 27 68  1  0
 28 29  2  0
 28 69  1  0
 29 70  1  0
 30 31  1  0
 30 33  1  0
 30 71  1  1
 31 32  1  0
 31 72  1  0
 31 73  1  0
 32 74  1  1
 33 38  1  0
 33 34  1  0
 33 75  1  1
 34 35  1  0
 34 76  1  1
 35 36  1  0
 36 37  1  0
 36 77  1  0
 36 78  1  0
 37 38  1  0
 38 39  1  0
 38 79  1  1
 40 41  1  0
 40 42  1  0
 40 87  1  1
 41 80  1  0
 41 81  1  0
 41 82  1  0
 42 43  1  0
 42 83  1  0
 42 84  1  0
 43 85  1  0
 43 86  1  0
M  CHG  1  40   1
M  END
>  <i_m_ct_stereo_status>  (217) 
1

>  <s_m_source_file>  (217) 
/var/tmp/pbs.5076255.sched01/tmplj_yfvzq/807e0r74np.sdf

>  <i_m_source_file_index>  (217) 
7

>  <i_lp_mmshare_version>  (217) 
48012

>  <i_f3d_flags>  (217) 
0

>  <s_epik_input>  (217) 
W0NAQF0xMjNjNGM1W2NIXVtjSF1jKE9bQ0gzXSljNE9bQ0BASF0xW0NAQF02KE9bQ0gzXSlbQ0BASF03W0NAQF0oW0NIMl1bQ0gyXTYpKE9bQ0gzXSlbQ0BASF0oTihbQ0gzXSlbQ0gyXVtDSDJdNSlbQ0BIXTJbQ0BdOChbQ0BASF0oW0NIMl03KVtDQEBIXTlbQ0BIXThPW0NIMl1PW0NASF0zOSlbQ0gyXVtDSDJdYzFbY0hdW2NIXVtjSF1bY0hdW2NIXTE=

>  <s_epik_cmdline>  (217) 
J2VwaWtfcHl0aG9uJywgJy1waHQnLCAnMi4wJywgJy1waCcsICc3LjAnLCAnLXRuJywgJzgnLCAnLW1hJywgJzIwMCcsICctaW1hZScsICc8aW5maWxlLm1hZT4nLCAnLW9tYWUnLCAnPG91dGZpbGUubWFlPic=

>  <r_lp_tautomer_probability>  (217) 
1

>  <r_epik_Ionization_Penalty>  (217) 
0.11138

>  <r_epik_Ionization_Penalty_Charging>  (217) 
0.11138

>  <r_epik_Ionization_Penalty_Neutral>  (217) 
7.61328e-13

>  <r_epik_State_Penalty>  (217) 
0.101105

>  <r_epik_Charging_Adjusted_Penalty>  (217) 
0.212485

>  <i_epik_Tot_Q>  (217) 
1

>  <i_epik_Tot_abs_Q>  (217) 
1

>  <s_epik_Chemistry_Notes>  (217) 
This compound contains an acetal/aminal-like group ( X-CH(R)-Y where X, Y are N, S, or O) that may be acid/base labile, releasing an aldehyde.

>  <s_lp_Force_Field>  (217) 
OPLS3e

>  <r_lp_Energy>  (217) 
172.448

>  <b_lp_Chiralities_Consistent>  (217) 
1

>  <s_lp_Variant>  (217) 
62:0-1

>  <s_i_glide_gridfile>  (217) 
pfpi4k_grid

>  <i_i_glide_lignum>  (217) 
7

>  <i_i_glide_rotatable_bonds>  (217) 
6

>  <r_i_docking_score>  (217) 
-1.77843

>  <r_i_glide_ligand_efficiency>  (217) 
-0.0413588

>  <r_i_glide_ligand_efficiency_sa>  (217) 
-0.144896

>  <r_i_glide_ligand_efficiency_ln>  (217) 
-0.373525

>  <r_i_glide_gscore>  (217) 
-1.77843

>  <r_i_glide_lipo>  (217) 
-0.117061

>  <r_i_glide_hbond>  (217) 
-0.0151891

>  <r_i_glide_metal>  (217) 
-0

>  <r_i_glide_rewards>  (217) 
0

>  <r_i_glide_evdw>  (217) 
-22.7599

>  <r_i_glide_ecoul>  (217) 
-2.95351

>  <r_i_glide_erotb>  (217) 
0.0769319

>  <r_i_glide_esite>  (217) 
-0.142091

>  <r_i_glide_emodel>  (217) 
-20.2616

>  <r_i_glide_energy>  (217) 
-25.7134

>  <r_i_glide_einternal>  (217) 
13.0987

>  <r_i_glide_intrahb_reward>  (217) 
-0

>  <i_i_glide_confnum>  (217) 
2

>  <i_i_glide_posenum>  (217) 
12

>  <r_i_glide_eff_state_penalty>  (217) 
0

>  <ligand_id>  (217) 
62

>  <original_smiles>  (217) 
COc1ccc2c3c1OC1C4(OC)CCC5(OC)C(C6C7(CCc8ccccc8)C(CC54)C4C7OCOC4C316)N(C)CC2

>  <smiles>  (217) 
[H]c1c([H])c([H])c(C([H])([H])C([H])([H])C23C4([H])OC([H])([H])OC5([H])C4([H])C2([H])C([H])([H])C2([H])C4(OC([H])([H])[H])C([H])([H])C([H])([H])C2(OC([H])([H])[H])C2([H])C3([H])C53c5c(c(OC([H])([H])[H])c([H])c([H])c5C([H])([H])C([H])([H])[N+]2([H])C([H])([H])[H])OC43[H])c([H])c1[H]

$$$$
62:0:1
     RDKit          3D

 87 96  0  0  1  0  0  0  0  0999 V2000
    6.4985  -11.5601    2.7924 C   0  0  0  0  0  0  0  0  0  0  0  0
    6.3776  -10.1712    3.0536 O   0  0  0  0  0  0  0  0  0  0  0  0
    5.1324   -9.5932    2.9457 C   0  0  0  0  0  0  0  0  0  0  0  0
    3.9437  -10.2997    2.6659 C   0  0  0  0  0  0  0  0  0  0  0  0
    2.6979   -9.6491    2.6709 C   0  0  0  0  0  0  0  0  0  0  0  0
    2.5924   -8.2596    2.8895 C   0  0  0  0  0  0  0  0  0  0  0  0
    3.8321   -7.5546    3.0402 C   0  0  0  0  0  0  0  0  0  0  0  0
    5.0626   -8.2064    3.1674 C   0  0  0  0  0  0  0  0  0  0  0  0
    6.0949   -7.4411    3.6015 O   0  0  0  0  0  0  0  0  0  0  0  0
    5.5584   -6.1957    4.0357 C   0  0  2  0  0  0  0  0  0  0  0  0
    5.6845   -6.0165    5.5791 C   0  0  2  0  0  0  0  0  0  0  0  0
    7.0455   -5.7371    5.9505 O   0  0  0  0  0  0  0  0  0  0  0  0
    8.0442   -6.7101    5.6398 C   0  0  0  0  0  0  0  0  0  0  0  0
    5.1178   -7.1261    6.5051 C   0  0  0  0  0  0  0  0  0  0  0  0
    3.9547   -6.4912    7.2990 C   0  0  0  0  0  0  0  0  0  0  0  0
    3.4855   -5.2905    6.4361 C   0  0  2  0  0  0  0  0  0  0  0  0
    2.7227   -4.3220    7.1604 O   0  0  0  0  0  0  0  0  0  0  0  0
    3.2771   -3.6437    8.2808 C   0  0  0  0  0  0  0  0  0  0  0  0
    2.6317   -5.8765    5.2497 C   0  0  2  0  0  0  0  0  0  0  0  0
    2.9567   -5.2582    3.8917 C   0  0  1  0  0  0  0  0  0  0  0  0
    2.9607   -3.7073    3.7043 C   0  0  1  0  0  0  0  0  0  0  0  0
    1.7975   -2.9733    4.4055 C   0  0  0  0  0  0  0  0  0  0  0  0
    1.9720   -1.4370    4.5169 C   0  0  0  0  0  0  0  0  0  0  0  0
    0.7790   -0.7391    5.1388 C   0  0  0  0  0  0  0  0  0  0  0  0
   -0.5019   -0.8821    4.5672 C   0  0  0  0  0  0  0  0  0  0  0  0
   -1.6089   -0.2246    5.1356 C   0  0  0  0  0  0  0  0  0  0  0  0
   -1.4328    0.5903    6.2697 C   0  0  0  0  0  0  0  0  0  0  0  0
   -0.1537    0.7430    6.8382 C   0  0  0  0  0  0  0  0  0  0  0  0
    0.9517    0.0815    6.2716 C   0  0  0  0  0  0  0  0  0  0  0  0
    4.3685   -3.1780    3.8285 C   0  0  1  0  0  0  0  0  0  0  0  0
    5.1562   -3.4877    5.1190 C   0  0  0  0  0  0  0  0  0  0  0  0
    4.8989   -4.7674    5.9992 C   0  0  2  0  0  0  0  0  0  0  0  0
    4.5565   -3.7511    2.3640 C   0  0  2  0  0  0  0  0  0  0  0  0
    3.1216   -3.2579    2.2213 C   0  0  1  0  0  0  0  0  0  0  0  0
    2.3022   -3.9767    1.3073 O   0  0  0  0  0  0  0  0  0  0  0  0
    3.0469   -4.6204    0.3319 C   0  0  0  0  0  0  0  0  0  0  0  0
    3.7906   -5.6417    0.9002 O   0  0  0  0  0  0  0  0  0  0  0  0
    4.6027   -5.2646    2.0176 C   0  0  2  0  0  0  0  0  0  0  0  0
    4.1629   -6.0624    3.2740 C   0  0  2  0  0  0  0  0  0  0  0  0
    1.1567   -6.1511    5.3411 N   0  0  2  0  0  0  0  0  0  0  0  0
    0.5519   -6.1772    6.7017 C   0  0  0  0  0  0  0  0  0  0  0  0
    0.7211   -7.3741    4.5669 C   0  0  0  0  0  0  0  0  0  0  0  0
    1.2151   -7.5876    3.0893 C   0  0  0  0  0  0  0  0  0  0  0  0
    7.5418  -11.8496    2.9141 H   0  0  0  0  0  0  0  0  0  0  0  0
    6.2069  -11.7995    1.7695 H   0  0  0  0  0  0  0  0  0  0  0  0
    5.9084  -12.1565    3.4891 H   0  0  0  0  0  0  0  0  0  0  0  0
    3.9526  -11.3648    2.4890 H   0  0  0  0  0  0  0  0  0  0  0  0
    1.8052  -10.2432    2.5295 H   0  0  0  0  0  0  0  0  0  0  0  0
    6.2713   -5.4586    3.6621 H   0  0  0  0  0  0  0  0  0  0  0  0
    8.9685   -6.4597    6.1602 H   0  0  0  0  0  0  0  0  0  0  0  0
    8.2817   -6.7223    4.5769 H   0  0  0  0  0  0  0  0  0  0  0  0
    7.7673   -7.7198    5.9423 H   0  0  0  0  0  0  0  0  0  0  0  0
    4.7816   -7.9893    5.9326 H   0  0  0  0  0  0  0  0  0  0  0  0
    5.8676   -7.5054    7.2013 H   0  0  0  0  0  0  0  0  0  0  0  0
    3.1781   -7.2225    7.5197 H   0  0  0  0  0  0  0  0  0  0  0  0
    4.3521   -6.1675    8.2612 H   0  0  0  0  0  0  0  0  0  0  0  0
    2.5092   -2.9887    8.6905 H   0  0  0  0  0  0  0  0  0  0  0  0
    4.1181   -3.0103    8.0067 H   0  0  0  0  0  0  0  0  0  0  0  0
    3.5777   -4.3176    9.0799 H   0  0  0  0  0  0  0  0  0  0  0  0
    2.9627   -6.9046    5.2178 H   0  0  0  0  0  0  0  0  0  0  0  0
    2.1459   -5.4468    3.2292 H   0  0  0  0  0  0  0  0  0  0  0  0
    0.8896   -3.1945    3.8490 H   0  0  0  0  0  0  0  0  0  0  0  0
    1.6161   -3.3430    5.4030 H   0  0  0  0  0  0  0  0  0  0  0  0
    2.8548   -1.2116    5.1167 H   0  0  0  0  0  0  0  0  0  0  0  0
    2.1332   -0.9698    3.5467 H   0  0  0  0  0  0  0  0  0  0  0  0
   -0.6279   -1.4855    3.6820 H   0  0  0  0  0  0  0  0  0  0  0  0
   -2.5854   -0.3352    4.6884 H   0  0  0  0  0  0  0  0  0  0  0  0
   -2.2759    1.1098    6.6955 H   0  0  0  0  0  0  0  0  0  0  0  0
   -0.0098    1.3742    7.6997 H   0  0  0  0  0  0  0  0  0  0  0  0
    1.9346    0.2158    6.6979 H   0  0  0  0  0  0  0  0  0  0  0  0
    4.4175   -2.0898    3.7166 H   0  0  0  0  0  0  0  0  0  0  0  0
    6.2170   -3.4271    4.8985 H   0  0  0  0  0  0  0  0  0  0  0  0
    4.9937   -2.6401    5.7884 H   0  0  0  0  0  0  0  0  0  0  0  0
    5.3867   -4.4813    6.9333 H   0  0  0  0  0  0  0  0  0  0  0  0
    5.2339   -3.1400    1.7695 H   0  0  0  0  0  0  0  0  0  0  0  0
    3.0643   -2.1853    2.0234 H   0  0  0  0  0  0  0  0  0  0  0  0
    2.3760   -5.0594   -0.4023 H   0  0  0  0  0  0  0  0  0  0  0  0
    3.6910   -3.9149   -0.1991 H   0  0  0  0  0  0  0  0  0  0  0  0
    5.6087   -5.5330    1.6859 H   0  0  0  0  0  0  0  0  0  0  0  0
    1.0247   -6.9147    7.3499 H   0  0  0  0  0  0  0  0  0  0  0  0
   -0.5048   -6.4426    6.6318 H   0  0  0  0  0  0  0  0  0  0  0  0
    0.5700   -5.1995    7.1810 H   0  0  0  0  0  0  0  0  0  0  0  0
    0.9391   -8.2718    5.1440 H   0  0  0  0  0  0  0  0  0  0  0  0
   -0.3670   -7.3283    4.5216 H   0  0  0  0  0  0  0  0  0  0  0  0
    0.9938   -6.7881    2.3851 H   0  0  0  0  0  0  0  0  0  0  0  0
    0.5267   -8.3457    2.7185 H   0  0  0  0  0  0  0  0  0  0  0  0
    0.7231   -5.3630    4.8799 H   0  0  0  0  0  0  0  0  0  0  0  0
  1  2  1  0
  1 44  1  0
  1 45  1  0
  1 46  1  0
  2  3  1  0
  3  8  2  0
  3  4  1  0
  4  5  2  0
  4 47  1  0
  5  6  1  0
  5 48  1  0
  6 43  1  0
  6  7  2  0
 39  7  1  6
  7  8  1  0
  8  9  1  0
  9 10  1  0
 10 39  1  0
 10 11  1  0
 10 49  1  6
 11 32  1  0
 11 12  1  6
 11 14  1  0
 12 13  1  0
 13 50  1  0
 13 51  1  0
 13 52  1  0
 14 15  1  0
 14 53  1  0
 14 54  1  0
 15 16  1  0
 15 55  1  0
 15 56  1  0
 16 32  1  0
 16 17  1  1
 16 19  1  0
 17 18  1  0
 18 57  1  0
 18 58  1  0
 18 59  1  0
 19 20  1  0
 19 40  1  0
 19 60  1  6
 20 39  1  0
 20 21  1  0
 20 61  1  6
 21 34  1  0
 21 22  1  1
 21 30  1  0
 22 23  1  0
 22 62  1  0
 22 63  1  0
 23 24  1  0
 23 64  1  0
 23 65  1  0
 24 29  1  0
 24 25  2  0
 25 26  1  0
 25 66  1  0
 26 27  2  0
 26 67  1  0
 27 28  1  0
 27 68  1  0
 28 29  2  0
 28 69  1  0
 29 70  1  0
 30 31  1  0
 30 33  1  0
 30 71  1  6
 31 32  1  0
 31 72  1  0
 31 73  1  0
 32 74  1  1
 33 38  1  0
 33 34  1  0
 33 75  1  6
 34 35  1  0
 34 76  1  1
 35 36  1  0
 36 37  1  0
 36 77  1  0
 36 78  1  0
 37 38  1  0
 38 39  1  0
 38 79  1  6
 40 41  1  0
 40 42  1  0
 40 87  1  6
 41 80  1  0
 41 81  1  0
 41 82  1  0
 42 43  1  0
 42 83  1  0
 42 84  1  0
 43 85  1  0
 43 86  1  0
M  CHG  1  40   1
M  END
>  <i_m_ct_stereo_status>  (218) 
1

>  <s_m_source_file>  (218) 
/var/tmp/pbs.5076255.sched01/tmplj_yfvzq/807e0r74np.sdf

>  <i_m_source_file_index>  (218) 
7

>  <i_lp_mmshare_version>  (218) 
48012

>  <i_f3d_flags>  (218) 
0

>  <s_epik_input>  (218) 
W0NAQF0xMjNjNGM1W2NIXVtjSF1jKE9bQ0gzXSljNE9bQ0BASF0xW0NAQF02KE9bQ0gzXSlbQ0BASF03W0NAQF0oW0NIMl1bQ0gyXTYpKE9bQ0gzXSlbQ0BASF0oTihbQ0gzXSlbQ0gyXVtDSDJdNSlbQ0BIXTJbQ0BdOChbQ0BASF0oW0NIMl03KVtDQEBIXTlbQ0BIXThPW0NIMl1PW0NASF0zOSlbQ0gyXVtDSDJdYzFbY0hdW2NIXVtjSF1bY0hdW2NIXTE=

>  <s_epik_cmdline>  (218) 
J2VwaWtfcHl0aG9uJywgJy1waHQnLCAnMi4wJywgJy1waCcsICc3LjAnLCAnLXRuJywgJzgnLCAnLW1hJywgJzIwMCcsICctaW1hZScsICc8aW5maWxlLm1hZT4nLCAnLW9tYWUnLCAnPG91dGZpbGUubWFlPic=

>  <r_lp_tautomer_probability>  (218) 
1

>  <r_epik_Ionization_Penalty>  (218) 
0.11138

>  <r_epik_Ionization_Penalty_Charging>  (218) 
0.11138

>  <r_epik_Ionization_Penalty_Neutral>  (218) 
7.61328e-13

>  <r_epik_State_Penalty>  (218) 
0.101105

>  <r_epik_Charging_Adjusted_Penalty>  (218) 
0.212485

>  <i_epik_Tot_Q>  (218) 
1

>  <i_epik_Tot_abs_Q>  (218) 
1

>  <s_epik_Chemistry_Notes>  (218) 
This compound contains an acetal/aminal-like group ( X-CH(R)-Y where X, Y are N, S, or O) that may be acid/base labile, releasing an aldehyde.

>  <s_lp_Force_Field>  (218) 
OPLS3e

>  <r_lp_Energy>  (218) 
172.448

>  <b_lp_Chiralities_Consistent>  (218) 
1

>  <s_lp_Variant>  (218) 
62:0-1

>  <s_i_glide_gridfile>  (218) 
pfpi4k_grid

>  <i_i_glide_lignum>  (218) 
7

>  <i_i_glide_rotatable_bonds>  (218) 
6

>  <r_i_docking_score>  (218) 
-1.51944

>  <r_i_glide_ligand_efficiency>  (218) 
-0.0353358

>  <r_i_glide_ligand_efficiency_sa>  (218) 
-0.123795

>  <r_i_glide_ligand_efficiency_ln>  (218) 
-0.31913

>  <r_i_glide_gscore>  (218) 
-1.51944

>  <r_i_glide_lipo>  (218) 
-0.0737525

>  <r_i_glide_hbond>  (218) 
0

>  <r_i_glide_metal>  (218) 
-0

>  <r_i_glide_rewards>  (218) 
0

>  <r_i_glide_evdw>  (218) 
-21.7751

>  <r_i_glide_ecoul>  (218) 
-2.74313

>  <r_i_glide_erotb>  (218) 
0.0769319

>  <r_i_glide_esite>  (218) 
-0.0223945

>  <r_i_glide_emodel>  (218) 
-26.588

>  <r_i_glide_energy>  (218) 
-24.5182

>  <r_i_glide_einternal>  (218) 
1.60062

>  <r_i_glide_intrahb_reward>  (218) 
-0

>  <i_i_glide_confnum>  (218) 
2

>  <i_i_glide_posenum>  (218) 
1

>  <r_i_glide_eff_state_penalty>  (218) 
0

>  <ligand_id>  (218) 
62

>  <original_smiles>  (218) 
COc1ccc2c3c1OC1C4(OC)CCC5(OC)C(C6C7(CCc8ccccc8)C(CC54)C4C7OCOC4C316)N(C)CC2

>  <smiles>  (218) 
[H]c1c([H])c([H])c(C([H])([H])C([H])([H])C23C4([H])OC([H])([H])OC5([H])C4([H])C2([H])C([H])([H])C2([H])C4(OC([H])([H])[H])C([H])([H])C([H])([H])C2(OC([H])([H])[H])C2([H])C3([H])C53c5c(c(OC([H])([H])[H])c([H])c([H])c5C([H])([H])C([H])([H])[N+]2([H])C([H])([H])[H])OC43[H])c([H])c1[H]

$$$$
62:0:2
     RDKit          3D

 87 96  0  0  1  0  0  0  0  0999 V2000
    7.4636   -2.8651   12.1275 C   0  0  0  0  0  0  0  0  0  0  0  0
    6.2017   -3.1565   11.5562 O   0  0  0  0  0  0  0  0  0  0  0  0
    6.1453   -3.3930   10.2023 C   0  0  0  0  0  0  0  0  0  0  0  0
    7.2674   -3.4330    9.3478 C   0  0  0  0  0  0  0  0  0  0  0  0
    7.1271   -3.7990    7.9944 C   0  0  0  0  0  0  0  0  0  0  0  0
    5.8589   -4.0628    7.4303 C   0  0  0  0  0  0  0  0  0  0  0  0
    4.7337   -3.8762    8.3009 C   0  0  0  0  0  0  0  0  0  0  0  0
    4.8688   -3.6482    9.6664 C   0  0  0  0  0  0  0  0  0  0  0  0
    3.7376   -3.7940   10.4080 O   0  0  0  0  0  0  0  0  0  0  0  0
    2.7473   -4.3808    9.5725 C   0  0  2  0  0  0  0  0  0  0  0  0
    2.3946   -5.8314   10.0235 C   0  0  2  0  0  0  0  0  0  0  0  0
    1.5985   -5.8179   11.2181 O   0  0  0  0  0  0  0  0  0  0  0  0
    2.1678   -5.2574   12.4015 C   0  0  0  0  0  0  0  0  0  0  0  0
    3.5465   -6.8598   10.1827 C   0  0  0  0  0  0  0  0  0  0  0  0
    3.3178   -7.9520    9.1169 C   0  0  0  0  0  0  0  0  0  0  0  0
    2.4552   -7.2665    8.0204 C   0  0  2  0  0  0  0  0  0  0  0  0
    1.7657   -8.1754    7.1627 O   0  0  0  0  0  0  0  0  0  0  0  0
    0.8961   -9.1705    7.7033 C   0  0  0  0  0  0  0  0  0  0  0  0
    3.4294   -6.3617    7.1767 C   0  0  2  0  0  0  0  0  0  0  0  0
    2.8583   -4.9779    6.8702 C   0  0  1  0  0  0  0  0  0  0  0  0
    1.4372   -4.8288    6.2377 C   0  0  1  0  0  0  0  0  0  0  0  0
    1.1350   -5.8376    5.1048 C   0  0  0  0  0  0  0  0  0  0  0  0
   -0.2098   -6.5782    5.2404 C   0  0  0  0  0  0  0  0  0  0  0  0
   -0.3664   -7.7108    4.2568 C   0  0  0  0  0  0  0  0  0  0  0  0
    0.5693   -8.7652    4.2481 C   0  0  0  0  0  0  0  0  0  0  0  0
    0.4312   -9.8402    3.3609 C   0  0  0  0  0  0  0  0  0  0  0  0
   -0.6650   -9.8552    2.4822 C   0  0  0  0  0  0  0  0  0  0  0  0
   -1.6037   -8.8144    2.4787 C   0  0  0  0  0  0  0  0  0  0  0  0
   -1.4619   -7.7406    3.3720 C   0  0  0  0  0  0  0  0  0  0  0  0
    0.4094   -4.5619    7.3210 C   0  0  1  0  0  0  0  0  0  0  0  0
    0.2864   -5.5562    8.4999 C   0  0  0  0  0  0  0  0  0  0  0  0
    1.4866   -6.4649    8.9663 C   0  0  2  0  0  0  0  0  0  0  0  0
    1.0027   -3.0947    7.3050 C   0  0  2  0  0  0  0  0  0  0  0  0
    1.0842   -3.3745    5.8072 C   0  0  1  0  0  0  0  0  0  0  0  0
    2.1232   -2.6983    5.1068 O   0  0  0  0  0  0  0  0  0  0  0  0
    2.5497   -1.5520    5.7632 C   0  0  0  0  0  0  0  0  0  0  0  0
    3.1652   -1.8738    6.9628 O   0  0  0  0  0  0  0  0  0  0  0  0
    2.4163   -2.7246    7.8348 C   0  0  2  0  0  0  0  0  0  0  0  0
    3.2080   -4.0371    8.0830 C   0  0  2  0  0  0  0  0  0  0  0  0
    4.2268   -6.8571    6.0034 N   0  0  2  0  0  0  0  0  0  0  0  0
    4.3573   -8.3323    5.8350 C   0  0  0  0  0  0  0  0  0  0  0  0
    5.5823   -6.2107    5.8747 C   0  0  0  0  0  0  0  0  0  0  0  0
    5.7251   -4.6502    6.0052 C   0  0  0  0  0  0  0  0  0  0  0  0
    7.3388   -2.6721   13.1926 H   0  0  0  0  0  0  0  0  0  0  0  0
    7.8891   -1.9750   11.6689 H   0  0  0  0  0  0  0  0  0  0  0  0
    8.1593   -3.6976   12.0205 H   0  0  0  0  0  0  0  0  0  0  0  0
    8.2655   -3.2549    9.7193 H   0  0  0  0  0  0  0  0  0  0  0  0
    8.0158   -3.9086    7.3915 H   0  0  0  0  0  0  0  0  0  0  0  0
    1.8355   -3.8360    9.8243 H   0  0  0  0  0  0  0  0  0  0  0  0
    1.5379   -5.5036   13.2560 H   0  0  0  0  0  0  0  0  0  0  0  0
    2.2176   -4.1707   12.3547 H   0  0  0  0  0  0  0  0  0  0  0  0
    3.1652   -5.6372   12.6195 H   0  0  0  0  0  0  0  0  0  0  0  0
    4.5196   -6.3861   10.0648 H   0  0  0  0  0  0  0  0  0  0  0  0
    3.5558   -7.3178   11.1730 H   0  0  0  0  0  0  0  0  0  0  0  0
    4.2605   -8.3705    8.7658 H   0  0  0  0  0  0  0  0  0  0  0  0
    2.7863   -8.7688    9.6054 H   0  0  0  0  0  0  0  0  0  0  0  0
    0.5277   -9.7940    6.8897 H   0  0  0  0  0  0  0  0  0  0  0  0
    0.0214   -8.7324    8.1788 H   0  0  0  0  0  0  0  0  0  0  0  0
    1.3874   -9.8456    8.3996 H   0  0  0  0  0  0  0  0  0  0  0  0
    4.2567   -6.2196    7.8561 H   0  0  0  0  0  0  0  0  0  0  0  0
    3.3893   -4.5631    6.0467 H   0  0  0  0  0  0  0  0  0  0  0  0
    1.1286   -5.3181    4.1458 H   0  0  0  0  0  0  0  0  0  0  0  0
    1.9268   -6.5641    5.0081 H   0  0  0  0  0  0  0  0  0  0  0  0
   -0.2893   -7.0371    6.2202 H   0  0  0  0  0  0  0  0  0  0  0  0
   -1.0423   -5.8813    5.1433 H   0  0  0  0  0  0  0  0  0  0  0  0
    1.3963   -8.7764    4.9210 H   0  0  0  0  0  0  0  0  0  0  0  0
    1.1533  -10.6431    3.3569 H   0  0  0  0  0  0  0  0  0  0  0  0
   -0.7563  -10.6540    1.7695 H   0  0  0  0  0  0  0  0  0  0  0  0
   -2.4322   -8.8420    1.7870 H   0  0  0  0  0  0  0  0  0  0  0  0
   -2.1938   -6.9474    3.3885 H   0  0  0  0  0  0  0  0  0  0  0  0
   -0.5993   -4.4721    6.9022 H   0  0  0  0  0  0  0  0  0  0  0  0
   -0.1372   -5.0447    9.3646 H   0  0  0  0  0  0  0  0  0  0  0  0
   -0.5076   -6.2542    8.2390 H   0  0  0  0  0  0  0  0  0  0  0  0
    0.9626   -7.2419    9.5247 H   0  0  0  0  0  0  0  0  0  0  0  0
    0.2443   -2.3429    7.5149 H   0  0  0  0  0  0  0  0  0  0  0  0
    0.1274   -3.2655    5.2865 H   0  0  0  0  0  0  0  0  0  0  0  0
    3.2762   -1.0291    5.1442 H   0  0  0  0  0  0  0  0  0  0  0  0
    1.7142   -0.8676    5.9282 H   0  0  0  0  0  0  0  0  0  0  0  0
    2.3246   -2.1237    8.7425 H   0  0  0  0  0  0  0  0  0  0  0  0
    4.8030   -8.8144    6.7050 H   0  0  0  0  0  0  0  0  0  0  0  0
    4.9989   -8.5553    4.9771 H   0  0  0  0  0  0  0  0  0  0  0  0
    3.4084   -8.8130    5.6102 H   0  0  0  0  0  0  0  0  0  0  0  0
    6.2809   -6.6878    6.5589 H   0  0  0  0  0  0  0  0  0  0  0  0
    5.9426   -6.4679    4.8779 H   0  0  0  0  0  0  0  0  0  0  0  0
    5.1320   -4.0514    5.3162 H   0  0  0  0  0  0  0  0  0  0  0  0
    6.7137   -4.4754    5.5856 H   0  0  0  0  0  0  0  0  0  0  0  0
    3.7079   -6.5543    5.1915 H   0  0  0  0  0  0  0  0  0  0  0  0
  1  2  1  0
  1 44  1  0
  1 45  1  0
  1 46  1  0
  2  3  1  0
  3  8  2  0
  3  4  1  0
  4  5  2  0
  4 47  1  0
  5  6  1  0
  5 48  1  0
  6 43  1  0
  6  7  2  0
 39  7  1  1
  7  8  1  0
  8  9  1  0
  9 10  1  0
 10 39  1  0
 10 11  1  0
 10 49  1  1
 11 32  1  0
 11 12  1  1
 11 14  1  0
 12 13  1  0
 13 50  1  0
 13 51  1  0
 13 52  1  0
 14 15  1  0
 14 53  1  0
 14 54  1  0
 15 16  1  0
 15 55  1  0
 15 56  1  0
 16 32  1  0
 16 17  1  6
 16 19  1  0
 17 18  1  0
 18 57  1  0
 18 58  1  0
 18 59  1  0
 19 20  1  0
 19 40  1  0
 19 60  1  1
 20 39  1  0
 20 21  1  0
 20 61  1  6
 21 34  1  0
 21 22  1  6
 21 30  1  0
 22 23  1  0
 22 62  1  0
 22 63  1  0
 23 24  1  0
 23 64  1  0
 23 65  1  0
 24 29  1  0
 24 25  2  0
 25 26  1  0
 25 66  1  0
 26 27  2  0
 26 67  1  0
 27 28  1  0
 27 68  1  0
 28 29  2  0
 28 69  1  0
 29 70  1  0
 30 31  1  0
 30 33  1  0
 30 71  1  6
 31 32  1  0
 31 72  1  0
 31 73  1  0
 32 74  1  1
 33 38  1  0
 33 34  1  0
 33 75  1  6
 34 35  1  0
 34 76  1  6
 35 36  1  0
 36 37  1  0
 36 77  1  0
 36 78  1  0
 37 38  1  0
 38 39  1  0
 38 79  1  1
 40 41  1  0
 40 42  1  0
 40 87  1  6
 41 80  1  0
 41 81  1  0
 41 82  1  0
 42 43  1  0
 42 83  1  0
 42 84  1  0
 43 85  1  0
 43 86  1  0
M  CHG  1  40   1
M  END
>  <i_m_ct_stereo_status>  (219) 
1

>  <s_m_source_file>  (219) 
/var/tmp/pbs.5076255.sched01/tmplj_yfvzq/807e0r74np.sdf

>  <i_m_source_file_index>  (219) 
7

>  <i_lp_mmshare_version>  (219) 
48012

>  <i_f3d_flags>  (219) 
0

>  <s_epik_input>  (219) 
W0NAQF0xMjNjNGM1W2NIXVtjSF1jKE9bQ0gzXSljNE9bQ0BASF0xW0NAQF02KE9bQ0gzXSlbQ0BASF03W0NAQF0oW0NIMl1bQ0gyXTYpKE9bQ0gzXSlbQ0BASF0oTihbQ0gzXSlbQ0gyXVtDSDJdNSlbQ0BIXTJbQ0BdOChbQ0BASF0oW0NIMl03KVtDQEBIXTlbQ0BIXThPW0NIMl1PW0NASF0zOSlbQ0gyXVtDSDJdYzFbY0hdW2NIXVtjSF1bY0hdW2NIXTE=

>  <s_epik_cmdline>  (219) 
J2VwaWtfcHl0aG9uJywgJy1waHQnLCAnMi4wJywgJy1waCcsICc3LjAnLCAnLXRuJywgJzgnLCAnLW1hJywgJzIwMCcsICctaW1hZScsICc8aW5maWxlLm1hZT4nLCAnLW9tYWUnLCAnPG91dGZpbGUubWFlPic=

>  <r_lp_tautomer_probability>  (219) 
1

>  <r_epik_Ionization_Penalty>  (219) 
0.11138

>  <r_epik_Ionization_Penalty_Charging>  (219) 
0.11138

>  <r_epik_Ionization_Penalty_Neutral>  (219) 
7.61328e-13

>  <r_epik_State_Penalty>  (219) 
0.101105

>  <r_epik_Charging_Adjusted_Penalty>  (219) 
0.212485

>  <i_epik_Tot_Q>  (219) 
1

>  <i_epik_Tot_abs_Q>  (219) 
1

>  <s_epik_Chemistry_Notes>  (219) 
This compound contains an acetal/aminal-like group ( X-CH(R)-Y where X, Y are N, S, or O) that may be acid/base labile, releasing an aldehyde.

>  <s_lp_Force_Field>  (219) 
OPLS3e

>  <r_lp_Energy>  (219) 
172.448

>  <b_lp_Chiralities_Consistent>  (219) 
1

>  <s_lp_Variant>  (219) 
62:0-1

>  <s_i_glide_gridfile>  (219) 
pfpi4k_grid

>  <i_i_glide_lignum>  (219) 
7

>  <i_i_glide_rotatable_bonds>  (219) 
6

>  <r_i_docking_score>  (219) 
-1.18688

>  <r_i_glide_ligand_efficiency>  (219) 
-0.0276018

>  <r_i_glide_ligand_efficiency_sa>  (219) 
-0.0967002

>  <r_i_glide_ligand_efficiency_ln>  (219) 
-0.249281

>  <r_i_glide_gscore>  (219) 
-1.18688

>  <r_i_glide_lipo>  (219) 
-0.252322

>  <r_i_glide_hbond>  (219) 
0

>  <r_i_glide_metal>  (219) 
-0

>  <r_i_glide_rewards>  (219) 
0

>  <r_i_glide_evdw>  (219) 
-20.0678

>  <r_i_glide_ecoul>  (219) 
-0.0539943

>  <r_i_glide_erotb>  (219) 
0.0769319

>  <r_i_glide_esite>  (219) 
0

>  <r_i_glide_emodel>  (219) 
-20.2125

>  <r_i_glide_energy>  (219) 
-20.1218

>  <r_i_glide_einternal>  (219) 
3.66388

>  <r_i_glide_intrahb_reward>  (219) 
-0

>  <i_i_glide_confnum>  (219) 
2

>  <i_i_glide_posenum>  (219) 
3

>  <r_i_glide_eff_state_penalty>  (219) 
0

>  <ligand_id>  (219) 
62

>  <original_smiles>  (219) 
COc1ccc2c3c1OC1C4(OC)CCC5(OC)C(C6C7(CCc8ccccc8)C(CC54)C4C7OCOC4C316)N(C)CC2

>  <smiles>  (219) 
[H]c1c([H])c([H])c(C([H])([H])C([H])([H])C23C4([H])OC([H])([H])OC5([H])C4([H])C2([H])C([H])([H])C2([H])C4(OC([H])([H])[H])C([H])([H])C([H])([H])C2(OC([H])([H])[H])C2([H])C3([H])C53c5c(c(OC([H])([H])[H])c([H])c([H])c5C([H])([H])C([H])([H])[N+]2([H])C([H])([H])[H])OC43[H])c([H])c1[H]

$$$$
63:0:0
     RDKit          3D

 14 15  0  0  1  0  0  0  0  0999 V2000
    3.1283   -0.6792   -3.5431 C   0  0  0  0  0  0  0  0  0  0  0  0
    2.6389   -1.9834   -3.7931 C   0  0  0  0  0  0  0  0  0  0  0  0
    3.1884   -3.0929   -3.3192 N   0  0  0  0  0  0  0  0  0  0  0  0
    4.2541   -2.9514   -2.5162 C   0  0  0  0  0  0  0  0  0  0  0  0
    5.0511   -3.8362   -1.8455 C   0  0  0  0  0  0  0  0  0  0  0  0
    6.0164   -3.0363   -1.1888 C   0  0  0  0  0  0  0  0  0  0  0  0
    5.8726   -1.7468   -1.4010 N   0  0  0  0  0  0  0  0  0  0  0  0
    4.7785   -1.6754   -2.2164 N   0  0  0  0  0  0  0  0  0  0  0  0
    4.2184   -0.5442   -2.7226 C   0  0  0  0  0  0  0  0  0  0  0  0
    2.6305    0.1993   -3.9446 H   0  0  0  0  0  0  0  0  0  0  0  0
    1.7392   -2.1127   -4.3797 H   0  0  0  0  0  0  0  0  0  0  0  0
    4.9530   -4.9125   -1.8368 H   0  0  0  0  0  0  0  0  0  0  0  0
    6.8279   -3.3825   -0.5617 H   0  0  0  0  0  0  0  0  0  0  0  0
    4.6505    0.4105   -2.4485 H   0  0  0  0  0  0  0  0  0  0  0  0
  1  9  2  0
  1  2  1  0
  1 10  1  0
  2  3  2  0
  2 11  1  0
  3  4  1  0
  4  8  1  0
  4  5  2  0
  5  6  1  0
  5 12  1  0
  6  7  2  0
  6 13  1  0
  7  8  1  0
  8  9  1  0
  9 14  1  0
M  END
>  <i_m_ct_stereo_status>  (220) 
1

>  <s_m_source_file>  (220) 
/var/tmp/pbs.5076255.sched01/tmplj_yfvzq/807e0r74np.sdf

>  <i_m_source_file_index>  (220) 
9

>  <i_lp_mmshare_version>  (220) 
48012

>  <i_f3d_flags>  (220) 
0

>  <s_epik_input>  (220) 
bjFbY0hdW2NIXVtjSF1uKGMxMiluW2NIXVtjSF0y

>  <s_epik_cmdline>  (220) 
J2VwaWtfcHl0aG9uJywgJy1waHQnLCAnMi4wJywgJy1waCcsICc3LjAnLCAnLXRuJywgJzgnLCAnLW1hJywgJzIwMCcsICctaW1hZScsICc8aW5maWxlLm1hZT4nLCAnLW9tYWUnLCAnPG91dGZpbGUubWFlPic=

>  <r_lp_tautomer_probability>  (220) 
1

>  <r_epik_Ionization_Penalty>  (220) 
5.01424e-08

>  <r_epik_Ionization_Penalty_Charging>  (220) 
0

>  <r_epik_Ionization_Penalty_Neutral>  (220) 
5.01424e-08

>  <r_epik_State_Penalty>  (220) 
-0

>  <r_epik_Charging_Adjusted_Penalty>  (220) 
0

>  <i_epik_Tot_Q>  (220) 
0

>  <i_epik_Tot_abs_Q>  (220) 
0

>  <s_lp_Force_Field>  (220) 
OPLS3e

>  <r_lp_Energy>  (220) 
12.4622

>  <b_lp_Chiralities_Consistent>  (220) 
1

>  <s_lp_Variant>  (220) 
63:0-1

>  <s_i_glide_gridfile>  (220) 
pfpi4k_grid

>  <i_i_glide_lignum>  (220) 
9

>  <i_i_glide_rotatable_bonds>  (220) 
0

>  <r_i_docking_score>  (220) 
-4.0551

>  <r_i_glide_ligand_efficiency>  (220) 
-0.450566

>  <r_i_glide_ligand_efficiency_sa>  (220) 
-0.937216

>  <r_i_glide_ligand_efficiency_ln>  (220) 
-1.26832

>  <r_i_glide_gscore>  (220) 
-4.0551

>  <r_i_glide_lipo>  (220) 
-0.566882

>  <r_i_glide_hbond>  (220) 
-0.0664887

>  <r_i_glide_metal>  (220) 
-0

>  <r_i_glide_rewards>  (220) 
-2.25

>  <r_i_glide_evdw>  (220) 
-15.6262

>  <r_i_glide_ecoul>  (220) 
-2.42951

>  <r_i_glide_erotb>  (220) 
0

>  <r_i_glide_esite>  (220) 
-0.025987

>  <r_i_glide_emodel>  (220) 
-22.8961

>  <r_i_glide_energy>  (220) 
-18.0558

>  <r_i_glide_einternal>  (220) 
0

>  <r_i_glide_intrahb_reward>  (220) 
-0

>  <i_i_glide_confnum>  (220) 
1

>  <i_i_glide_posenum>  (220) 
6

>  <r_i_glide_eff_state_penalty>  (220) 
0

>  <ligand_id>  (220) 
63

>  <original_smiles>  (220) 
c1cnc2ccnn2c1

>  <smiles>  (220) 
[H]c1nc2c([H])c([H])nn2c([H])c1[H]

$$$$
63:0:1
     RDKit          3D

 14 15  0  0  1  0  0  0  0  0999 V2000
    6.8597   -2.5437   -1.1076 C   0  0  0  0  0  0  0  0  0  0  0  0
    5.9825   -1.7354   -0.3460 C   0  0  0  0  0  0  0  0  0  0  0  0
    4.7532   -1.4026   -0.7254 N   0  0  0  0  0  0  0  0  0  0  0  0
    4.3186   -1.9024   -1.8981 C   0  0  0  0  0  0  0  0  0  0  0  0
    3.1513   -1.7937   -2.5977 C   0  0  0  0  0  0  0  0  0  0  0  0
    3.3339   -2.5707   -3.7627 C   0  0  0  0  0  0  0  0  0  0  0  0
    4.5197   -3.1270   -3.8479 N   0  0  0  0  0  0  0  0  0  0  0  0
    5.1419   -2.7332   -2.6905 N   0  0  0  0  0  0  0  0  0  0  0  0
    6.4041   -3.0554   -2.3009 C   0  0  0  0  0  0  0  0  0  0  0  0
    7.8618   -2.7790   -0.7591 H   0  0  0  0  0  0  0  0  0  0  0  0
    6.3227   -1.3225    0.5995 H   0  0  0  0  0  0  0  0  0  0  0  0
    2.2648   -1.2506   -2.3053 H   0  0  0  0  0  0  0  0  0  0  0  0
    2.6156   -2.7307   -4.5541 H   0  0  0  0  0  0  0  0  0  0  0  0
    6.9884   -3.6884   -2.9575 H   0  0  0  0  0  0  0  0  0  0  0  0
  1  9  2  0
  1  2  1  0
  1 10  1  0
  2  3  2  0
  2 11  1  0
  3  4  1  0
  4  8  1  0
  4  5  2  0
  5  6  1  0
  5 12  1  0
  6  7  2  0
  6 13  1  0
  7  8  1  0
  8  9  1  0
  9 14  1  0
M  END
>  <i_m_ct_stereo_status>  (221) 
1

>  <s_m_source_file>  (221) 
/var/tmp/pbs.5076255.sched01/tmplj_yfvzq/807e0r74np.sdf

>  <i_m_source_file_index>  (221) 
9

>  <i_lp_mmshare_version>  (221) 
48012

>  <i_f3d_flags>  (221) 
0

>  <s_epik_input>  (221) 
bjFbY0hdW2NIXVtjSF1uKGMxMiluW2NIXVtjSF0y

>  <s_epik_cmdline>  (221) 
J2VwaWtfcHl0aG9uJywgJy1waHQnLCAnMi4wJywgJy1waCcsICc3LjAnLCAnLXRuJywgJzgnLCAnLW1hJywgJzIwMCcsICctaW1hZScsICc8aW5maWxlLm1hZT4nLCAnLW9tYWUnLCAnPG91dGZpbGUubWFlPic=

>  <r_lp_tautomer_probability>  (221) 
1

>  <r_epik_Ionization_Penalty>  (221) 
5.01424e-08

>  <r_epik_Ionization_Penalty_Charging>  (221) 
0

>  <r_epik_Ionization_Penalty_Neutral>  (221) 
5.01424e-08

>  <r_epik_State_Penalty>  (221) 
-0

>  <r_epik_Charging_Adjusted_Penalty>  (221) 
0

>  <i_epik_Tot_Q>  (221) 
0

>  <i_epik_Tot_abs_Q>  (221) 
0

>  <s_lp_Force_Field>  (221) 
OPLS3e

>  <r_lp_Energy>  (221) 
12.4622

>  <b_lp_Chiralities_Consistent>  (221) 
1

>  <s_lp_Variant>  (221) 
63:0-1

>  <s_i_glide_gridfile>  (221) 
pfpi4k_grid

>  <i_i_glide_lignum>  (221) 
9

>  <i_i_glide_rotatable_bonds>  (221) 
0

>  <r_i_docking_score>  (221) 
-4.04928

>  <r_i_glide_ligand_efficiency>  (221) 
-0.44992

>  <r_i_glide_ligand_efficiency_sa>  (221) 
-0.935872

>  <r_i_glide_ligand_efficiency_ln>  (221) 
-1.2665

>  <r_i_glide_gscore>  (221) 
-4.04928

>  <r_i_glide_lipo>  (221) 
-0.246358

>  <r_i_glide_hbond>  (221) 
-0.0140903

>  <r_i_glide_metal>  (221) 
-0

>  <r_i_glide_rewards>  (221) 
-2.49649

>  <r_i_glide_evdw>  (221) 
-16.5251

>  <r_i_glide_ecoul>  (221) 
-2.94355

>  <r_i_glide_erotb>  (221) 
0

>  <r_i_glide_esite>  (221) 
-0.0245602

>  <r_i_glide_emodel>  (221) 
-24.3064

>  <r_i_glide_energy>  (221) 
-19.4687

>  <r_i_glide_einternal>  (221) 
0

>  <r_i_glide_intrahb_reward>  (221) 
-0

>  <i_i_glide_confnum>  (221) 
1

>  <i_i_glide_posenum>  (221) 
1

>  <r_i_glide_eff_state_penalty>  (221) 
0

>  <ligand_id>  (221) 
63

>  <original_smiles>  (221) 
c1cnc2ccnn2c1

>  <smiles>  (221) 
[H]c1nc2c([H])c([H])nn2c([H])c1[H]

$$$$
63:0:2
     RDKit          3D

 14 15  0  0  1  0  0  0  0  0999 V2000
   -0.4464   -9.0716    2.7990 C   0  0  0  0  0  0  0  0  0  0  0  0
   -0.4774   -7.8456    2.0961 C   0  0  0  0  0  0  0  0  0  0  0  0
   -0.2798   -6.6576    2.6585 N   0  0  0  0  0  0  0  0  0  0  0  0
   -0.0227   -6.6530    3.9820 C   0  0  0  0  0  0  0  0  0  0  0  0
    0.2216   -5.6528    4.8805 C   0  0  0  0  0  0  0  0  0  0  0  0
    0.4055   -6.3101    6.1225 C   0  0  0  0  0  0  0  0  0  0  0  0
    0.2786   -7.6145    6.0568 N   0  0  0  0  0  0  0  0  0  0  0  0
    0.0209   -7.8489    4.7328 N   0  0  0  0  0  0  0  0  0  0  0  0
   -0.1866   -9.0571    4.1493 C   0  0  0  0  0  0  0  0  0  0  0  0
   -0.6217  -10.0102    2.2819 H   0  0  0  0  0  0  0  0  0  0  0  0
   -0.6781   -7.8445    1.0294 H   0  0  0  0  0  0  0  0  0  0  0  0
    0.2776   -4.5938    4.6865 H   0  0  0  0  0  0  0  0  0  0  0  0
    0.6282   -5.8551    7.0764 H   0  0  0  0  0  0  0  0  0  0  0  0
   -0.1574   -9.9439    4.7775 H   0  0  0  0  0  0  0  0  0  0  0  0
  1  9  2  0
  1  2  1  0
  1 10  1  0
  2  3  2  0
  2 11  1  0
  3  4  1  0
  4  8  1  0
  4  5  2  0
  5  6  1  0
  5 12  1  0
  6  7  2  0
  6 13  1  0
  7  8  1  0
  8  9  1  0
  9 14  1  0
M  END
>  <i_m_ct_stereo_status>  (222) 
1

>  <s_m_source_file>  (222) 
/var/tmp/pbs.5076255.sched01/tmplj_yfvzq/807e0r74np.sdf

>  <i_m_source_file_index>  (222) 
9

>  <i_lp_mmshare_version>  (222) 
48012

>  <i_f3d_flags>  (222) 
0

>  <s_epik_input>  (222) 
bjFbY0hdW2NIXVtjSF1uKGMxMiluW2NIXVtjSF0y

>  <s_epik_cmdline>  (222) 
J2VwaWtfcHl0aG9uJywgJy1waHQnLCAnMi4wJywgJy1waCcsICc3LjAnLCAnLXRuJywgJzgnLCAnLW1hJywgJzIwMCcsICctaW1hZScsICc8aW5maWxlLm1hZT4nLCAnLW9tYWUnLCAnPG91dGZpbGUubWFlPic=

>  <r_lp_tautomer_probability>  (222) 
1

>  <r_epik_Ionization_Penalty>  (222) 
5.01424e-08

>  <r_epik_Ionization_Penalty_Charging>  (222) 
0

>  <r_epik_Ionization_Penalty_Neutral>  (222) 
5.01424e-08

>  <r_epik_State_Penalty>  (222) 
-0

>  <r_epik_Charging_Adjusted_Penalty>  (222) 
0

>  <i_epik_Tot_Q>  (222) 
0

>  <i_epik_Tot_abs_Q>  (222) 
0

>  <s_lp_Force_Field>  (222) 
OPLS3e

>  <r_lp_Energy>  (222) 
12.4622

>  <b_lp_Chiralities_Consistent>  (222) 
1

>  <s_lp_Variant>  (222) 
63:0-1

>  <s_i_glide_gridfile>  (222) 
pfpi4k_grid

>  <i_i_glide_lignum>  (222) 
9

>  <i_i_glide_rotatable_bonds>  (222) 
0

>  <r_i_docking_score>  (222) 
-3.73499

>  <r_i_glide_ligand_efficiency>  (222) 
-0.414999

>  <r_i_glide_ligand_efficiency_sa>  (222) 
-0.863232

>  <r_i_glide_ligand_efficiency_ln>  (222) 
-1.1682

>  <r_i_glide_gscore>  (222) 
-3.73499

>  <r_i_glide_lipo>  (222) 
0

>  <r_i_glide_hbond>  (222) 
-0.16

>  <r_i_glide_metal>  (222) 
-0

>  <r_i_glide_rewards>  (222) 
-2.25

>  <r_i_glide_evdw>  (222) 
-10.8388

>  <r_i_glide_ecoul>  (222) 
-4.70672

>  <r_i_glide_erotb>  (222) 
0

>  <r_i_glide_esite>  (222) 
-0.0770376

>  <r_i_glide_emodel>  (222) 
-20.0085

>  <r_i_glide_energy>  (222) 
-15.5456

>  <r_i_glide_einternal>  (222) 
0

>  <r_i_glide_intrahb_reward>  (222) 
-0

>  <i_i_glide_confnum>  (222) 
1

>  <i_i_glide_posenum>  (222) 
2

>  <r_i_glide_eff_state_penalty>  (222) 
0

>  <ligand_id>  (222) 
63

>  <original_smiles>  (222) 
c1cnc2ccnn2c1

>  <smiles>  (222) 
[H]c1nc2c([H])c([H])nn2c([H])c1[H]

$$$$
64:0:0
     RDKit          3D

 35 38  0  0  1  0  0  0  0  0999 V2000
    4.0974   -5.3938    2.4023 O   0  0  0  0  0  0  0  0  0  0  0  0
    3.2459   -5.4934    1.5182 C   0  0  0  0  0  0  0  0  0  0  0  0
    3.3099   -4.8465    0.3383 N   0  0  0  0  0  0  0  0  0  0  0  0
    4.2821   -3.8306   -0.0649 C   0  0  2  0  0  0  0  0  0  0  0  0
    4.1735   -2.5791    0.8477 C   0  0  0  0  0  0  0  0  0  0  0  0
    5.1992   -1.5208    0.4015 C   0  0  1  0  0  0  0  0  0  0  0  0
    6.6198   -2.1174    0.4907 C   0  0  0  0  0  0  0  0  0  0  0  0
    6.7299   -3.3324   -0.4578 C   0  0  2  0  0  0  0  0  0  0  0  0
    6.4213   -2.9201   -1.9092 C   0  0  0  0  0  0  0  0  0  0  0  0
    5.0006   -2.3232   -1.9748 C   0  0  2  0  0  0  0  0  0  0  0  0
    4.9016   -1.0946   -1.0496 C   0  0  0  0  0  0  0  0  0  0  0  0
    3.9784   -3.3864   -1.5213 C   0  0  0  0  0  0  0  0  0  0  0  0
    5.7246   -4.4034   -0.0166 C   0  0  0  0  0  0  0  0  0  0  0  0
    2.0364   -6.3315    1.7015 C   0  0  0  0  0  0  0  0  0  0  0  0
    1.8499   -7.1681    2.7658 C   0  0  0  0  0  0  0  0  0  0  0  0
    0.2966   -7.8932    2.6113 S   0  0  0  0  0  0  0  0  0  0  0  0
   -0.0654   -7.0515    1.2099 N   0  0  0  0  0  0  0  0  0  0  0  0
    0.9268   -6.2918    0.8374 N   0  0  0  0  0  0  0  0  0  0  0  0
    2.5825   -5.0634   -0.3309 H   0  0  0  0  0  0  0  0  0  0  0  0
    3.1636   -2.1642    0.8070 H   0  0  0  0  0  0  0  0  0  0  0  0
    4.3583   -2.8342    1.8917 H   0  0  0  0  0  0  0  0  0  0  0  0
    5.1251   -0.6534    1.0574 H   0  0  0  0  0  0  0  0  0  0  0  0
    7.3705   -1.3664    0.2470 H   0  0  0  0  0  0  0  0  0  0  0  0
    6.8174   -2.4310    1.5168 H   0  0  0  0  0  0  0  0  0  0  0  0
    7.7350   -3.7484   -0.4002 H   0  0  0  0  0  0  0  0  0  0  0  0
    7.1668   -2.2137   -2.2681 H   0  0  0  0  0  0  0  0  0  0  0  0
    6.4878   -3.7866   -2.5677 H   0  0  0  0  0  0  0  0  0  0  0  0
    4.7844   -2.0206   -2.9993 H   0  0  0  0  0  0  0  0  0  0  0  0
    3.9029   -0.6635   -1.1146 H   0  0  0  0  0  0  0  0  0  0  0  0
    5.5961   -0.3188   -1.3679 H   0  0  0  0  0  0  0  0  0  0  0  0
    4.0283   -4.2406   -2.1963 H   0  0  0  0  0  0  0  0  0  0  0  0
    2.9657   -2.9845   -1.6024 H   0  0  0  0  0  0  0  0  0  0  0  0
    6.0103   -4.7257    0.9832 H   0  0  0  0  0  0  0  0  0  0  0  0
    5.7917   -5.2852   -0.6552 H   0  0  0  0  0  0  0  0  0  0  0  0
    2.5053   -7.3791    3.5981 H   0  0  0  0  0  0  0  0  0  0  0  0
  1  2  2  0
  2  3  1  0
  2 14  1  0
  4  3  1  1
  3 19  1  0
  4 12  1  0
  4 13  1  0
  4  5  1  0
  5  6  1  0
  5 20  1  0
  5 21  1  0
  6 11  1  0
  6  7  1  0
  6 22  1  1
  7  8  1  0
  7 23  1  0
  7 24  1  0
  8  9  1  0
  8 13  1  0
  8 25  1  6
  9 10  1  0
  9 26  1  0
  9 27  1  0
 10 11  1  0
 10 12  1  0
 10 28  1  6
 11 29  1  0
 11 30  1  0
 12 31  1  0
 12 32  1  0
 13 33  1  0
 13 34  1  0
 14 18  1  0
 14 15  2  0
 15 16  1  0
 15 35  1  0
 16 17  1  0
 17 18  2  0
M  END
>  <i_m_ct_stereo_status>  (223) 
1

>  <s_m_source_file>  (223) 
/var/tmp/pbs.5076255.sched01/tmplj_yfvzq/807e0r74np.sdf

>  <i_m_source_file_index>  (223) 
10

>  <i_lp_mmshare_version>  (223) 
48012

>  <i_f3d_flags>  (223) 
0

>  <s_epik_input>  (223) 
bjFuc1tjSF1jMUMoPU8pW05IXUMyM1tDSDJdW0NASF00W0NIMl1bQ0BASF0oW0NIMl0zKVtDSDJdW0NASF0oW0NIMl00KVtDSDJdMg==

>  <s_epik_cmdline>  (223) 
J2VwaWtfcHl0aG9uJywgJy1waHQnLCAnMi4wJywgJy1waCcsICc3LjAnLCAnLXRuJywgJzgnLCAnLW1hJywgJzIwMCcsICctaW1hZScsICc8aW5maWxlLm1hZT4nLCAnLW9tYWUnLCAnPG91dGZpbGUubWFlPic=

>  <r_lp_tautomer_probability>  (223) 
1

>  <r_epik_Ionization_Penalty>  (223) 
1.41547e-06

>  <r_epik_Ionization_Penalty_Charging>  (223) 
0

>  <r_epik_Ionization_Penalty_Neutral>  (223) 
1.41547e-06

>  <r_epik_State_Penalty>  (223) 
-0

>  <r_epik_Charging_Adjusted_Penalty>  (223) 
0

>  <i_epik_Tot_Q>  (223) 
0

>  <i_epik_Tot_abs_Q>  (223) 
0

>  <s_lp_Force_Field>  (223) 
OPLS3e

>  <r_lp_Energy>  (223) 
-3.62431

>  <b_lp_Chiralities_Consistent>  (223) 
1

>  <s_lp_Variant>  (223) 
64:0-1

>  <s_i_glide_gridfile>  (223) 
pfpi4k_grid

>  <i_i_glide_lignum>  (223) 
10

>  <i_i_glide_rotatable_bonds>  (223) 
3

>  <r_i_docking_score>  (223) 
-3.23489

>  <r_i_glide_ligand_efficiency>  (223) 
-0.179716

>  <r_i_glide_ligand_efficiency_sa>  (223) 
-0.47099

>  <r_i_glide_ligand_efficiency_ln>  (223) 
-0.831513

>  <r_i_glide_gscore>  (223) 
-3.23489

>  <r_i_glide_lipo>  (223) 
-0.355884

>  <r_i_glide_hbond>  (223) 
0

>  <r_i_glide_metal>  (223) 
-0

>  <r_i_glide_rewards>  (223) 
-1.62825

>  <r_i_glide_evdw>  (223) 
-26.0864

>  <r_i_glide_ecoul>  (223) 
-3.32364

>  <r_i_glide_erotb>  (223) 
0.768071

>  <r_i_glide_esite>  (223) 
-0.215961

>  <r_i_glide_emodel>  (223) 
-34.5181

>  <r_i_glide_energy>  (223) 
-29.41

>  <r_i_glide_einternal>  (223) 
2.12417

>  <r_i_glide_intrahb_reward>  (223) 
-0

>  <i_i_glide_confnum>  (223) 
2

>  <i_i_glide_posenum>  (223) 
1

>  <r_i_glide_eff_state_penalty>  (223) 
0

>  <ligand_id>  (223) 
64

>  <original_smiles>  (223) 
O=C(NC12CC3CC(CC(C3)C1)C2)c1csnn1

>  <smiles>  (223) 
[H]c1snnc1C(=O)N([H])C12C([H])([H])C3([H])C([H])([H])C([H])(C([H])([H])C([H])(C3([H])[H])C1([H])[H])C2([H])[H]

$$$$
64:0:1
     RDKit          3D

 35 38  0  0  1  0  0  0  0  0999 V2000
    4.5981   -6.4491    0.4934 O   0  0  0  0  0  0  0  0  0  0  0  0
    3.5478   -5.8715    0.7633 C   0  0  0  0  0  0  0  0  0  0  0  0
    3.3598   -4.5457    0.6481 N   0  0  0  0  0  0  0  0  0  0  0  0
    4.3091   -3.5566    0.1259 C   0  0  2  0  0  0  0  0  0  0  0  0
    3.6690   -2.1458    0.2108 C   0  0  0  0  0  0  0  0  0  0  0  0
    4.6570   -1.0916   -0.3348 C   0  0  1  0  0  0  0  0  0  0  0  0
    5.9459   -1.1110    0.5090 C   0  0  0  0  0  0  0  0  0  0  0  0
    6.5916   -2.5052    0.4063 C   0  0  2  0  0  0  0  0  0  0  0  0
    6.9155   -2.8515   -1.0639 C   0  0  0  0  0  0  0  0  0  0  0  0
    5.6208   -2.8065   -1.9037 C   0  0  2  0  0  0  0  0  0  0  0  0
    4.9855   -1.4047   -1.8100 C   0  0  0  0  0  0  0  0  0  0  0  0
    4.6300   -3.8532   -1.3637 C   0  0  0  0  0  0  0  0  0  0  0  0
    5.6169   -3.5519    0.9661 C   0  0  0  0  0  0  0  0  0  0  0  0
    2.3795   -6.6010    1.3121 C   0  0  0  0  0  0  0  0  0  0  0  0
    2.4862   -7.7114    2.1001 C   0  0  0  0  0  0  0  0  0  0  0  0
    0.8977   -8.2606    2.4630 S   0  0  0  0  0  0  0  0  0  0  0  0
    0.1654   -7.0468    1.5617 N   0  0  0  0  0  0  0  0  0  0  0  0
    1.0471   -6.2625    1.0245 N   0  0  0  0  0  0  0  0  0  0  0  0
    2.4576   -4.1996    0.9416 H   0  0  0  0  0  0  0  0  0  0  0  0
    2.7407   -2.1097   -0.3619 H   0  0  0  0  0  0  0  0  0  0  0  0
    3.3991   -1.8988    1.2391 H   0  0  0  0  0  0  0  0  0  0  0  0
    4.2142   -0.0982   -0.2696 H   0  0  0  0  0  0  0  0  0  0  0  0
    6.6361   -0.3373    0.1763 H   0  0  0  0  0  0  0  0  0  0  0  0
    5.7092   -0.8879    1.5502 H   0  0  0  0  0  0  0  0  0  0  0  0
    7.5089   -2.5292    0.9915 H   0  0  0  0  0  0  0  0  0  0  0  0
    7.6630   -2.1745   -1.4699 H   0  0  0  0  0  0  0  0  0  0  0  0
    7.3580   -3.8461   -1.1157 H   0  0  0  0  0  0  0  0  0  0  0  0
    5.8553   -3.0362   -2.9435 H   0  0  0  0  0  0  0  0  0  0  0  0
    4.0789   -1.3590   -2.4142 H   0  0  0  0  0  0  0  0  0  0  0  0
    5.6600   -0.6525   -2.2145 H   0  0  0  0  0  0  0  0  0  0  0  0
    5.0622   -4.8459   -1.4901 H   0  0  0  0  0  0  0  0  0  0  0  0
    3.7128   -3.8485   -1.9563 H   0  0  0  0  0  0  0  0  0  0  0  0
    5.3946   -3.3463    2.0151 H   0  0  0  0  0  0  0  0  0  0  0  0
    6.1216   -4.5167    0.9424 H   0  0  0  0  0  0  0  0  0  0  0  0
    3.3702   -8.2221    2.4618 H   0  0  0  0  0  0  0  0  0  0  0  0
  1  2  2  0
  2  3  1  0
  2 14  1  0
  4  3  1  1
  3 19  1  0
  4 12  1  0
  4 13  1  0
  4  5  1  0
  5  6  1  0
  5 20  1  0
  5 21  1  0
  6 11  1  0
  6  7  1  0
  6 22  1  6
  7  8  1  0
  7 23  1  0
  7 24  1  0
  8  9  1  0
  8 13  1  0
  8 25  1  1
  9 10  1  0
  9 26  1  0
  9 27  1  0
 10 11  1  0
 10 12  1  0
 10 28  1  6
 11 29  1  0
 11 30  1  0
 12 31  1  0
 12 32  1  0
 13 33  1  0
 13 34  1  0
 14 18  1  0
 14 15  2  0
 15 16  1  0
 15 35  1  0
 16 17  1  0
 17 18  2  0
M  END
>  <i_m_ct_stereo_status>  (224) 
1

>  <s_m_source_file>  (224) 
/var/tmp/pbs.5076255.sched01/tmplj_yfvzq/807e0r74np.sdf

>  <i_m_source_file_index>  (224) 
10

>  <i_lp_mmshare_version>  (224) 
48012

>  <i_f3d_flags>  (224) 
0

>  <s_epik_input>  (224) 
bjFuc1tjSF1jMUMoPU8pW05IXUMyM1tDSDJdW0NASF00W0NIMl1bQ0BASF0oW0NIMl0zKVtDSDJdW0NASF0oW0NIMl00KVtDSDJdMg==

>  <s_epik_cmdline>  (224) 
J2VwaWtfcHl0aG9uJywgJy1waHQnLCAnMi4wJywgJy1waCcsICc3LjAnLCAnLXRuJywgJzgnLCAnLW1hJywgJzIwMCcsICctaW1hZScsICc8aW5maWxlLm1hZT4nLCAnLW9tYWUnLCAnPG91dGZpbGUubWFlPic=

>  <r_lp_tautomer_probability>  (224) 
1

>  <r_epik_Ionization_Penalty>  (224) 
1.41547e-06

>  <r_epik_Ionization_Penalty_Charging>  (224) 
0

>  <r_epik_Ionization_Penalty_Neutral>  (224) 
1.41547e-06

>  <r_epik_State_Penalty>  (224) 
-0

>  <r_epik_Charging_Adjusted_Penalty>  (224) 
0

>  <i_epik_Tot_Q>  (224) 
0

>  <i_epik_Tot_abs_Q>  (224) 
0

>  <s_lp_Force_Field>  (224) 
OPLS3e

>  <r_lp_Energy>  (224) 
-3.62431

>  <b_lp_Chiralities_Consistent>  (224) 
1

>  <s_lp_Variant>  (224) 
64:0-1

>  <s_i_glide_gridfile>  (224) 
pfpi4k_grid

>  <i_i_glide_lignum>  (224) 
10

>  <i_i_glide_rotatable_bonds>  (224) 
3

>  <r_i_docking_score>  (224) 
-3.23457

>  <r_i_glide_ligand_efficiency>  (224) 
-0.179698

>  <r_i_glide_ligand_efficiency_sa>  (224) 
-0.470943

>  <r_i_glide_ligand_efficiency_ln>  (224) 
-0.83143

>  <r_i_glide_gscore>  (224) 
-3.23457

>  <r_i_glide_lipo>  (224) 
-0.339245

>  <r_i_glide_hbond>  (224) 
0

>  <r_i_glide_metal>  (224) 
-0

>  <r_i_glide_rewards>  (224) 
-1.63299

>  <r_i_glide_evdw>  (224) 
-28.2371

>  <r_i_glide_ecoul>  (224) 
-2.77515

>  <r_i_glide_erotb>  (224) 
0.768071

>  <r_i_glide_esite>  (224) 
-0.202278

>  <r_i_glide_emodel>  (224) 
-36.2244

>  <r_i_glide_energy>  (224) 
-31.0123

>  <r_i_glide_einternal>  (224) 
1.96142

>  <r_i_glide_intrahb_reward>  (224) 
-0

>  <i_i_glide_confnum>  (224) 
2

>  <i_i_glide_posenum>  (224) 
15

>  <r_i_glide_eff_state_penalty>  (224) 
0

>  <ligand_id>  (224) 
64

>  <original_smiles>  (224) 
O=C(NC12CC3CC(CC(C3)C1)C2)c1csnn1

>  <smiles>  (224) 
[H]c1snnc1C(=O)N([H])C12C([H])([H])C3([H])C([H])([H])C([H])(C([H])([H])C([H])(C3([H])[H])C1([H])[H])C2([H])[H]

$$$$
64:0:2
     RDKit          3D

 35 38  0  0  1  0  0  0  0  0999 V2000
    3.8649   -5.0446    1.7078 O   0  0  0  0  0  0  0  0  0  0  0  0
    2.8443   -5.2767    1.0652 C   0  0  0  0  0  0  0  0  0  0  0  0
    2.5371   -4.6715   -0.1003 N   0  0  0  0  0  0  0  0  0  0  0  0
    3.3370   -3.6944   -0.8452 C   0  0  2  0  0  0  0  0  0  0  0  0
    4.7452   -4.2709   -1.1767 C   0  0  0  0  0  0  0  0  0  0  0  0
    5.5518   -3.2577   -1.9857 C   0  0  1  0  0  0  0  0  0  0  0  0
    4.8092   -2.9447   -3.2991 C   0  0  0  0  0  0  0  0  0  0  0  0
    3.4362   -2.3315   -2.9782 C   0  0  2  0  0  0  0  0  0  0  0  0
    3.6103   -1.0602   -2.1420 C   0  0  0  0  0  0  0  0  0  0  0  0
    4.3335   -1.3905   -0.8205 C   0  0  2  0  0  0  0  0  0  0  0  0
    5.7188   -1.9876   -1.1348 C   0  0  0  0  0  0  0  0  0  0  0  0
    3.5110   -2.4066   -0.0119 C   0  0  0  0  0  0  0  0  0  0  0  0
    2.5939   -3.3343   -2.1743 C   0  0  0  0  0  0  0  0  0  0  0  0
    1.8689   -6.3105    1.4919 C   0  0  0  0  0  0  0  0  0  0  0  0
    2.1731   -7.3311    2.3484 C   0  0  0  0  0  0  0  0  0  0  0  0
    0.7478   -8.2467    2.6217 S   0  0  0  0  0  0  0  0  0  0  0  0
   -0.1899   -7.2568    1.6457 N   0  0  0  0  0  0  0  0  0  0  0  0
    0.5269   -6.3193    1.0946 N   0  0  0  0  0  0  0  0  0  0  0  0
    1.7142   -5.0153   -0.5755 H   0  0  0  0  0  0  0  0  0  0  0  0
    5.3148   -4.5449   -0.2877 H   0  0  0  0  0  0  0  0  0  0  0  0
    4.6542   -5.1834   -1.7566 H   0  0  0  0  0  0  0  0  0  0  0  0
    6.5320   -3.6753   -2.2174 H   0  0  0  0  0  0  0  0  0  0  0  0
    5.3840   -2.2362   -3.8912 H   0  0  0  0  0  0  0  0  0  0  0  0
    4.6975   -3.8482   -3.8982 H   0  0  0  0  0  0  0  0  0  0  0  0
    2.9227   -2.0846   -3.9058 H   0  0  0  0  0  0  0  0  0  0  0  0
    4.1587   -0.2887   -2.6899 H   0  0  0  0  0  0  0  0  0  0  0  0
    2.6183   -0.6567   -1.9341 H   0  0  0  0  0  0  0  0  0  0  0  0
    4.4537   -0.4871   -0.2277 H   0  0  0  0  0  0  0  0  0  0  0  0
    6.2577   -2.2179   -0.2128 H   0  0  0  0  0  0  0  0  0  0  0  0
    6.2969   -1.2579   -1.6871 H   0  0  0  0  0  0  0  0  0  0  0  0
    2.5384   -1.9921    0.2473 H   0  0  0  0  0  0  0  0  0  0  0  0
    4.0234   -2.6038    0.9297 H   0  0  0  0  0  0  0  0  0  0  0  0
    2.3959   -4.1888   -2.8181 H   0  0  0  0  0  0  0  0  0  0  0  0
    1.6038   -2.9245   -1.9717 H   0  0  0  0  0  0  0  0  0  0  0  0
    3.1144   -7.5735    2.8200 H   0  0  0  0  0  0  0  0  0  0  0  0
  1  2  2  0
  2  3  1  0
  2 14  1  0
  4  3  1  1
  3 19  1  0
  4 12  1  0
  4 13  1  0
  4  5  1  0
  5  6  1  0
  5 20  1  0
  5 21  1  0
  6 11  1  0
  6  7  1  0
  6 22  1  6
  7  8  1  0
  7 23  1  0
  7 24  1  0
  8  9  1  0
  8 13  1  0
  8 25  1  6
  9 10  1  0
  9 26  1  0
  9 27  1  0
 10 11  1  0
 10 12  1  0
 10 28  1  1
 11 29  1  0
 11 30  1  0
 12 31  1  0
 12 32  1  0
 13 33  1  0
 13 34  1  0
 14 18  1  0
 14 15  2  0
 15 16  1  0
 15 35  1  0
 16 17  1  0
 17 18  2  0
M  END
>  <i_m_ct_stereo_status>  (225) 
1

>  <s_m_source_file>  (225) 
/var/tmp/pbs.5076255.sched01/tmplj_yfvzq/807e0r74np.sdf

>  <i_m_source_file_index>  (225) 
10

>  <i_lp_mmshare_version>  (225) 
48012

>  <i_f3d_flags>  (225) 
0

>  <s_epik_input>  (225) 
bjFuc1tjSF1jMUMoPU8pW05IXUMyM1tDSDJdW0NASF00W0NIMl1bQ0BASF0oW0NIMl0zKVtDSDJdW0NASF0oW0NIMl00KVtDSDJdMg==

>  <s_epik_cmdline>  (225) 
J2VwaWtfcHl0aG9uJywgJy1waHQnLCAnMi4wJywgJy1waCcsICc3LjAnLCAnLXRuJywgJzgnLCAnLW1hJywgJzIwMCcsICctaW1hZScsICc8aW5maWxlLm1hZT4nLCAnLW9tYWUnLCAnPG91dGZpbGUubWFlPic=

>  <r_lp_tautomer_probability>  (225) 
1

>  <r_epik_Ionization_Penalty>  (225) 
1.41547e-06

>  <r_epik_Ionization_Penalty_Charging>  (225) 
0

>  <r_epik_Ionization_Penalty_Neutral>  (225) 
1.41547e-06

>  <r_epik_State_Penalty>  (225) 
-0

>  <r_epik_Charging_Adjusted_Penalty>  (225) 
0

>  <i_epik_Tot_Q>  (225) 
0

>  <i_epik_Tot_abs_Q>  (225) 
0

>  <s_lp_Force_Field>  (225) 
OPLS3e

>  <r_lp_Energy>  (225) 
-3.62431

>  <b_lp_Chiralities_Consistent>  (225) 
1

>  <s_lp_Variant>  (225) 
64:0-1

>  <s_i_glide_gridfile>  (225) 
pfpi4k_grid

>  <i_i_glide_lignum>  (225) 
10

>  <i_i_glide_rotatable_bonds>  (225) 
3

>  <r_i_docking_score>  (225) 
-3.09505

>  <r_i_glide_ligand_efficiency>  (225) 
-0.171947

>  <r_i_glide_ligand_efficiency_sa>  (225) 
-0.450629

>  <r_i_glide_ligand_efficiency_ln>  (225) 
-0.795567

>  <r_i_glide_gscore>  (225) 
-3.09505

>  <r_i_glide_lipo>  (225) 
-0.479653

>  <r_i_glide_hbond>  (225) 
0

>  <r_i_glide_metal>  (225) 
-0

>  <r_i_glide_rewards>  (225) 
-1.61346

>  <r_i_glide_evdw>  (225) 
-21.9838

>  <r_i_glide_ecoul>  (225) 
-2.6637

>  <r_i_glide_erotb>  (225) 
0.768071

>  <r_i_glide_esite>  (225) 
-0.271266

>  <r_i_glide_emodel>  (225) 
-29.6242

>  <r_i_glide_energy>  (225) 
-24.6475

>  <r_i_glide_einternal>  (225) 
1.85297

>  <r_i_glide_intrahb_reward>  (225) 
-0

>  <i_i_glide_confnum>  (225) 
6

>  <i_i_glide_posenum>  (225) 
5

>  <r_i_glide_eff_state_penalty>  (225) 
0

>  <ligand_id>  (225) 
64

>  <original_smiles>  (225) 
O=C(NC12CC3CC(CC(C3)C1)C2)c1csnn1

>  <smiles>  (225) 
[H]c1snnc1C(=O)N([H])C12C([H])([H])C3([H])C([H])([H])C([H])(C([H])([H])C([H])(C3([H])[H])C1([H])[H])C2([H])[H]

$$$$
65:0:0
     RDKit          3D

 95102  0  0  1  0  0  0  0  0999 V2000
   -1.8491   -7.9980    3.1409 C   0  0  0  0  0  0  0  0  0  0  0  0
   -0.6294   -8.7028    3.7040 C   0  0  0  0  0  0  0  0  0  0  0  0
   -0.3112   -8.6458    5.0105 C   0  0  0  0  0  0  0  0  0  0  0  0
    0.9148   -9.3288    5.6212 C   0  0  2  0  0  0  0  0  0  0  0  0
    1.5481   -8.5572    6.8928 C   0  0  1  0  0  0  0  0  0  0  0  0
    0.8613   -9.1285    7.9836 O   0  0  0  0  0  0  0  0  0  0  0  0
    2.8099   -9.0490    6.8273 O   0  0  0  0  0  0  0  0  0  0  0  0
    3.5127   -8.1577    6.0021 C   0  0  2  0  0  0  0  0  0  0  0  0
    4.5151   -7.6470    7.1787 C   0  0  1  0  0  0  0  0  0  0  0  0
    5.3587   -8.5976    7.7990 O   0  0  0  0  0  0  0  0  0  0  0  0
    5.2929   -6.5893    6.4723 C   0  0  0  0  0  0  0  0  0  0  0  0
    4.3290   -6.7370    5.3373 C   0  0  2  0  0  0  0  0  0  0  0  0
    2.8385   -6.1076    5.9211 C   0  0  2  0  0  0  0  0  0  0  0  0
    2.5200   -4.6274    5.3594 C   0  0  1  0  0  0  0  0  0  0  0  0
    1.0391   -4.3553    5.0506 C   0  0  0  0  0  0  0  0  0  0  0  0
    3.3387   -3.3548    5.7848 C   0  0  0  0  0  0  0  0  0  0  0  0
    2.9090   -2.4422    6.9498 C   0  0  2  0  0  0  0  0  0  0  0  0
    1.4605   -2.1528    7.3311 C   0  0  1  0  0  0  0  0  0  0  0  0
    1.1156   -2.5471    8.7685 C   0  0  1  0  0  0  0  0  0  0  0  0
   -0.0832   -1.9059    9.1661 O   0  0  0  0  0  0  0  0  0  0  0  0
    1.0082   -4.0791    8.8187 C   0  0  0  0  0  0  0  0  0  0  0  0
    2.0231   -4.9405    8.7959 C   0  0  0  0  0  0  0  0  0  0  0  0
    3.4967   -4.6377    9.0479 C   0  0  0  0  0  0  0  0  0  0  0  0
    1.5293   -6.3539    8.5845 C   0  0  1  0  0  0  0  0  0  0  0  0
    2.0496   -7.2246    9.7936 C   0  0  0  0  0  0  0  0  0  0  0  0
    1.0538   -8.0176   10.4111 O   0  0  0  0  0  0  0  0  0  0  0  0
    0.1038   -6.2291    8.7934 O   0  0  0  0  0  0  0  0  0  0  0  0
   -0.2879   -4.8615    8.9460 C   0  0  0  0  0  0  0  0  0  0  0  0
   -0.8566   -4.7188   10.3730 C   0  0  0  0  0  0  0  0  0  0  0  0
   -1.3683   -4.5949    7.8838 C   0  0  0  0  0  0  0  0  0  0  0  0
    1.7058   -6.8460    7.0486 C   0  0  2  0  0  0  0  0  0  0  0  0
    2.3555   -1.0298    6.8385 C   0  0  0  0  0  0  0  0  0  0  0  0
    2.7928    0.0558    7.8093 C   0  0  0  0  0  0  0  0  0  0  0  0
    2.1019   -0.4140    5.4729 C   0  0  0  0  0  0  0  0  0  0  0  0
    2.5358   -7.1046    5.0288 C   0  0  1  0  0  0  0  0  0  0  0  0
    2.5909   -6.7446    3.6024 O   0  0  0  0  0  0  0  0  0  0  0  0
    4.3272   -8.3977    4.8857 C   0  0  1  0  0  0  0  0  0  0  0  0
    5.7152   -9.1349    4.9801 C   0  0  0  0  0  0  0  0  0  0  0  0
    3.3084   -9.3380    3.9719 C   0  0  1  0  0  0  0  0  0  0  0  0
    4.0464  -10.3672    3.3344 O   0  0  0  0  0  0  0  0  0  0  0  0
    1.9643  -10.0428    4.5908 C   0  0  1  0  0  0  0  0  0  0  0  0
    2.4874  -11.1899    5.2723 O   0  0  0  0  0  0  0  0  0  0  0  0
    1.0754  -10.5293    3.4149 C   0  0  0  0  0  0  0  0  0  0  0  0
    1.0056  -11.7049    3.0890 O   0  0  0  0  0  0  0  0  0  0  0  0
    0.2178   -9.4696    2.7010 C   0  0  0  0  0  0  0  0  0  0  0  0
   -1.5408   -7.2745    2.3867 H   0  0  0  0  0  0  0  0  0  0  0  0
   -2.3920   -7.4687    3.9279 H   0  0  0  0  0  0  0  0  0  0  0  0
   -2.5318   -8.7161    2.6795 H   0  0  0  0  0  0  0  0  0  0  0  0
   -0.9459   -8.1001    5.6799 H   0  0  0  0  0  0  0  0  0  0  0  0
    0.4011  -10.2051    6.0381 H   0  0  0  0  0  0  0  0  0  0  0  0
    0.9851  -10.0692    7.9033 H   0  0  0  0  0  0  0  0  0  0  0  0
    4.0077   -7.1630    7.9967 H   0  0  0  0  0  0  0  0  0  0  0  0
    5.7739   -9.0992    7.1098 H   0  0  0  0  0  0  0  0  0  0  0  0
    5.2775   -5.6089    6.9307 H   0  0  0  0  0  0  0  0  0  0  0  0
    6.3273   -6.8080    6.2141 H   0  0  0  0  0  0  0  0  0  0  0  0
    4.7416   -6.1355    4.5200 H   0  0  0  0  0  0  0  0  0  0  0  0
    2.9304   -4.6289    4.3528 H   0  0  0  0  0  0  0  0  0  0  0  0
    0.4610   -4.3161    5.9606 H   0  0  0  0  0  0  0  0  0  0  0  0
    0.5929   -5.1201    4.4147 H   0  0  0  0  0  0  0  0  0  0  0  0
    0.9109   -3.4058    4.5318 H   0  0  0  0  0  0  0  0  0  0  0  0
    4.3631   -3.6637    5.9854 H   0  0  0  0  0  0  0  0  0  0  0  0
    3.4434   -2.7156    4.9088 H   0  0  0  0  0  0  0  0  0  0  0  0
    3.6619   -2.4523    7.7303 H   0  0  0  0  0  0  0  0  0  0  0  0
    0.6433   -2.3353    6.6378 H   0  0  0  0  0  0  0  0  0  0  0  0
    1.9056   -2.2144    9.4431 H   0  0  0  0  0  0  0  0  0  0  0  0
   -0.0292   -1.7309   10.0974 H   0  0  0  0  0  0  0  0  0  0  0  0
    3.9870   -5.4079    9.6417 H   0  0  0  0  0  0  0  0  0  0  0  0
    3.6203   -3.7045    9.5970 H   0  0  0  0  0  0  0  0  0  0  0  0
    4.0351   -4.5511    8.1202 H   0  0  0  0  0  0  0  0  0  0  0  0
    2.8674   -7.8991    9.5331 H   0  0  0  0  0  0  0  0  0  0  0  0
    2.3997   -6.6012   10.6180 H   0  0  0  0  0  0  0  0  0  0  0  0
    0.7848   -8.6592    9.7647 H   0  0  0  0  0  0  0  0  0  0  0  0
   -1.2657   -3.7268   10.5669 H   0  0  0  0  0  0  0  0  0  0  0  0
   -0.0886   -4.9083   11.1233 H   0  0  0  0  0  0  0  0  0  0  0  0
   -1.6516   -5.4369   10.5572 H   0  0  0  0  0  0  0  0  0  0  0  0
   -1.4874   -3.5409    7.6409 H   0  0  0  0  0  0  0  0  0  0  0  0
   -2.3319   -4.9688    8.2269 H   0  0  0  0  0  0  0  0  0  0  0  0
   -1.1635   -5.1388    6.9675 H   0  0  0  0  0  0  0  0  0  0  0  0
    0.7478   -6.4914    6.6725 H   0  0  0  0  0  0  0  0  0  0  0  0
    1.9989    0.7946    7.9276 H   0  0  0  0  0  0  0  0  0  0  0  0
    3.6878    0.5641    7.4472 H   0  0  0  0  0  0  0  0  0  0  0  0
    3.0151   -0.3669    8.7877 H   0  0  0  0  0  0  0  0  0  0  0  0
    1.3567    0.3786    5.5404 H   0  0  0  0  0  0  0  0  0  0  0  0
    1.7360   -1.1657    4.7762 H   0  0  0  0  0  0  0  0  0  0  0  0
    3.0230    0.0091    5.0691 H   0  0  0  0  0  0  0  0  0  0  0  0
    1.4762   -7.1736    4.9048 H   0  0  0  0  0  0  0  0  0  0  0  0
    2.3553   -7.4973    3.0826 H   0  0  0  0  0  0  0  0  0  0  0  0
    6.1628   -9.2166    3.9874 H   0  0  0  0  0  0  0  0  0  0  0  0
    5.5899  -10.1499    5.3637 H   0  0  0  0  0  0  0  0  0  0  0  0
    6.5066   -8.6908    5.5674 H   0  0  0  0  0  0  0  0  0  0  0  0
    3.0513   -8.8733    3.0284 H   0  0  0  0  0  0  0  0  0  0  0  0
    4.0806  -11.1016    3.9387 H   0  0  0  0  0  0  0  0  0  0  0  0
    1.8364  -11.5653    5.8661 H   0  0  0  0  0  0  0  0  0  0  0  0
   -0.4546   -9.9917    2.0210 H   0  0  0  0  0  0  0  0  0  0  0  0
    0.8257   -8.7876    2.1068 H   0  0  0  0  0  0  0  0  0  0  0  0
  1  2  1  0
  1 46  1  0
  1 47  1  0
  1 48  1  0
  2 45  1  0
  2  3  2  0
  3  4  1  0
  3 49  1  0
  4 41  1  0
  4  5  1  0
  4 50  1  1
  5 31  1  0
  5  6  1  1
  5  7  1  0
  6 51  1  0
  8  7  1  1
  8 35  1  0
  8 37  1  0
  8  9  1  0
  9 10  1  0
  9 11  1  0
  9 52  1  1
 10 53  1  0
 11 12  1  0
 11 54  1  0
 11 55  1  0
 12 13  1  0
 12 37  1  0
 12 56  1  6
 13 31  1  0
 13 14  1  6
 13 35  1  0
 14 15  1  0
 14 16  1  0
 14 57  1  6
 15 58  1  0
 15 59  1  0
 15 60  1  0
 16 17  1  0
 16 61  1  0
 16 62  1  0
 17 32  1  0
 17 18  1  0
 17 63  1  1
 18 19  1  0
 18 32  1  0
 18 64  1  6
 19 20  1  0
 19 21  1  0
 19 65  1  1
 20 66  1  0
 21 28  1  0
 21 22  2  0
 22 23  1  0
 22 24  1  0
 23 67  1  0
 23 68  1  0
 23 69  1  0
 24 25  1  1
 24 27  1  0
 24 31  1  0
 25 26  1  0
 25 70  1  0
 25 71  1  0
 26 72  1  0
 27 28  1  0
 28 29  1  0
 28 30  1  0
 29 73  1  0
 29 74  1  0
 29 75  1  0
 30 76  1  0
 30 77  1  0
 30 78  1  0
 31 79  1  6
 32 33  1  0
 32 34  1  0
 33 80  1  0
 33 81  1  0
 33 82  1  0
 34 83  1  0
 34 84  1  0
 34 85  1  0
 35 36  1  0
 35 86  1  1
 36 87  1  0
 37 38  1  1
 37 39  1  0
 38 88  1  0
 38 89  1  0
 38 90  1  0
 39 40  1  0
 39 41  1  0
 39 91  1  6
 40 92  1  0
 41 42  1  1
 41 43  1  0
 42 93  1  0
 43 44  2  0
 43 45  1  0
 45 94  1  0
 45 95  1  0
M  END
>  <i_m_ct_stereo_status>  (226) 
1

>  <s_m_source_file>  (226) 
/var/tmp/pbs.5076255.sched01/tmplj_yfvzq/807e0r74np.sdf

>  <i_m_source_file_index>  (226) 
11

>  <i_lp_mmshare_version>  (226) 
48012

>  <i_f3d_flags>  (226) 
0

>  <s_epik_input>  (226) 
W0NIM11DKD1bQ0hdMSlbQ0gyXUMoPU8pW0NAQF0oW09IXSkoW0NAQEhdMltPSF0pW0NASF0xW0NAXShPMykoW09IXSlbQ0BIXShbQ0BdNChbQ0BIXTVbT0hdKVtDQEhdKFtDQF0yKFtDQF0zNTYpW0NIM10pW0NIMl1bQ0BASF02W09IXSlbQ0BAXTcoW0NIMl1bT0hdKUMoW0NIM10pPUMoQyhPNykoW0NIM10pW0NIM10pW0NASF0oW09IXSlbQ0BASF04W0NASF0oQzgoW0NIM10pW0NIM10pW0NIMl1bQ0BASF00W0NIM10=

>  <s_epik_cmdline>  (226) 
J2VwaWtfcHl0aG9uJywgJy1waHQnLCAnMi4wJywgJy1waCcsICc3LjAnLCAnLXRuJywgJzgnLCAnLW1hJywgJzIwMCcsICctaW1hZScsICc8aW5maWxlLm1hZT4nLCAnLW9tYWUnLCAnPG91dGZpbGUubWFlPic=

>  <r_lp_tautomer_probability>  (226) 
1

>  <r_epik_Ionization_Penalty>  (226) 
5.27983e-06

>  <r_epik_Ionization_Penalty_Charging>  (226) 
0

>  <r_epik_Ionization_Penalty_Neutral>  (226) 
5.27983e-06

>  <r_epik_State_Penalty>  (226) 
-0

>  <r_epik_Charging_Adjusted_Penalty>  (226) 
0

>  <i_epik_Tot_Q>  (226) 
0

>  <i_epik_Tot_abs_Q>  (226) 
0

>  <s_lp_Force_Field>  (226) 
OPLS3e

>  <r_lp_Energy>  (226) 
414.211

>  <b_lp_Chiralities_Consistent>  (226) 
1

>  <s_lp_Variant>  (226) 
65:0-1

>  <s_i_glide_gridfile>  (226) 
pfpi4k_grid

>  <i_i_glide_lignum>  (226) 
11

>  <i_i_glide_rotatable_bonds>  (226) 
8

>  <r_i_docking_score>  (226) 
-3.28171

>  <r_i_glide_ligand_efficiency>  (226) 
-0.0729268

>  <r_i_glide_ligand_efficiency_sa>  (226) 
-0.259393

>  <r_i_glide_ligand_efficiency_ln>  (226) 
-0.682741

>  <r_i_glide_gscore>  (226) 
-3.28171

>  <r_i_glide_lipo>  (226) 
-0.000439332

>  <r_i_glide_hbond>  (226) 
-0.240311

>  <r_i_glide_metal>  (226) 
-0

>  <r_i_glide_rewards>  (226) 
-0.699211

>  <r_i_glide_evdw>  (226) 
-23.4278

>  <r_i_glide_ecoul>  (226) 
-7.94286

>  <r_i_glide_erotb>  (226) 
0.0531521

>  <r_i_glide_esite>  (226) 
-0.0320809

>  <r_i_glide_emodel>  (226) 
-36.9206

>  <r_i_glide_energy>  (226) 
-31.3706

>  <r_i_glide_einternal>  (226) 
12.8075

>  <r_i_glide_intrahb_reward>  (226) 
-0.5

>  <i_i_glide_confnum>  (226) 
6

>  <i_i_glide_posenum>  (226) 
11

>  <r_i_glide_eff_state_penalty>  (226) 
0

>  <ligand_id>  (226) 
65

>  <original_smiles>  (226) 
CC1=CC2C3(O)OC45C(O)CC(C6(C(C)CC7C(C(O)C8=C(C)C(CO)(OC8(C)C)C36)C7(C)C)C4O)C5(C)C(O)C2(O)C(=O)C1

>  <smiles>  (226) 
[H]OC([H])([H])C12OC(C([H])([H])[H])(C([H])([H])[H])C(=C1C([H])([H])[H])C([H])(O[H])C1([H])C([H])(C([H])([H])C([H])(C([H])([H])[H])C34C([H])(O[H])C56OC(O[H])(C7([H])C([H])=C(C([H])([H])[H])C([H])([H])C(=O)C7(O[H])C([H])(O[H])C5(C([H])([H])[H])C3([H])C([H])([H])C6([H])O[H])C24[H])C1(C([H])([H])[H])C([H])([H])[H]

$$$$
65:0:1
     RDKit          3D

 95102  0  0  1  0  0  0  0  0999 V2000
   -1.8831   -8.0778    3.1186 C   0  0  0  0  0  0  0  0  0  0  0  0
   -0.6561   -8.7660    3.6878 C   0  0  0  0  0  0  0  0  0  0  0  0
   -0.2993   -8.6455    4.9791 C   0  0  0  0  0  0  0  0  0  0  0  0
    0.9395   -9.3089    5.5869 C   0  0  2  0  0  0  0  0  0  0  0  0
    1.6271   -8.4729    6.7931 C   0  0  1  0  0  0  0  0  0  0  0  0
    0.9613   -8.9586    7.9439 O   0  0  0  0  0  0  0  0  0  0  0  0
    2.8874   -8.9722    6.7113 O   0  0  0  0  0  0  0  0  0  0  0  0
    3.5607   -8.1388    5.7998 C   0  0  2  0  0  0  0  0  0  0  0  0
    4.6162   -7.5609    6.8975 C   0  0  1  0  0  0  0  0  0  0  0  0
    5.4420   -8.5027    7.5671 O   0  0  0  0  0  0  0  0  0  0  0  0
    5.3910   -6.5703    6.1077 C   0  0  0  0  0  0  0  0  0  0  0  0
    4.3699   -6.7678    5.0298 C   0  0  2  0  0  0  0  0  0  0  0  0
    2.9015   -6.0980    5.6402 C   0  0  2  0  0  0  0  0  0  0  0  0
    2.5727   -4.6429    5.0251 C   0  0  1  0  0  0  0  0  0  0  0  0
    1.0843   -4.3711    4.7503 C   0  0  0  0  0  0  0  0  0  0  0  0
    3.4162   -3.3598    5.3650 C   0  0  0  0  0  0  0  0  0  0  0  0
    3.0281   -2.3847    6.4929 C   0  0  2  0  0  0  0  0  0  0  0  0
    1.5987   -2.0609    6.9025 C   0  0  1  0  0  0  0  0  0  0  0  0
    1.2874   -2.3807    8.3624 C   0  0  1  0  0  0  0  0  0  0  0  0
    0.1112   -1.7024    8.7569 O   0  0  0  0  0  0  0  0  0  0  0  0
    1.1834   -3.9079    8.5015 C   0  0  0  0  0  0  0  0  0  0  0  0
    2.2002   -4.7661    8.5033 C   0  0  0  0  0  0  0  0  0  0  0  0
    3.6761   -4.4550    8.6915 C   0  0  0  0  0  0  0  0  0  0  0  0
    1.7175   -6.1906    8.3760 C   0  0  1  0  0  0  0  0  0  0  0  0
    2.1397   -7.0037    9.6659 C   0  0  0  0  0  0  0  0  0  0  0  0
    3.3624   -7.7207    9.6751 O   0  0  0  0  0  0  0  0  0  0  0  0
    0.2947   -6.0603    8.6118 O   0  0  0  0  0  0  0  0  0  0  0  0
   -0.1083   -4.6834    8.7024 C   0  0  0  0  0  0  0  0  0  0  0  0
   -0.6526   -4.4643   10.1311 C   0  0  0  0  0  0  0  0  0  0  0  0
   -1.2271   -4.4624    7.6650 C   0  0  0  0  0  0  0  0  0  0  0  0
    1.8118   -6.7635    6.8530 C   0  0  2  0  0  0  0  0  0  0  0  0
    2.4849   -0.9707    6.3275 C   0  0  0  0  0  0  0  0  0  0  0  0
    2.9581    0.1569    7.2324 C   0  0  0  0  0  0  0  0  0  0  0  0
    2.1953   -0.4246    4.9387 C   0  0  0  0  0  0  0  0  0  0  0  0
    2.5520   -7.1356    4.8096 C   0  0  1  0  0  0  0  0  0  0  0  0
    2.5646   -6.8504    3.3675 O   0  0  0  0  0  0  0  0  0  0  0  0
    4.3373   -8.4530    4.6785 C   0  0  1  0  0  0  0  0  0  0  0  0
    5.7187   -9.2019    4.7779 C   0  0  0  0  0  0  0  0  0  0  0  0
    3.2816   -9.4295    3.8567 C   0  0  1  0  0  0  0  0  0  0  0  0
    3.9922  -10.5022    3.2576 O   0  0  0  0  0  0  0  0  0  0  0  0
    1.9498  -10.0832    4.5574 C   0  0  1  0  0  0  0  0  0  0  0  0
    2.4771  -11.2012    5.2719 O   0  0  0  0  0  0  0  0  0  0  0  0
    1.0241  -10.6180    3.4356 C   0  0  0  0  0  0  0  0  0  0  0  0
    0.9716  -11.8071    3.1488 O   0  0  0  0  0  0  0  0  0  0  0  0
    0.1515   -9.5940    2.6973 C   0  0  0  0  0  0  0  0  0  0  0  0
   -1.5910   -7.3955    2.3202 H   0  0  0  0  0  0  0  0  0  0  0  0
   -2.4056   -7.5044    3.8883 H   0  0  0  0  0  0  0  0  0  0  0  0
   -2.5813   -8.8128    2.7104 H   0  0  0  0  0  0  0  0  0  0  0  0
   -0.9044   -8.0666    5.6605 H   0  0  0  0  0  0  0  0  0  0  0  0
    0.4339  -10.1525    6.0735 H   0  0  0  0  0  0  0  0  0  0  0  0
    1.0264   -9.9050    7.9206 H   0  0  0  0  0  0  0  0  0  0  0  0
    4.1530   -6.9670    7.6603 H   0  0  0  0  0  0  0  0  0  0  0  0
    5.8751   -9.0471    6.9244 H   0  0  0  0  0  0  0  0  0  0  0  0
    5.3889   -5.5823    6.5408 H   0  0  0  0  0  0  0  0  0  0  0  0
    6.4214   -6.8087    5.8366 H   0  0  0  0  0  0  0  0  0  0  0  0
    4.7517   -6.2066    4.1668 H   0  0  0  0  0  0  0  0  0  0  0  0
    2.9515   -4.6990    4.0075 H   0  0  0  0  0  0  0  0  0  0  0  0
    0.5349   -4.2811    5.6741 H   0  0  0  0  0  0  0  0  0  0  0  0
    0.6138   -5.1634    4.1683 H   0  0  0  0  0  0  0  0  0  0  0  0
    0.9474   -3.4480    4.1875 H   0  0  0  0  0  0  0  0  0  0  0  0
    4.4427   -3.6713    5.5535 H   0  0  0  0  0  0  0  0  0  0  0  0
    3.5031   -2.7652    4.4559 H   0  0  0  0  0  0  0  0  0  0  0  0
    3.8034   -2.3578    7.2506 H   0  0  0  0  0  0  0  0  0  0  0  0
    0.7625   -2.2677    6.2414 H   0  0  0  0  0  0  0  0  0  0  0  0
    2.0925   -2.0275    9.0068 H   0  0  0  0  0  0  0  0  0  0  0  0
    0.3689   -0.8920    9.1750 H   0  0  0  0  0  0  0  0  0  0  0  0
    4.1568   -5.2052    9.3153 H   0  0  0  0  0  0  0  0  0  0  0  0
    3.8215   -3.4940    9.1857 H   0  0  0  0  0  0  0  0  0  0  0  0
    4.1850   -4.4371    7.7410 H   0  0  0  0  0  0  0  0  0  0  0  0
    2.1575   -6.3134   10.5160 H   0  0  0  0  0  0  0  0  0  0  0  0
    1.3605   -7.7102    9.9589 H   0  0  0  0  0  0  0  0  0  0  0  0
    3.4348   -8.2599    8.8955 H   0  0  0  0  0  0  0  0  0  0  0  0
   -1.0500   -3.4604   10.2807 H   0  0  0  0  0  0  0  0  0  0  0  0
    0.1243   -4.6160   10.8798 H   0  0  0  0  0  0  0  0  0  0  0  0
   -1.4610   -5.1562   10.3605 H   0  0  0  0  0  0  0  0  0  0  0  0
   -1.3466   -3.4203    7.3779 H   0  0  0  0  0  0  0  0  0  0  0  0
   -2.1875   -4.8004    8.0542 H   0  0  0  0  0  0  0  0  0  0  0  0
   -1.0635   -5.0473    6.7661 H   0  0  0  0  0  0  0  0  0  0  0  0
    0.8422   -6.4192    6.5001 H   0  0  0  0  0  0  0  0  0  0  0  0
    2.1764    0.9098    7.3372 H   0  0  0  0  0  0  0  0  0  0  0  0
    3.8474    0.6366    6.8222 H   0  0  0  0  0  0  0  0  0  0  0  0
    3.2053   -0.2190    8.2235 H   0  0  0  0  0  0  0  0  0  0  0  0
    1.4572    0.3760    4.9839 H   0  0  0  0  0  0  0  0  0  0  0  0
    1.8033   -1.2079    4.2931 H   0  0  0  0  0  0  0  0  0  0  0  0
    3.1064   -0.0330    4.4846 H   0  0  0  0  0  0  0  0  0  0  0  0
    1.4877   -7.2021    4.7348 H   0  0  0  0  0  0  0  0  0  0  0  0
    2.3249   -7.6316    2.8997 H   0  0  0  0  0  0  0  0  0  0  0  0
    6.1442   -9.3412    3.7804 H   0  0  0  0  0  0  0  0  0  0  0  0
    5.5963  -10.1924    5.2240 H   0  0  0  0  0  0  0  0  0  0  0  0
    6.5308   -8.7375    5.3207 H   0  0  0  0  0  0  0  0  0  0  0  0
    2.9979   -9.0142    2.8987 H   0  0  0  0  0  0  0  0  0  0  0  0
    4.0432  -11.2013    3.8975 H   0  0  0  0  0  0  0  0  0  0  0  0
    1.8208  -11.5691    5.8682 H   0  0  0  0  0  0  0  0  0  0  0  0
   -0.5441  -10.1394    2.0593 H   0  0  0  0  0  0  0  0  0  0  0  0
    0.7470   -8.9487    2.0514 H   0  0  0  0  0  0  0  0  0  0  0  0
  1  2  1  0
  1 46  1  0
  1 47  1  0
  1 48  1  0
  2 45  1  0
  2  3  2  0
  3  4  1  0
  3 49  1  0
  4 41  1  0
  4  5  1  0
  4 50  1  1
  5 31  1  0
  5  6  1  1
  5  7  1  0
  6 51  1  0
  8  7  1  1
  8 35  1  0
  8 37  1  0
  8  9  1  0
  9 10  1  0
  9 11  1  0
  9 52  1  1
 10 53  1  0
 11 12  1  0
 11 54  1  0
 11 55  1  0
 12 13  1  0
 12 37  1  0
 12 56  1  6
 13 31  1  0
 13 14  1  6
 13 35  1  0
 14 15  1  0
 14 16  1  0
 14 57  1  6
 15 58  1  0
 15 59  1  0
 15 60  1  0
 16 17  1  0
 16 61  1  0
 16 62  1  0
 17 32  1  0
 17 18  1  0
 17 63  1  1
 18 19  1  0
 18 32  1  0
 18 64  1  6
 19 20  1  0
 19 21  1  0
 19 65  1  1
 20 66  1  0
 21 28  1  0
 21 22  2  0
 22 23  1  0
 22 24  1  0
 23 67  1  0
 23 68  1  0
 23 69  1  0
 24 25  1  1
 24 27  1  0
 24 31  1  0
 25 26  1  0
 25 70  1  0
 25 71  1  0
 26 72  1  0
 27 28  1  0
 28 29  1  0
 28 30  1  0
 29 73  1  0
 29 74  1  0
 29 75  1  0
 30 76  1  0
 30 77  1  0
 30 78  1  0
 31 79  1  6
 32 33  1  0
 32 34  1  0
 33 80  1  0
 33 81  1  0
 33 82  1  0
 34 83  1  0
 34 84  1  0
 34 85  1  0
 35 36  1  0
 35 86  1  1
 36 87  1  0
 37 38  1  1
 37 39  1  0
 38 88  1  0
 38 89  1  0
 38 90  1  0
 39 40  1  0
 39 41  1  0
 39 91  1  6
 40 92  1  0
 41 42  1  1
 41 43  1  0
 42 93  1  0
 43 44  2  0
 43 45  1  0
 45 94  1  0
 45 95  1  0
M  END
>  <i_m_ct_stereo_status>  (227) 
1

>  <s_m_source_file>  (227) 
/var/tmp/pbs.5076255.sched01/tmplj_yfvzq/807e0r74np.sdf

>  <i_m_source_file_index>  (227) 
11

>  <i_lp_mmshare_version>  (227) 
48012

>  <i_f3d_flags>  (227) 
0

>  <s_epik_input>  (227) 
W0NIM11DKD1bQ0hdMSlbQ0gyXUMoPU8pW0NAQF0oW09IXSkoW0NAQEhdMltPSF0pW0NASF0xW0NAXShPMykoW09IXSlbQ0BIXShbQ0BdNChbQ0BIXTVbT0hdKVtDQEhdKFtDQF0yKFtDQF0zNTYpW0NIM10pW0NIMl1bQ0BASF02W09IXSlbQ0BAXTcoW0NIMl1bT0hdKUMoW0NIM10pPUMoQyhPNykoW0NIM10pW0NIM10pW0NASF0oW09IXSlbQ0BASF04W0NASF0oQzgoW0NIM10pW0NIM10pW0NIMl1bQ0BASF00W0NIM10=

>  <s_epik_cmdline>  (227) 
J2VwaWtfcHl0aG9uJywgJy1waHQnLCAnMi4wJywgJy1waCcsICc3LjAnLCAnLXRuJywgJzgnLCAnLW1hJywgJzIwMCcsICctaW1hZScsICc8aW5maWxlLm1hZT4nLCAnLW9tYWUnLCAnPG91dGZpbGUubWFlPic=

>  <r_lp_tautomer_probability>  (227) 
1

>  <r_epik_Ionization_Penalty>  (227) 
5.27983e-06

>  <r_epik_Ionization_Penalty_Charging>  (227) 
0

>  <r_epik_Ionization_Penalty_Neutral>  (227) 
5.27983e-06

>  <r_epik_State_Penalty>  (227) 
-0

>  <r_epik_Charging_Adjusted_Penalty>  (227) 
0

>  <i_epik_Tot_Q>  (227) 
0

>  <i_epik_Tot_abs_Q>  (227) 
0

>  <s_lp_Force_Field>  (227) 
OPLS3e

>  <r_lp_Energy>  (227) 
414.211

>  <b_lp_Chiralities_Consistent>  (227) 
1

>  <s_lp_Variant>  (227) 
65:0-1

>  <s_i_glide_gridfile>  (227) 
pfpi4k_grid

>  <i_i_glide_lignum>  (227) 
11

>  <i_i_glide_rotatable_bonds>  (227) 
8

>  <r_i_docking_score>  (227) 
-2.87212

>  <r_i_glide_ligand_efficiency>  (227) 
-0.0638248

>  <r_i_glide_ligand_efficiency_sa>  (227) 
-0.227018

>  <r_i_glide_ligand_efficiency_ln>  (227) 
-0.597528

>  <r_i_glide_gscore>  (227) 
-2.87212

>  <r_i_glide_lipo>  (227) 
-0.00287488

>  <r_i_glide_hbond>  (227) 
-0.144096

>  <r_i_glide_metal>  (227) 
-0

>  <r_i_glide_rewards>  (227) 
-0.690256

>  <r_i_glide_evdw>  (227) 
-24.2112

>  <r_i_glide_ecoul>  (227) 
-5.67285

>  <r_i_glide_erotb>  (227) 
0.0531521

>  <r_i_glide_esite>  (227) 
-0.0265538

>  <r_i_glide_emodel>  (227) 
-39.0722

>  <r_i_glide_energy>  (227) 
-29.8841

>  <r_i_glide_einternal>  (227) 
3.52445

>  <r_i_glide_intrahb_reward>  (227) 
-0.5

>  <i_i_glide_confnum>  (227) 
4

>  <i_i_glide_posenum>  (227) 
20

>  <r_i_glide_eff_state_penalty>  (227) 
0

>  <ligand_id>  (227) 
65

>  <original_smiles>  (227) 
CC1=CC2C3(O)OC45C(O)CC(C6(C(C)CC7C(C(O)C8=C(C)C(CO)(OC8(C)C)C36)C7(C)C)C4O)C5(C)C(O)C2(O)C(=O)C1

>  <smiles>  (227) 
[H]OC([H])([H])C12OC(C([H])([H])[H])(C([H])([H])[H])C(=C1C([H])([H])[H])C([H])(O[H])C1([H])C([H])(C([H])([H])C([H])(C([H])([H])[H])C34C([H])(O[H])C56OC(O[H])(C7([H])C([H])=C(C([H])([H])[H])C([H])([H])C(=O)C7(O[H])C([H])(O[H])C5(C([H])([H])[H])C3([H])C([H])([H])C6([H])O[H])C24[H])C1(C([H])([H])[H])C([H])([H])[H]

$$$$
65:0:2
     RDKit          3D

 95102  0  0  1  0  0  0  0  0999 V2000
   -1.8912   -8.1942    2.9653 C   0  0  0  0  0  0  0  0  0  0  0  0
   -0.6192   -8.7733    3.5515 C   0  0  0  0  0  0  0  0  0  0  0  0
   -0.2117   -8.4799    4.8020 C   0  0  0  0  0  0  0  0  0  0  0  0
    1.0825   -9.0169    5.4202 C   0  0  2  0  0  0  0  0  0  0  0  0
    1.7926   -8.0140    6.4768 C   0  0  1  0  0  0  0  0  0  0  0  0
    1.1895   -8.3620    7.7018 O   0  0  0  0  0  0  0  0  0  0  0  0
    3.0633   -8.4884    6.4016 O   0  0  0  0  0  0  0  0  0  0  0  0
    3.6688   -7.7526    5.3648 C   0  0  2  0  0  0  0  0  0  0  0  0
    4.7499   -7.0177    6.3352 C   0  0  1  0  0  0  0  0  0  0  0  0
    5.6422   -7.8422    7.0740 O   0  0  0  0  0  0  0  0  0  0  0  0
    5.4489   -6.1043    5.3976 C   0  0  0  0  0  0  0  0  0  0  0  0
    4.3933   -6.4658    4.3973 C   0  0  2  0  0  0  0  0  0  0  0  0
    2.9298   -5.7682    4.9887 C   0  0  2  0  0  0  0  0  0  0  0  0
    2.5228   -4.4086    4.2204 C   0  0  1  0  0  0  0  0  0  0  0  0
    1.0159   -4.2220    3.9871 C   0  0  0  0  0  0  0  0  0  0  0  0
    3.3308   -3.0695    4.3626 C   0  0  0  0  0  0  0  0  0  0  0  0
    2.9579   -1.9754    5.3842 C   0  0  2  0  0  0  0  0  0  0  0  0
    1.5319   -1.6505    5.8140 C   0  0  1  0  0  0  0  0  0  0  0  0
    1.2938   -1.7955    7.3160 C   0  0  1  0  0  0  0  0  0  0  0  0
    0.1056   -1.1120    7.6679 O   0  0  0  0  0  0  0  0  0  0  0  0
    1.2538   -3.2944    7.6477 C   0  0  0  0  0  0  0  0  0  0  0  0
    2.3046   -4.1162    7.7038 C   0  0  0  0  0  0  0  0  0  0  0  0
    3.7736   -3.7408    7.7808 C   0  0  0  0  0  0  0  0  0  0  0  0
    1.8657   -5.5566    7.7707 C   0  0  1  0  0  0  0  0  0  0  0  0
    2.3772   -6.1985    9.1217 C   0  0  0  0  0  0  0  0  0  0  0  0
    3.6406   -6.8361    9.1507 O   0  0  0  0  0  0  0  0  0  0  0  0
    0.4529   -5.4444    8.0530 O   0  0  0  0  0  0  0  0  0  0  0  0
    0.0046   -4.0841    7.9993 C   0  0  0  0  0  0  0  0  0  0  0  0
   -0.4861   -3.7242    9.4186 C   0  0  0  0  0  0  0  0  0  0  0  0
   -1.1636   -4.0271    6.9959 C   0  0  0  0  0  0  0  0  0  0  0  0
    1.9192   -6.3079    6.3243 C   0  0  2  0  0  0  0  0  0  0  0  0
    2.3512   -0.6126    5.0739 C   0  0  0  0  0  0  0  0  0  0  0  0
    2.8227    0.6311    5.8142 C   0  0  0  0  0  0  0  0  0  0  0  0
    1.9836   -0.2510    3.6421 C   0  0  0  0  0  0  0  0  0  0  0  0
    2.5834   -6.9106    4.3067 C   0  0  1  0  0  0  0  0  0  0  0  0
    2.5132   -6.8036    2.8425 O   0  0  0  0  0  0  0  0  0  0  0  0
    4.4049   -8.1833    4.2483 C   0  0  1  0  0  0  0  0  0  0  0  0
    5.8164   -8.8693    4.3732 C   0  0  0  0  0  0  0  0  0  0  0  0
    3.3468   -9.2924    3.6046 C   0  0  1  0  0  0  0  0  0  0  0  0
    4.0870  -10.3894    3.0735 O   0  0  0  0  0  0  0  0  0  0  0  0
    2.0670   -9.8919    4.4484 C   0  0  1  0  0  0  0  0  0  0  0  0
    2.6220  -10.9019    5.2950 O   0  0  0  0  0  0  0  0  0  0  0  0
    1.1142  -10.5936    3.4430 C   0  0  0  0  0  0  0  0  0  0  0  0
    1.0868  -11.8054    3.2919 O   0  0  0  0  0  0  0  0  0  0  0  0
    0.1787   -9.6856    2.6314 C   0  0  0  0  0  0  0  0  0  0  0  0
   -1.6537   -7.6057    2.0793 H   0  0  0  0  0  0  0  0  0  0  0  0
   -2.3976   -7.5451    3.6808 H   0  0  0  0  0  0  0  0  0  0  0  0
   -2.5797   -8.9906    2.6787 H   0  0  0  0  0  0  0  0  0  0  0  0
   -0.8047   -7.8286    5.4256 H   0  0  0  0  0  0  0  0  0  0  0  0
    0.6313   -9.8049    6.0340 H   0  0  0  0  0  0  0  0  0  0  0  0
    1.2216   -9.3047    7.7705 H   0  0  0  0  0  0  0  0  0  0  0  0
    4.3003   -6.3567    7.0440 H   0  0  0  0  0  0  0  0  0  0  0  0
    6.0609   -8.4476    6.4800 H   0  0  0  0  0  0  0  0  0  0  0  0
    5.4332   -5.0710    5.7027 H   0  0  0  0  0  0  0  0  0  0  0  0
    6.4747   -6.3411    5.1049 H   0  0  0  0  0  0  0  0  0  0  0  0
    4.7174   -6.0008    3.4585 H   0  0  0  0  0  0  0  0  0  0  0  0
    2.8595   -4.5773    3.2011 H   0  0  0  0  0  0  0  0  0  0  0  0
    0.5039   -4.0385    4.9179 H   0  0  0  0  0  0  0  0  0  0  0  0
    0.5555   -5.0952    3.5292 H   0  0  0  0  0  0  0  0  0  0  0  0
    0.8189   -3.3794    3.3246 H   0  0  0  0  0  0  0  0  0  0  0  0
    4.3749   -3.3250    4.5376 H   0  0  0  0  0  0  0  0  0  0  0  0
    3.3572   -2.5875    3.3861 H   0  0  0  0  0  0  0  0  0  0  0  0
    3.7630   -1.8327    6.0957 H   0  0  0  0  0  0  0  0  0  0  0  0
    0.6772   -1.9648    5.2259 H   0  0  0  0  0  0  0  0  0  0  0  0
    2.1101   -1.3382    7.8762 H   0  0  0  0  0  0  0  0  0  0  0  0
    0.2687   -0.1837    7.5716 H   0  0  0  0  0  0  0  0  0  0  0  0
    4.3093   -4.3928    8.4673 H   0  0  0  0  0  0  0  0  0  0  0  0
    3.9067   -2.7225    8.1486 H   0  0  0  0  0  0  0  0  0  0  0  0
    4.2413   -3.8246    6.8120 H   0  0  0  0  0  0  0  0  0  0  0  0
    2.3976   -5.4206    9.8903 H   0  0  0  0  0  0  0  0  0  0  0  0
    1.6549   -6.9072    9.5314 H   0  0  0  0  0  0  0  0  0  0  0  0
    3.7125   -7.4645    8.4386 H   0  0  0  0  0  0  0  0  0  0  0  0
   -0.9050   -2.7209    9.4777 H   0  0  0  0  0  0  0  0  0  0  0  0
    0.3285   -3.7631   10.1413 H   0  0  0  0  0  0  0  0  0  0  0  0
   -1.2585   -4.4155    9.7581 H   0  0  0  0  0  0  0  0  0  0  0  0
   -1.3365   -3.0300    6.5934 H   0  0  0  0  0  0  0  0  0  0  0  0
   -2.0933   -4.3516    7.4641 H   0  0  0  0  0  0  0  0  0  0  0  0
   -1.0112   -4.7116    6.1677 H   0  0  0  0  0  0  0  0  0  0  0  0
    0.9233   -6.0454    5.9761 H   0  0  0  0  0  0  0  0  0  0  0  0
    2.0218    1.3703    5.8620 H   0  0  0  0  0  0  0  0  0  0  0  0
    3.6776    1.0838    5.3092 H   0  0  0  0  0  0  0  0  0  0  0  0
    3.1247    0.3922    6.8332 H   0  0  0  0  0  0  0  0  0  0  0  0
    1.2189    0.5265    3.6222 H   0  0  0  0  0  0  0  0  0  0  0  0
    1.5931   -1.1180    3.1106 H   0  0  0  0  0  0  0  0  0  0  0  0
    2.8594    0.1130    3.1017 H   0  0  0  0  0  0  0  0  0  0  0  0
    1.5212   -7.0236    4.2891 H   0  0  0  0  0  0  0  0  0  0  0  0
    2.2833   -7.6438    2.4831 H   0  0  0  0  0  0  0  0  0  0  0  0
    6.2053   -9.1166    3.3827 H   0  0  0  0  0  0  0  0  0  0  0  0
    5.7472   -9.8018    4.9384 H   0  0  0  0  0  0  0  0  0  0  0  0
    6.6302   -8.3166    4.8206 H   0  0  0  0  0  0  0  0  0  0  0  0
    2.9972   -8.9906    2.6244 H   0  0  0  0  0  0  0  0  0  0  0  0
    3.5640  -10.8804    2.4534 H   0  0  0  0  0  0  0  0  0  0  0  0
    1.9436  -11.3300    5.8064 H   0  0  0  0  0  0  0  0  0  0  0  0
   -0.5160  -10.3232    2.0823 H   0  0  0  0  0  0  0  0  0  0  0  0
    0.7278   -9.1025    1.8940 H   0  0  0  0  0  0  0  0  0  0  0  0
  1  2  1  0
  1 46  1  0
  1 47  1  0
  1 48  1  0
  2 45  1  0
  2  3  2  0
  3  4  1  0
  3 49  1  0
  4 41  1  0
  4  5  1  0
  4 50  1  1
  5 31  1  0
  5  6  1  1
  5  7  1  0
  6 51  1  0
  8  7  1  1
  8 35  1  0
  8 37  1  0
  8  9  1  0
  9 10  1  0
  9 11  1  0
  9 52  1  1
 10 53  1  0
 11 12  1  0
 11 54  1  0
 11 55  1  0
 12 13  1  0
 12 37  1  0
 12 56  1  6
 13 31  1  0
 13 14  1  6
 13 35  1  0
 14 15  1  0
 14 16  1  0
 14 57  1  6
 15 58  1  0
 15 59  1  0
 15 60  1  0
 16 17  1  0
 16 61  1  0
 16 62  1  0
 17 32  1  0
 17 18  1  0
 17 63  1  1
 18 19  1  0
 18 32  1  0
 18 64  1  6
 19 20  1  0
 19 21  1  0
 19 65  1  1
 20 66  1  0
 21 28  1  0
 21 22  2  0
 22 23  1  0
 22 24  1  0
 23 67  1  0
 23 68  1  0
 23 69  1  0
 24 25  1  1
 24 27  1  0
 24 31  1  0
 25 26  1  0
 25 70  1  0
 25 71  1  0
 26 72  1  0
 27 28  1  0
 28 29  1  0
 28 30  1  0
 29 73  1  0
 29 74  1  0
 29 75  1  0
 30 76  1  0
 30 77  1  0
 30 78  1  0
 31 79  1  6
 32 33  1  0
 32 34  1  0
 33 80  1  0
 33 81  1  0
 33 82  1  0
 34 83  1  0
 34 84  1  0
 34 85  1  0
 35 36  1  0
 35 86  1  1
 36 87  1  0
 37 38  1  1
 37 39  1  0
 38 88  1  0
 38 89  1  0
 38 90  1  0
 39 40  1  0
 39 41  1  0
 39 91  1  6
 40 92  1  0
 41 42  1  1
 41 43  1  0
 42 93  1  0
 43 44  2  0
 43 45  1  0
 45 94  1  0
 45 95  1  0
M  END
>  <i_m_ct_stereo_status>  (228) 
1

>  <s_m_source_file>  (228) 
/var/tmp/pbs.5076255.sched01/tmplj_yfvzq/807e0r74np.sdf

>  <i_m_source_file_index>  (228) 
11

>  <i_lp_mmshare_version>  (228) 
48012

>  <i_f3d_flags>  (228) 
0

>  <s_epik_input>  (228) 
W0NIM11DKD1bQ0hdMSlbQ0gyXUMoPU8pW0NAQF0oW09IXSkoW0NAQEhdMltPSF0pW0NASF0xW0NAXShPMykoW09IXSlbQ0BIXShbQ0BdNChbQ0BIXTVbT0hdKVtDQEhdKFtDQF0yKFtDQF0zNTYpW0NIM10pW0NIMl1bQ0BASF02W09IXSlbQ0BAXTcoW0NIMl1bT0hdKUMoW0NIM10pPUMoQyhPNykoW0NIM10pW0NIM10pW0NASF0oW09IXSlbQ0BASF04W0NASF0oQzgoW0NIM10pW0NIM10pW0NIMl1bQ0BASF00W0NIM10=

>  <s_epik_cmdline>  (228) 
J2VwaWtfcHl0aG9uJywgJy1waHQnLCAnMi4wJywgJy1waCcsICc3LjAnLCAnLXRuJywgJzgnLCAnLW1hJywgJzIwMCcsICctaW1hZScsICc8aW5maWxlLm1hZT4nLCAnLW9tYWUnLCAnPG91dGZpbGUubWFlPic=

>  <r_lp_tautomer_probability>  (228) 
1

>  <r_epik_Ionization_Penalty>  (228) 
5.27983e-06

>  <r_epik_Ionization_Penalty_Charging>  (228) 
0

>  <r_epik_Ionization_Penalty_Neutral>  (228) 
5.27983e-06

>  <r_epik_State_Penalty>  (228) 
-0

>  <r_epik_Charging_Adjusted_Penalty>  (228) 
0

>  <i_epik_Tot_Q>  (228) 
0

>  <i_epik_Tot_abs_Q>  (228) 
0

>  <s_lp_Force_Field>  (228) 
OPLS3e

>  <r_lp_Energy>  (228) 
414.211

>  <b_lp_Chiralities_Consistent>  (228) 
1

>  <s_lp_Variant>  (228) 
65:0-1

>  <s_i_glide_gridfile>  (228) 
pfpi4k_grid

>  <i_i_glide_lignum>  (228) 
11

>  <i_i_glide_rotatable_bonds>  (228) 
8

>  <r_i_docking_score>  (228) 
-2.58195

>  <r_i_glide_ligand_efficiency>  (228) 
-0.0573766

>  <r_i_glide_ligand_efficiency_sa>  (228) 
-0.204082

>  <r_i_glide_ligand_efficiency_ln>  (228) 
-0.53716

>  <r_i_glide_gscore>  (228) 
-2.58195

>  <r_i_glide_lipo>  (228) 
0

>  <r_i_glide_hbond>  (228) 
-0.00321235

>  <r_i_glide_metal>  (228) 
-0

>  <r_i_glide_rewards>  (228) 
-0.71853

>  <r_i_glide_evdw>  (228) 
-25.9293

>  <r_i_glide_ecoul>  (228) 
-4.02748

>  <r_i_glide_erotb>  (228) 
0.0531521

>  <r_i_glide_esite>  (228) 
-0.0127666

>  <r_i_glide_emodel>  (228) 
-38.8935

>  <r_i_glide_energy>  (228) 
-29.9568

>  <r_i_glide_einternal>  (228) 
3.1043

>  <r_i_glide_intrahb_reward>  (228) 
-0.5

>  <i_i_glide_confnum>  (228) 
1

>  <i_i_glide_posenum>  (228) 
1

>  <r_i_glide_eff_state_penalty>  (228) 
0

>  <ligand_id>  (228) 
65

>  <original_smiles>  (228) 
CC1=CC2C3(O)OC45C(O)CC(C6(C(C)CC7C(C(O)C8=C(C)C(CO)(OC8(C)C)C36)C7(C)C)C4O)C5(C)C(O)C2(O)C(=O)C1

>  <smiles>  (228) 
[H]OC([H])([H])C12OC(C([H])([H])[H])(C([H])([H])[H])C(=C1C([H])([H])[H])C([H])(O[H])C1([H])C([H])(C([H])([H])C([H])(C([H])([H])[H])C34C([H])(O[H])C56OC(O[H])(C7([H])C([H])=C(C([H])([H])[H])C([H])([H])C(=O)C7(O[H])C([H])(O[H])C5(C([H])([H])[H])C3([H])C([H])([H])C6([H])O[H])C24[H])C1(C([H])([H])[H])C([H])([H])[H]

$$$$
68:0:0
     RDKit          3D

 62 67  0  0  1  0  0  0  0  0999 V2000
    2.2028   -3.4081   -2.4756 C   0  0  0  0  0  0  0  0  0  0  0  0
    3.2952   -2.5430   -2.0932 N   0  0  0  0  0  0  0  0  0  0  0  0
    3.6386   -1.5069   -2.8995 N   0  0  0  0  0  0  0  0  0  0  0  0
    4.6097   -0.8569   -2.2627 C   0  0  0  0  0  0  0  0  0  0  0  0
    4.9678   -1.5268   -1.0650 C   0  0  0  0  0  0  0  0  0  0  0  0
    4.1037   -2.5329   -0.9735 C   0  0  0  0  0  0  0  0  0  0  0  0
    4.2680   -3.3532    0.2493 C   0  0  2  0  0  0  0  0  0  0  0  0
    3.0201   -3.8226    0.9964 C   0  0  0  0  0  0  0  0  0  0  0  0
    3.3742   -4.0790    2.4709 C   0  0  0  0  0  0  0  0  0  0  0  0
    3.8257   -2.7988    3.2464 C   0  0  1  0  0  0  0  0  0  0  0  0
    4.9621   -3.2951    4.1872 C   0  0  0  0  0  0  0  0  0  0  0  0
    4.4502   -1.7335    2.2806 C   0  0  2  0  0  0  0  0  0  0  0  0
    3.4577   -0.6247    1.8256 C   0  0  0  0  0  0  0  0  0  0  0  0
    3.3108    0.5553    2.8081 C   0  0  0  0  0  0  0  0  0  0  0  0
    2.5558    0.3349    4.1428 C   0  0  2  0  0  0  0  0  0  0  0  0
    3.0336   -0.9024    4.9202 C   0  0  1  0  0  0  0  0  0  0  0  0
    2.5091   -0.8547    6.3753 C   0  0  0  0  0  0  0  0  0  0  0  0
    0.9852   -0.6959    6.4695 C   0  0  0  0  0  0  0  0  0  0  0  0
    0.4722    0.4196    5.5508 C   0  0  0  0  0  0  0  0  0  0  0  0
    1.0069    0.3511    4.0900 C   0  0  1  0  0  0  0  0  0  0  0  0
    0.4640    1.6058    3.3700 C   0  0  0  0  0  0  0  0  0  0  0  0
    0.5057   -0.9029    3.3477 C   0  0  0  0  0  0  0  0  0  0  0  0
    1.1950   -2.2530    3.6861 C   0  0  0  0  0  0  0  0  0  0  0  0
    2.6752   -2.2300    4.1894 C   0  0  1  0  0  0  0  0  0  0  0  0
    5.2106   -2.4236    1.0941 C   0  0  2  0  0  0  0  0  0  0  0  0
    5.8922   -1.4235    0.1041 C   0  0  0  0  0  0  0  0  0  0  0  0
    2.0288   -4.1752   -1.7261 H   0  0  0  0  0  0  0  0  0  0  0  0
    2.4264   -3.8611   -3.4386 H   0  0  0  0  0  0  0  0  0  0  0  0
    1.3000   -2.8123   -2.5854 H   0  0  0  0  0  0  0  0  0  0  0  0
    5.0081    0.0498   -2.6933 H   0  0  0  0  0  0  0  0  0  0  0  0
    4.8351   -4.2387   -0.0592 H   0  0  0  0  0  0  0  0  0  0  0  0
    2.1979   -3.1090    0.8865 H   0  0  0  0  0  0  0  0  0  0  0  0
    2.6609   -4.7377    0.5496 H   0  0  0  0  0  0  0  0  0  0  0  0
    2.5495   -4.5529    2.9749 H   0  0  0  0  0  0  0  0  0  0  0  0
    4.1678   -4.8422    2.4963 H   0  0  0  0  0  0  0  0  0  0  0  0
    5.4193   -2.4994    4.7804 H   0  0  0  0  0  0  0  0  0  0  0  0
    5.7805   -3.7524    3.6283 H   0  0  0  0  0  0  0  0  0  0  0  0
    4.6156   -4.0600    4.8885 H   0  0  0  0  0  0  0  0  0  0  0  0
    5.2225   -1.1983    2.8367 H   0  0  0  0  0  0  0  0  0  0  0  0
    3.8152   -0.1585    0.9147 H   0  0  0  0  0  0  0  0  0  0  0  0
    2.4987   -1.0391    1.5297 H   0  0  0  0  0  0  0  0  0  0  0  0
    4.3095    0.9138    3.0609 H   0  0  0  0  0  0  0  0  0  0  0  0
    2.8666    1.3908    2.2709 H   0  0  0  0  0  0  0  0  0  0  0  0
    2.8308    1.1984    4.7399 H   0  0  0  0  0  0  0  0  0  0  0  0
    4.1103   -0.8318    5.0032 H   0  0  0  0  0  0  0  0  0  0  0  0
    2.8285   -1.7369    6.9277 H   0  0  0  0  0  0  0  0  0  0  0  0
    2.9754   -0.0105    6.8783 H   0  0  0  0  0  0  0  0  0  0  0  0
    0.4921   -1.6302    6.2300 H   0  0  0  0  0  0  0  0  0  0  0  0
    0.7056   -0.4812    7.5003 H   0  0  0  0  0  0  0  0  0  0  0  0
   -0.6196    0.4374    5.5630 H   0  0  0  0  0  0  0  0  0  0  0  0
    0.7830    1.3674    5.9824 H   0  0  0  0  0  0  0  0  0  0  0  0
   -0.6196    1.6894    3.4788 H   0  0  0  0  0  0  0  0  0  0  0  0
    0.6607    1.5879    2.2963 H   0  0  0  0  0  0  0  0  0  0  0  0
    0.9031    2.5203    3.7667 H   0  0  0  0  0  0  0  0  0  0  0  0
   -0.5536   -1.0095    3.5686 H   0  0  0  0  0  0  0  0  0  0  0  0
    0.5478   -0.7267    2.2640 H   0  0  0  0  0  0  0  0  0  0  0  0
    0.5763   -2.7754    4.4292 H   0  0  0  0  0  0  0  0  0  0  0  0
    1.0855   -2.8707    2.8012 H   0  0  0  0  0  0  0  0  0  0  0  0
    2.6454   -2.9783    4.9727 H   0  0  0  0  0  0  0  0  0  0  0  0
    5.9969   -3.0336    1.5420 H   0  0  0  0  0  0  0  0  0  0  0  0
    6.8699   -1.8039   -0.1732 H   0  0  0  0  0  0  0  0  0  0  0  0
    6.0216   -0.4082    0.4861 H   0  0  0  0  0  0  0  0  0  0  0  0
  1  2  1  0
  1 27  1  0
  1 28  1  0
  1 29  1  0
  2  6  1  0
  2  3  1  0
  3  4  2  0
  4  5  1  0
  4 30  1  0
  5 26  1  0
  5  6  2  0
  6  7  1  0
  7 25  1  0
  7  8  1  0
  7 31  1  6
  8  9  1  0
  8 32  1  0
  8 33  1  0
  9 10  1  0
  9 34  1  0
  9 35  1  0
 10 24  1  0
 10 11  1  1
 10 12  1  0
 11 36  1  0
 11 37  1  0
 11 38  1  0
 12 13  1  0
 12 25  1  0
 12 39  1  1
 13 14  1  0
 13 40  1  0
 13 41  1  0
 14 15  1  0
 14 42  1  0
 14 43  1  0
 15 20  1  0
 15 16  1  0
 15 44  1  1
 16 24  1  0
 16 17  1  0
 16 45  1  1
 17 18  1  0
 17 46  1  0
 17 47  1  0
 18 19  1  0
 18 48  1  0
 18 49  1  0
 19 20  1  0
 19 50  1  0
 19 51  1  0
 20 21  1  6
 20 22  1  0
 21 52  1  0
 21 53  1  0
 21 54  1  0
 22 23  1  0
 22 55  1  0
 22 56  1  0
 23 24  1  0
 23 57  1  0
 23 58  1  0
 24 59  1  1
 25 26  1  0
 25 60  1  1
 26 61  1  0
 26 62  1  0
M  END
>  <i_m_ct_stereo_status>  (229) 
1

>  <s_m_source_file>  (229) 
/var/tmp/pbs.5076255.sched01/tmplj_yfvzq/807e0r74np.sdf

>  <i_m_source_file_index>  (229) 
14

>  <i_lp_mmshare_version>  (229) 
48012

>  <i_f3d_flags>  (229) 
0

>  <s_epik_input>  (229) 
W0NIM11uMW5bY0hdYyhbQ0gyXTIpYzFbQ0BIXShbQ0gyXVtDSDJdMylbQ0BASF0yW0NASF0oW0NAXTM0W0NIM10pW0NIMl1bQ0gyXVtDQEBIXTVbQ0BASF02W0NASF00W0NIMl1bQ0gyXVtDQEBdNShbQ0gzXSlbQ0gyXVtDSDJdW0NIMl02

>  <s_epik_cmdline>  (229) 
J2VwaWtfcHl0aG9uJywgJy1waHQnLCAnMi4wJywgJy1waCcsICc3LjAnLCAnLXRuJywgJzgnLCAnLW1hJywgJzIwMCcsICctaW1hZScsICc8aW5maWxlLm1hZT4nLCAnLW9tYWUnLCAnPG91dGZpbGUubWFlPic=

>  <r_lp_tautomer_probability>  (229) 
1

>  <r_epik_Ionization_Penalty>  (229) 
0.0485

>  <r_epik_Ionization_Penalty_Charging>  (229) 
0

>  <r_epik_Ionization_Penalty_Neutral>  (229) 
0.0485

>  <r_epik_State_Penalty>  (229) 
0.0413692

>  <r_epik_Charging_Adjusted_Penalty>  (229) 
0.0413692

>  <i_epik_Tot_Q>  (229) 
0

>  <i_epik_Tot_abs_Q>  (229) 
0

>  <s_lp_Force_Field>  (229) 
OPLS3e

>  <r_lp_Energy>  (229) 
78.8548

>  <b_lp_Chiralities_Consistent>  (229) 
1

>  <s_lp_Variant>  (229) 
68:0-1

>  <s_i_glide_gridfile>  (229) 
pfpi4k_grid

>  <i_i_glide_lignum>  (229) 
14

>  <i_i_glide_rotatable_bonds>  (229) 
0

>  <r_i_docking_score>  (229) 
-2.81462

>  <r_i_glide_ligand_efficiency>  (229) 
-0.108255

>  <r_i_glide_ligand_efficiency_sa>  (229) 
-0.320704

>  <r_i_glide_ligand_efficiency_ln>  (229) 
-0.661005

>  <r_i_glide_gscore>  (229) 
-2.81462

>  <r_i_glide_lipo>  (229) 
-0.459928

>  <r_i_glide_hbond>  (229) 
0

>  <r_i_glide_metal>  (229) 
-0

>  <r_i_glide_rewards>  (229) 
-1.0053

>  <r_i_glide_evdw>  (229) 
-22.7459

>  <r_i_glide_ecoul>  (229) 
-1.16872

>  <r_i_glide_erotb>  (229) 
0

>  <r_i_glide_esite>  (229) 
-0.0367924

>  <r_i_glide_emodel>  (229) 
-27.58

>  <r_i_glide_energy>  (229) 
-23.9146

>  <r_i_glide_einternal>  (229) 
0

>  <r_i_glide_intrahb_reward>  (229) 
-0

>  <i_i_glide_confnum>  (229) 
1

>  <i_i_glide_posenum>  (229) 
13

>  <r_i_glide_eff_state_penalty>  (229) 
0

>  <ligand_id>  (229) 
68

>  <original_smiles>  (229) 
Cn1ncc2c1C1CCC3(C)C(CCC4C5CCCC4(C)CCC53)C1C2

>  <smiles>  (229) 
[H]c1nn(C([H])([H])[H])c2c1C([H])([H])C1([H])C2([H])C([H])([H])C([H])([H])C2(C([H])([H])[H])C1([H])C([H])([H])C([H])([H])C1([H])C3([H])C([H])([H])C([H])([H])C([H])([H])C1(C([H])([H])[H])C([H])([H])C([H])([H])C32[H]

$$$$
68:0:1
     RDKit          3D

 62 67  0  0  1  0  0  0  0  0999 V2000
    1.9892   -3.4252   -3.2689 C   0  0  0  0  0  0  0  0  0  0  0  0
    3.0586   -2.5237   -2.9478 N   0  0  0  0  0  0  0  0  0  0  0  0
    3.2285   -1.3992   -3.6859 N   0  0  0  0  0  0  0  0  0  0  0  0
    4.2256   -0.7363   -3.1129 C   0  0  0  0  0  0  0  0  0  0  0  0
    4.7878   -1.4908   -2.0482 C   0  0  0  0  0  0  0  0  0  0  0  0
    4.0106   -2.5687   -1.9479 C   0  0  0  0  0  0  0  0  0  0  0  0
    4.3991   -3.4913   -0.8590 C   0  0  2  0  0  0  0  0  0  0  0  0
    3.2964   -4.1220   -0.0037 C   0  0  0  0  0  0  0  0  0  0  0  0
    3.8670   -4.4920    1.3735 C   0  0  0  0  0  0  0  0  0  0  0  0
    4.3452   -3.2660    2.2096 C   0  0  1  0  0  0  0  0  0  0  0  0
    5.6251   -3.7692    2.9198 C   0  0  0  0  0  0  0  0  0  0  0  0
    4.7723   -2.0684    1.2910 C   0  0  2  0  0  0  0  0  0  0  0  0
    3.6655   -0.9914    1.0918 C   0  0  0  0  0  0  0  0  0  0  0  0
    3.5956    0.0744    2.2049 C   0  0  0  0  0  0  0  0  0  0  0  0
    3.0493   -0.3273    3.5980 C   0  0  2  0  0  0  0  0  0  0  0  0
    3.7013   -1.6016    4.1708 C   0  0  1  0  0  0  0  0  0  0  0  0
    3.3849   -1.7325    5.6786 C   0  0  0  0  0  0  0  0  0  0  0  0
    1.8828   -1.6943    5.9953 C   0  0  0  0  0  0  0  0  0  0  0  0
    1.1829   -0.5333    5.2737 C   0  0  0  0  0  0  0  0  0  0  0  0
    1.5066   -0.4221    3.7568 C   0  0  1  0  0  0  0  0  0  0  0  0
    0.7958    0.8535    3.2523 C   0  0  0  0  0  0  0  0  0  0  0  0
    0.9820   -1.6341    2.9594 C   0  0  0  0  0  0  0  0  0  0  0  0
    1.7903   -2.9542    3.0589 C   0  0  0  0  0  0  0  0  0  0  0  0
    3.3196   -2.8762    3.3588 C   0  0  1  0  0  0  0  0  0  0  0  0
    5.3922   -2.5871   -0.0521 C   0  0  2  0  0  0  0  0  0  0  0  0
    5.8597   -1.4540   -1.0114 C   0  0  0  0  0  0  0  0  0  0  0  0
    1.9402   -4.2570   -2.5746 H   0  0  0  0  0  0  0  0  0  0  0  0
    2.1186   -3.7856   -4.2884 H   0  0  0  0  0  0  0  0  0  0  0  0
    1.0397   -2.8918   -3.2059 H   0  0  0  0  0  0  0  0  0  0  0  0
    4.5322    0.2174   -3.5223 H   0  0  0  0  0  0  0  0  0  0  0  0
    4.9673   -4.3030   -1.3284 H   0  0  0  0  0  0  0  0  0  0  0  0
    2.4313   -3.4592    0.0777 H   0  0  0  0  0  0  0  0  0  0  0  0
    2.9294   -5.0152   -0.4900 H   0  0  0  0  0  0  0  0  0  0  0  0
    3.1546   -5.0800    1.9321 H   0  0  0  0  0  0  0  0  0  0  0  0
    4.6977   -5.1912    1.2046 H   0  0  0  0  0  0  0  0  0  0  0  0
    6.0714   -2.9782    3.5146 H   0  0  0  0  0  0  0  0  0  0  0  0
    6.3928   -4.1019    2.2175 H   0  0  0  0  0  0  0  0  0  0  0  0
    5.4347   -4.6158    3.5867 H   0  0  0  0  0  0  0  0  0  0  0  0
    5.5843   -1.5381    1.7885 H   0  0  0  0  0  0  0  0  0  0  0  0
    3.8608   -0.4157    0.1965 H   0  0  0  0  0  0  0  0  0  0  0  0
    2.7006   -1.4408    0.8876 H   0  0  0  0  0  0  0  0  0  0  0  0
    4.6002    0.4779    2.3496 H   0  0  0  0  0  0  0  0  0  0  0  0
    3.0296    0.9234    1.8237 H   0  0  0  0  0  0  0  0  0  0  0  0
    3.3544    0.4929    4.2436 H   0  0  0  0  0  0  0  0  0  0  0  0
    4.7744   -1.4526    4.1166 H   0  0  0  0  0  0  0  0  0  0  0  0
    3.8301   -2.6395    6.0883 H   0  0  0  0  0  0  0  0  0  0  0  0
    3.8679   -0.9086    6.2020 H   0  0  0  0  0  0  0  0  0  0  0  0
    1.4143   -2.6347    5.7261 H   0  0  0  0  0  0  0  0  0  0  0  0
    1.7374   -1.6010    7.0691 H   0  0  0  0  0  0  0  0  0  0  0  0
    0.1059   -0.5975    5.4361 H   0  0  0  0  0  0  0  0  0  0  0  0
    1.4942    0.3885    5.7607 H   0  0  0  0  0  0  0  0  0  0  0  0
   -0.2631    0.8454    3.5168 H   0  0  0  0  0  0  0  0  0  0  0  0
    0.8399    0.9526    2.1683 H   0  0  0  0  0  0  0  0  0  0  0  0
    1.2317    1.7528    3.6829 H   0  0  0  0  0  0  0  0  0  0  0  0
   -0.0335   -1.8421    3.2910 H   0  0  0  0  0  0  0  0  0  0  0  0
    0.8645   -1.3543    1.9074 H   0  0  0  0  0  0  0  0  0  0  0  0
    1.3150   -3.5863    3.8171 H   0  0  0  0  0  0  0  0  0  0  0  0
    1.6027   -3.4946    2.1386 H   0  0  0  0  0  0  0  0  0  0  0  0
    3.4457   -3.6971    4.0587 H   0  0  0  0  0  0  0  0  0  0  0  0
    6.2719   -3.1759    0.2154 H   0  0  0  0  0  0  0  0  0  0  0  0
    6.7981   -1.7701   -1.4578 H   0  0  0  0  0  0  0  0  0  0  0  0
    5.9963   -0.4796   -0.5374 H   0  0  0  0  0  0  0  0  0  0  0  0
  1  2  1  0
  1 27  1  0
  1 28  1  0
  1 29  1  0
  2  6  1  0
  2  3  1  0
  3  4  2  0
  4  5  1  0
  4 30  1  0
  5 26  1  0
  5  6  2  0
  6  7  1  0
  7 25  1  0
  7  8  1  0
  7 31  1  6
  8  9  1  0
  8 32  1  0
  8 33  1  0
  9 10  1  0
  9 34  1  0
  9 35  1  0
 10 24  1  0
 10 11  1  1
 10 12  1  0
 11 36  1  0
 11 37  1  0
 11 38  1  0
 12 13  1  0
 12 25  1  0
 12 39  1  1
 13 14  1  0
 13 40  1  0
 13 41  1  0
 14 15  1  0
 14 42  1  0
 14 43  1  0
 15 20  1  0
 15 16  1  0
 15 44  1  1
 16 24  1  0
 16 17  1  0
 16 45  1  1
 17 18  1  0
 17 46  1  0
 17 47  1  0
 18 19  1  0
 18 48  1  0
 18 49  1  0
 19 20  1  0
 19 50  1  0
 19 51  1  0
 20 21  1  6
 20 22  1  0
 21 52  1  0
 21 53  1  0
 21 54  1  0
 22 23  1  0
 22 55  1  0
 22 56  1  0
 23 24  1  0
 23 57  1  0
 23 58  1  0
 24 59  1  1
 25 26  1  0
 25 60  1  1
 26 61  1  0
 26 62  1  0
M  END
>  <i_m_ct_stereo_status>  (230) 
1

>  <s_m_source_file>  (230) 
/var/tmp/pbs.5076255.sched01/tmplj_yfvzq/807e0r74np.sdf

>  <i_m_source_file_index>  (230) 
14

>  <i_lp_mmshare_version>  (230) 
48012

>  <i_f3d_flags>  (230) 
0

>  <s_epik_input>  (230) 
W0NIM11uMW5bY0hdYyhbQ0gyXTIpYzFbQ0BIXShbQ0gyXVtDSDJdMylbQ0BASF0yW0NASF0oW0NAXTM0W0NIM10pW0NIMl1bQ0gyXVtDQEBIXTVbQ0BASF02W0NASF00W0NIMl1bQ0gyXVtDQEBdNShbQ0gzXSlbQ0gyXVtDSDJdW0NIMl02

>  <s_epik_cmdline>  (230) 
J2VwaWtfcHl0aG9uJywgJy1waHQnLCAnMi4wJywgJy1waCcsICc3LjAnLCAnLXRuJywgJzgnLCAnLW1hJywgJzIwMCcsICctaW1hZScsICc8aW5maWxlLm1hZT4nLCAnLW9tYWUnLCAnPG91dGZpbGUubWFlPic=

>  <r_lp_tautomer_probability>  (230) 
1

>  <r_epik_Ionization_Penalty>  (230) 
0.0485

>  <r_epik_Ionization_Penalty_Charging>  (230) 
0

>  <r_epik_Ionization_Penalty_Neutral>  (230) 
0.0485

>  <r_epik_State_Penalty>  (230) 
0.0413692

>  <r_epik_Charging_Adjusted_Penalty>  (230) 
0.0413692

>  <i_epik_Tot_Q>  (230) 
0

>  <i_epik_Tot_abs_Q>  (230) 
0

>  <s_lp_Force_Field>  (230) 
OPLS3e

>  <r_lp_Energy>  (230) 
78.8548

>  <b_lp_Chiralities_Consistent>  (230) 
1

>  <s_lp_Variant>  (230) 
68:0-1

>  <s_i_glide_gridfile>  (230) 
pfpi4k_grid

>  <i_i_glide_lignum>  (230) 
14

>  <i_i_glide_rotatable_bonds>  (230) 
0

>  <r_i_docking_score>  (230) 
-2.77092

>  <r_i_glide_ligand_efficiency>  (230) 
-0.106574

>  <r_i_glide_ligand_efficiency_sa>  (230) 
-0.315725

>  <r_i_glide_ligand_efficiency_ln>  (230) 
-0.650742

>  <r_i_glide_gscore>  (230) 
-2.77092

>  <r_i_glide_lipo>  (230) 
-0.478986

>  <r_i_glide_hbond>  (230) 
0

>  <r_i_glide_metal>  (230) 
-0

>  <r_i_glide_rewards>  (230) 
-1.0053

>  <r_i_glide_evdw>  (230) 
-21.945

>  <r_i_glide_ecoul>  (230) 
-1.24667

>  <r_i_glide_erotb>  (230) 
0

>  <r_i_glide_esite>  (230) 
-0.00238808

>  <r_i_glide_emodel>  (230) 
-26.772

>  <r_i_glide_energy>  (230) 
-23.1916

>  <r_i_glide_einternal>  (230) 
0

>  <r_i_glide_intrahb_reward>  (230) 
-0

>  <i_i_glide_confnum>  (230) 
2

>  <i_i_glide_posenum>  (230) 
23

>  <r_i_glide_eff_state_penalty>  (230) 
0

>  <ligand_id>  (230) 
68

>  <original_smiles>  (230) 
Cn1ncc2c1C1CCC3(C)C(CCC4C5CCCC4(C)CCC53)C1C2

>  <smiles>  (230) 
[H]c1nn(C([H])([H])[H])c2c1C([H])([H])C1([H])C2([H])C([H])([H])C([H])([H])C2(C([H])([H])[H])C1([H])C([H])([H])C([H])([H])C1([H])C3([H])C([H])([H])C([H])([H])C([H])([H])C1(C([H])([H])[H])C([H])([H])C([H])([H])C32[H]

$$$$
68:0:2
     RDKit          3D

 62 67  0  0  1  0  0  0  0  0999 V2000
    1.9521   -3.3535   -2.8128 C   0  0  0  0  0  0  0  0  0  0  0  0
    3.1624   -2.6944   -2.4010 N   0  0  0  0  0  0  0  0  0  0  0  0
    3.5123   -1.5249   -2.9881 N   0  0  0  0  0  0  0  0  0  0  0  0
    4.6197   -1.1265   -2.3725 C   0  0  0  0  0  0  0  0  0  0  0  0
    5.0478   -2.0924   -1.4236 C   0  0  0  0  0  0  0  0  0  0  0  0
    4.0999   -3.0261   -1.4423 C   0  0  0  0  0  0  0  0  0  0  0  0
    4.3264   -4.1375   -0.4911 C   0  0  2  0  0  0  0  0  0  0  0  0
    3.1383   -4.6877    0.3017 C   0  0  0  0  0  0  0  0  0  0  0  0
    3.6443   -5.3262    1.6056 C   0  0  0  0  0  0  0  0  0  0  0  0
    4.3250   -4.3168    2.5866 C   0  0  1  0  0  0  0  0  0  0  0  0
    5.5103   -5.1154    3.2050 C   0  0  0  0  0  0  0  0  0  0  0  0
    4.9344   -3.0939    1.8158 C   0  0  2  0  0  0  0  0  0  0  0  0
    4.0175   -1.8367    1.7881 C   0  0  0  0  0  0  0  0  0  0  0  0
    4.1264   -0.9275    3.0298 C   0  0  0  0  0  0  0  0  0  0  0  0
    3.5191   -1.4180    4.3699 C   0  0  2  0  0  0  0  0  0  0  0  0
    3.9553   -2.8414    4.7549 C   0  0  1  0  0  0  0  0  0  0  0  0
    3.6259   -3.1179    6.2419 C   0  0  0  0  0  0  0  0  0  0  0  0
    2.1512   -2.8779    6.5949 C   0  0  0  0  0  0  0  0  0  0  0  0
    1.6488   -1.5353    6.0495 C   0  0  0  0  0  0  0  0  0  0  0  0
    1.9819   -1.2795    4.5496 C   0  0  1  0  0  0  0  0  0  0  0  0
    1.4937    0.1519    4.2379 C   0  0  0  0  0  0  0  0  0  0  0  0
    1.2528   -2.2700    3.6137 C   0  0  0  0  0  0  0  0  0  0  0  0
    1.8399   -3.7054    3.5200 C   0  0  0  0  0  0  0  0  0  0  0  0
    3.3670   -3.9162    3.7937 C   0  0  1  0  0  0  0  0  0  0  0  0
    5.4628   -3.5218    0.4009 C   0  0  2  0  0  0  0  0  0  0  0  0
    6.1190   -2.3596   -0.4150 C   0  0  0  0  0  0  0  0  0  0  0  0
    1.7975   -4.2551   -2.2400 H   0  0  0  0  0  0  0  0  0  0  0  0
    2.0044   -3.5798   -3.8741 H   0  0  0  0  0  0  0  0  0  0  0  0
    1.1082   -2.7004   -2.6274 H   0  0  0  0  0  0  0  0  0  0  0  0
    5.0683   -0.1876   -2.6648 H   0  0  0  0  0  0  0  0  0  0  0  0
    4.7480   -4.9604   -1.0797 H   0  0  0  0  0  0  0  0  0  0  0  0
    2.3867   -3.9140    0.4876 H   0  0  0  0  0  0  0  0  0  0  0  0
    2.6291   -5.4359   -0.2898 H   0  0  0  0  0  0  0  0  0  0  0  0
    2.8464   -5.8520    2.1008 H   0  0  0  0  0  0  0  0  0  0  0  0
    4.3498   -6.1271    1.3323 H   0  0  0  0  0  0  0  0  0  0  0  0
    6.1181   -4.5331    3.9010 H   0  0  0  0  0  0  0  0  0  0  0  0
    6.2012   -5.4743    2.4403 H   0  0  0  0  0  0  0  0  0  0  0  0
    5.1718   -6.0040    3.7461 H   0  0  0  0  0  0  0  0  0  0  0  0
    5.8218   -2.7718    2.3636 H   0  0  0  0  0  0  0  0  0  0  0  0
    4.3032   -1.1884    0.9677 H   0  0  0  0  0  0  0  0  0  0  0  0
    2.9895   -2.0938    1.5534 H   0  0  0  0  0  0  0  0  0  0  0  0
    5.1844   -0.7118    3.1985 H   0  0  0  0  0  0  0  0  0  0  0  0
    3.7049    0.0427    2.7766 H   0  0  0  0  0  0  0  0  0  0  0  0
    3.9556   -0.7541    5.1093 H   0  0  0  0  0  0  0  0  0  0  0  0
    5.0356   -2.8735    4.6933 H   0  0  0  0  0  0  0  0  0  0  0  0
    3.9152   -4.1308    6.5180 H   0  0  0  0  0  0  0  0  0  0  0  0
    4.2390   -2.4622    6.8563 H   0  0  0  0  0  0  0  0  0  0  0  0
    1.5344   -3.6854    6.2187 H   0  0  0  0  0  0  0  0  0  0  0  0
    2.0272   -2.9060    7.6772 H   0  0  0  0  0  0  0  0  0  0  0  0
    0.5759   -1.4432    6.2303 H   0  0  0  0  0  0  0  0  0  0  0  0
    2.1115   -0.7501    6.6421 H   0  0  0  0  0  0  0  0  0  0  0  0
    0.4484    0.2851    4.5241 H   0  0  0  0  0  0  0  0  0  0  0  0
    1.5534    0.3848    3.1740 H   0  0  0  0  0  0  0  0  0  0  0  0
    2.0764    0.9016    4.7724 H   0  0  0  0  0  0  0  0  0  0  0  0
    0.2147   -2.3504    3.9318 H   0  0  0  0  0  0  0  0  0  0  0  0
    1.1811   -1.8361    2.6068 H   0  0  0  0  0  0  0  0  0  0  0  0
    1.2699   -4.3507    4.2051 H   0  0  0  0  0  0  0  0  0  0  0  0
    1.5579   -4.0764    2.5415 H   0  0  0  0  0  0  0  0  0  0  0  0
    3.3568   -4.8305    4.3750 H   0  0  0  0  0  0  0  0  0  0  0  0
    6.2275   -4.2813    0.5705 H   0  0  0  0  0  0  0  0  0  0  0  0
    7.0061   -2.7272   -0.9207 H   0  0  0  0  0  0  0  0  0  0  0  0
    6.4027   -1.4862    0.1758 H   0  0  0  0  0  0  0  0  0  0  0  0
  1  2  1  0
  1 27  1  0
  1 28  1  0
  1 29  1  0
  2  6  1  0
  2  3  1  0
  3  4  2  0
  4  5  1  0
  4 30  1  0
  5 26  1  0
  5  6  2  0
  6  7  1  0
  7 25  1  0
  7  8  1  0
  7 31  1  6
  8  9  1  0
  8 32  1  0
  8 33  1  0
  9 10  1  0
  9 34  1  0
  9 35  1  0
 10 24  1  0
 10 11  1  1
 10 12  1  0
 11 36  1  0
 11 37  1  0
 11 38  1  0
 12 13  1  0
 12 25  1  0
 12 39  1  1
 13 14  1  0
 13 40  1  0
 13 41  1  0
 14 15  1  0
 14 42  1  0
 14 43  1  0
 15 20  1  0
 15 16  1  0
 15 44  1  1
 16 24  1  0
 16 17  1  0
 16 45  1  1
 17 18  1  0
 17 46  1  0
 17 47  1  0
 18 19  1  0
 18 48  1  0
 18 49  1  0
 19 20  1  0
 19 50  1  0
 19 51  1  0
 20 21  1  6
 20 22  1  0
 21 52  1  0
 21 53  1  0
 21 54  1  0
 22 23  1  0
 22 55  1  0
 22 56  1  0
 23 24  1  0
 23 57  1  0
 23 58  1  0
 24 59  1  1
 25 26  1  0
 25 60  1  1
 26 61  1  0
 26 62  1  0
M  END
>  <i_m_ct_stereo_status>  (231) 
1

>  <s_m_source_file>  (231) 
/var/tmp/pbs.5076255.sched01/tmplj_yfvzq/807e0r74np.sdf

>  <i_m_source_file_index>  (231) 
14

>  <i_lp_mmshare_version>  (231) 
48012

>  <i_f3d_flags>  (231) 
0

>  <s_epik_input>  (231) 
W0NIM11uMW5bY0hdYyhbQ0gyXTIpYzFbQ0BIXShbQ0gyXVtDSDJdMylbQ0BASF0yW0NASF0oW0NAXTM0W0NIM10pW0NIMl1bQ0gyXVtDQEBIXTVbQ0BASF02W0NASF00W0NIMl1bQ0gyXVtDQEBdNShbQ0gzXSlbQ0gyXVtDSDJdW0NIMl02

>  <s_epik_cmdline>  (231) 
J2VwaWtfcHl0aG9uJywgJy1waHQnLCAnMi4wJywgJy1waCcsICc3LjAnLCAnLXRuJywgJzgnLCAnLW1hJywgJzIwMCcsICctaW1hZScsICc8aW5maWxlLm1hZT4nLCAnLW9tYWUnLCAnPG91dGZpbGUubWFlPic=

>  <r_lp_tautomer_probability>  (231) 
1

>  <r_epik_Ionization_Penalty>  (231) 
0.0485

>  <r_epik_Ionization_Penalty_Charging>  (231) 
0

>  <r_epik_Ionization_Penalty_Neutral>  (231) 
0.0485

>  <r_epik_State_Penalty>  (231) 
0.0413692

>  <r_epik_Charging_Adjusted_Penalty>  (231) 
0.0413692

>  <i_epik_Tot_Q>  (231) 
0

>  <i_epik_Tot_abs_Q>  (231) 
0

>  <s_lp_Force_Field>  (231) 
OPLS3e

>  <r_lp_Energy>  (231) 
78.8548

>  <b_lp_Chiralities_Consistent>  (231) 
1

>  <s_lp_Variant>  (231) 
68:0-1

>  <s_i_glide_gridfile>  (231) 
pfpi4k_grid

>  <i_i_glide_lignum>  (231) 
14

>  <i_i_glide_rotatable_bonds>  (231) 
0

>  <r_i_docking_score>  (231) 
-2.70441

>  <r_i_glide_ligand_efficiency>  (231) 
-0.104016

>  <r_i_glide_ligand_efficiency_sa>  (231) 
-0.308146

>  <r_i_glide_ligand_efficiency_ln>  (231) 
-0.635121

>  <r_i_glide_gscore>  (231) 
-2.70441

>  <r_i_glide_lipo>  (231) 
-0.416382

>  <r_i_glide_hbond>  (231) 
0

>  <r_i_glide_metal>  (231) 
-0

>  <r_i_glide_rewards>  (231) 
-1.0053

>  <r_i_glide_evdw>  (231) 
-21.2779

>  <r_i_glide_ecoul>  (231) 
-1.21193

>  <r_i_glide_erotb>  (231) 
0

>  <r_i_glide_esite>  (231) 
-0.0370382

>  <r_i_glide_emodel>  (231) 
-26.0164

>  <r_i_glide_energy>  (231) 
-22.4899

>  <r_i_glide_einternal>  (231) 
0

>  <r_i_glide_intrahb_reward>  (231) 
-0

>  <i_i_glide_confnum>  (231) 
1

>  <i_i_glide_posenum>  (231) 
25

>  <r_i_glide_eff_state_penalty>  (231) 
0

>  <ligand_id>  (231) 
68

>  <original_smiles>  (231) 
Cn1ncc2c1C1CCC3(C)C(CCC4C5CCCC4(C)CCC53)C1C2

>  <smiles>  (231) 
[H]c1nn(C([H])([H])[H])c2c1C([H])([H])C1([H])C2([H])C([H])([H])C([H])([H])C2(C([H])([H])[H])C1([H])C([H])([H])C([H])([H])C1([H])C3([H])C([H])([H])C([H])([H])C([H])([H])C1(C([H])([H])[H])C([H])([H])C([H])([H])C32[H]

$$$$
69:0:0
     RDKit          3D

 44 48  0  0  1  0  0  0  0  0999 V2000
    0.0578   -2.3485    4.8755 C   0  0  0  0  0  0  0  0  0  0  0  0
    0.1509   -0.9379    5.4219 C   0  0  0  0  0  0  0  0  0  0  0  0
    0.7407   -0.6617    6.6026 C   0  0  0  0  0  0  0  0  0  0  0  0
    0.8548    0.7396    7.1988 C   0  0  2  0  0  0  0  0  0  0  0  0
    0.1084    0.7679    8.5422 C   0  0  0  0  0  0  0  0  0  0  0  0
    0.1406   -0.2183    9.2829 O   0  0  0  0  0  0  0  0  0  0  0  0
   -0.6171    2.0165    8.8722 C   0  0  0  0  0  0  0  0  0  0  0  0
   -1.3456    2.1449   10.0780 C   0  0  0  0  0  0  0  0  0  0  0  0
   -2.0527    3.3291   10.3631 C   0  0  0  0  0  0  0  0  0  0  0  0
   -2.0249    4.4002    9.4518 C   0  0  0  0  0  0  0  0  0  0  0  0
   -1.2768    4.2882    8.2650 C   0  0  0  0  0  0  0  0  0  0  0  0
   -0.5788    3.1028    7.9686 C   0  0  0  0  0  0  0  0  0  0  0  0
    0.1479    3.0629    6.8025 O   0  0  0  0  0  0  0  0  0  0  0  0
    0.3657    1.8208    6.1878 C   0  0  1  0  0  0  0  0  0  0  0  0
    1.4240    2.0123    5.2537 O   0  0  0  0  0  0  0  0  0  0  0  0
    1.0597    2.0953    3.8569 C   0  0  2  0  0  0  0  0  0  0  0  0
    2.2391    2.6312    3.0389 C   0  0  0  0  0  0  0  0  0  0  0  0
   -0.1823    2.9460    3.6849 C   0  0  0  0  0  0  0  0  0  0  0  0
   -1.2290    2.5653    4.4316 C   0  0  0  0  0  0  0  0  0  0  0  0
   -2.5849    3.2386    4.4084 C   0  0  0  0  0  0  0  0  0  0  0  0
   -0.9151    1.4003    5.3749 C   0  0  2  0  0  0  0  0  0  0  0  0
   -2.0189    1.0231    6.1865 O   0  0  0  0  0  0  0  0  0  0  0  0
   -0.4316    0.1664    4.5404 C   0  0  1  0  0  0  0  0  0  0  0  0
    0.6486    0.6434    3.5136 C   0  0  0  0  0  0  0  0  0  0  0  0
    0.5470   -2.4141    3.9031 H   0  0  0  0  0  0  0  0  0  0  0  0
   -0.9863   -2.6363    4.7550 H   0  0  0  0  0  0  0  0  0  0  0  0
    0.5342   -3.0637    5.5465 H   0  0  0  0  0  0  0  0  0  0  0  0
    1.1512   -1.4657    7.1977 H   0  0  0  0  0  0  0  0  0  0  0  0
    1.9055    0.9364    7.4119 H   0  0  0  0  0  0  0  0  0  0  0  0
   -1.3745    1.3456   10.8039 H   0  0  0  0  0  0  0  0  0  0  0  0
   -2.6152    3.4094   11.2842 H   0  0  0  0  0  0  0  0  0  0  0  0
   -2.5671    5.3099    9.6653 H   0  0  0  0  0  0  0  0  0  0  0  0
   -1.2383    5.1093    7.5666 H   0  0  0  0  0  0  0  0  0  0  0  0
    1.9990    2.6532    1.9738 H   0  0  0  0  0  0  0  0  0  0  0  0
    3.1285    2.0133    3.1761 H   0  0  0  0  0  0  0  0  0  0  0  0
    2.4944    3.6491    3.3410 H   0  0  0  0  0  0  0  0  0  0  0  0
   -0.2043    3.7510    2.9660 H   0  0  0  0  0  0  0  0  0  0  0  0
   -3.3584    2.5405    4.0936 H   0  0  0  0  0  0  0  0  0  0  0  0
   -2.5810    4.0628    3.6962 H   0  0  0  0  0  0  0  0  0  0  0  0
   -2.8384    3.6333    5.3926 H   0  0  0  0  0  0  0  0  0  0  0  0
   -2.3519    1.8193    6.5748 H   0  0  0  0  0  0  0  0  0  0  0  0
   -1.2823   -0.2396    3.9911 H   0  0  0  0  0  0  0  0  0  0  0  0
    0.2557    0.6025    2.4940 H   0  0  0  0  0  0  0  0  0  0  0  0
    1.5270   -0.0066    3.5333 H   0  0  0  0  0  0  0  0  0  0  0  0
  1  2  1  0
  1 25  1  0
  1 26  1  0
  1 27  1  0
  2 23  1  0
  2  3  2  0
  3  4  1  0
  3 28  1  0
  4 14  1  0
  4  5  1  0
  4 29  1  1
  5  6  2  0
  5  7  1  0
  7 12  2  0
  7  8  1  0
  8  9  2  0
  8 30  1  0
  9 10  1  0
  9 31  1  0
 10 11  2  0
 10 32  1  0
 11 12  1  0
 11 33  1  0
 12 13  1  0
 14 13  1  1
 14 21  1  0
 14 15  1  0
 15 16  1  0
 16 24  1  0
 16 17  1  6
 16 18  1  0
 17 34  1  0
 17 35  1  0
 17 36  1  0
 18 19  2  0
 18 37  1  0
 19 20  1  0
 19 21  1  0
 20 38  1  0
 20 39  1  0
 20 40  1  0
 21 22  1  1
 21 23  1  0
 22 41  1  0
 23 24  1  0
 23 42  1  6
 24 43  1  0
 24 44  1  0
M  END
>  <i_m_ct_stereo_status>  (232) 
1

>  <s_m_source_file>  (232) 
/var/tmp/pbs.5076255.sched01/tmplj_yfvzq/807e0r74np.sdf

>  <i_m_source_file_index>  (232) 
16

>  <i_lp_mmshare_version>  (232) 
48012

>  <i_f3d_flags>  (232) 
0

>  <s_epik_input>  (232) 
TzFbQ0BAXShbQ0gzXSkoW0NIMl0yKVtDSF09QyhbQ0gzXSlbQ0BAXTMoW09IXSlbQ0BASF0yQyhbQ0gzXSk9W0NIXVtDQEBIXShbQ0BAXTEzNClDKD1PKWM1YyhPNClbY0hdW2NIXVtjSF1bY0hdNQ==

>  <s_epik_cmdline>  (232) 
J2VwaWtfcHl0aG9uJywgJy1waHQnLCAnMi4wJywgJy1waCcsICc3LjAnLCAnLXRuJywgJzgnLCAnLW1hJywgJzIwMCcsICctaW1hZScsICc8aW5maWxlLm1hZT4nLCAnLW9tYWUnLCAnPG91dGZpbGUubWFlPic=

>  <r_lp_tautomer_probability>  (232) 
1

>  <r_epik_Ionization_Penalty>  (232) 
2.38051e-05

>  <r_epik_Ionization_Penalty_Charging>  (232) 
0

>  <r_epik_Ionization_Penalty_Neutral>  (232) 
2.38051e-05

>  <r_epik_State_Penalty>  (232) 
-0

>  <r_epik_Charging_Adjusted_Penalty>  (232) 
0

>  <i_epik_Tot_Q>  (232) 
0

>  <i_epik_Tot_abs_Q>  (232) 
0

>  <s_lp_Force_Field>  (232) 
OPLS3e

>  <r_lp_Energy>  (232) 
51.2146

>  <b_lp_Chiralities_Consistent>  (232) 
1

>  <s_lp_Variant>  (232) 
69:0-1

>  <s_i_glide_gridfile>  (232) 
pfpi4k_grid

>  <i_i_glide_lignum>  (232) 
16

>  <i_i_glide_rotatable_bonds>  (232) 
1

>  <r_i_docking_score>  (232) 
-2.82689

>  <r_i_glide_ligand_efficiency>  (232) 
-0.117787

>  <r_i_glide_ligand_efficiency_sa>  (232) 
-0.339757

>  <r_i_glide_ligand_efficiency_ln>  (232) 
-0.676606

>  <r_i_glide_gscore>  (232) 
-2.82689

>  <r_i_glide_lipo>  (232) 
-0.022116

>  <r_i_glide_hbond>  (232) 
0

>  <r_i_glide_metal>  (232) 
-0

>  <r_i_glide_rewards>  (232) 
-1.19747

>  <r_i_glide_evdw>  (232) 
-21.6205

>  <r_i_glide_ecoul>  (232) 
-3.3575

>  <r_i_glide_erotb>  (232) 
0

>  <r_i_glide_esite>  (232) 
-0.0226568

>  <r_i_glide_emodel>  (232) 
-29.6294

>  <r_i_glide_energy>  (232) 
-24.9779

>  <r_i_glide_einternal>  (232) 
0.0664009

>  <r_i_glide_intrahb_reward>  (232) 
-0

>  <i_i_glide_confnum>  (232) 
2

>  <i_i_glide_posenum>  (232) 
12

>  <r_i_glide_eff_state_penalty>  (232) 
0

>  <ligand_id>  (232) 
69

>  <original_smiles>  (232) 
CC1=CC2C(=O)c3ccccc3OC23OC2(C)C=C(C)C3(O)C1C2

>  <smiles>  (232) 
[H]OC12C(C([H])([H])[H])=C([H])C3(C([H])([H])[H])OC14Oc1c([H])c([H])c([H])c([H])c1C(=O)C4([H])C([H])=C(C([H])([H])[H])C2([H])C3([H])[H]

$$$$
69:0:1
     RDKit          3D

 44 48  0  0  1  0  0  0  0  0999 V2000
    3.9104   -0.7001    6.4768 C   0  0  0  0  0  0  0  0  0  0  0  0
    2.6933    0.1996    6.3531 C   0  0  0  0  0  0  0  0  0  0  0  0
    2.6447    1.4230    6.9149 C   0  0  0  0  0  0  0  0  0  0  0  0
    1.4431    2.3609    6.8234 C   0  0  2  0  0  0  0  0  0  0  0  0
    0.9210    2.6388    8.2409 C   0  0  0  0  0  0  0  0  0  0  0  0
    1.7162    2.7857    9.1704 O   0  0  0  0  0  0  0  0  0  0  0  0
   -0.5486    2.7558    8.3927 C   0  0  0  0  0  0  0  0  0  0  0  0
   -1.1344    2.9921    9.6586 C   0  0  0  0  0  0  0  0  0  0  0  0
   -2.5338    3.0896    9.7884 C   0  0  0  0  0  0  0  0  0  0  0  0
   -3.3541    2.9624    8.6523 C   0  0  0  0  0  0  0  0  0  0  0  0
   -2.7731    2.7483    7.3880 C   0  0  0  0  0  0  0  0  0  0  0  0
   -1.3758    2.6398    7.2537 C   0  0  0  0  0  0  0  0  0  0  0  0
   -0.8671    2.4560    5.9906 O   0  0  0  0  0  0  0  0  0  0  0  0
    0.3612    1.7954    5.8556 C   0  0  1  0  0  0  0  0  0  0  0  0
    0.8223    2.0731    4.5359 O   0  0  0  0  0  0  0  0  0  0  0  0
    0.6993    1.0144    3.5587 C   0  0  2  0  0  0  0  0  0  0  0  0
    0.9121    1.5604    2.1435 C   0  0  0  0  0  0  0  0  0  0  0  0
   -0.6485    0.3287    3.7019 C   0  0  0  0  0  0  0  0  0  0  0  0
   -0.9167   -0.1297    4.9277 C   0  0  0  0  0  0  0  0  0  0  0  0
   -2.1733   -0.8787    5.3212 C   0  0  0  0  0  0  0  0  0  0  0  0
    0.1444    0.2352    5.9632 C   0  0  2  0  0  0  0  0  0  0  0  0
   -0.1763   -0.2403    7.2636 O   0  0  0  0  0  0  0  0  0  0  0  0
    1.5320   -0.3484    5.5210 C   0  0  1  0  0  0  0  0  0  0  0  0
    1.7665   -0.0081    4.0121 C   0  0  0  0  0  0  0  0  0  0  0  0
    4.3050   -0.9483    5.4913 H   0  0  0  0  0  0  0  0  0  0  0  0
    3.6448   -1.6276    6.9849 H   0  0  0  0  0  0  0  0  0  0  0  0
    4.7014   -0.2137    7.0491 H   0  0  0  0  0  0  0  0  0  0  0  0
    3.4864    1.7859    7.4905 H   0  0  0  0  0  0  0  0  0  0  0  0
    1.7858    3.3150    6.4201 H   0  0  0  0  0  0  0  0  0  0  0  0
   -0.5188    3.1019   10.5383 H   0  0  0  0  0  0  0  0  0  0  0  0
   -2.9802    3.2516   10.7611 H   0  0  0  0  0  0  0  0  0  0  0  0
   -4.4277    3.0231    8.7487 H   0  0  0  0  0  0  0  0  0  0  0  0
   -3.3945    2.6485    6.5122 H   0  0  0  0  0  0  0  0  0  0  0  0
    0.8725    0.7653    1.3958 H   0  0  0  0  0  0  0  0  0  0  0  0
    1.8737    2.0693    2.0538 H   0  0  0  0  0  0  0  0  0  0  0  0
    0.1305    2.2801    1.8967 H   0  0  0  0  0  0  0  0  0  0  0  0
   -1.2942    0.1940    2.8509 H   0  0  0  0  0  0  0  0  0  0  0  0
   -1.9268   -1.8643    5.7121 H   0  0  0  0  0  0  0  0  0  0  0  0
   -2.8328   -1.0061    4.4666 H   0  0  0  0  0  0  0  0  0  0  0  0
   -2.7102   -0.3119    6.0814 H   0  0  0  0  0  0  0  0  0  0  0  0
    0.5430   -0.0194    7.8385 H   0  0  0  0  0  0  0  0  0  0  0  0
    1.5099   -1.4331    5.6359 H   0  0  0  0  0  0  0  0  0  0  0  0
    1.6968   -0.9111    3.4014 H   0  0  0  0  0  0  0  0  0  0  0  0
    2.7664    0.4027    3.8470 H   0  0  0  0  0  0  0  0  0  0  0  0
  1  2  1  0
  1 25  1  0
  1 26  1  0
  1 27  1  0
  2 23  1  0
  2  3  2  0
  3  4  1  0
  3 28  1  0
  4 14  1  0
  4  5  1  0
  4 29  1  6
  5  6  2  0
  5  7  1  0
  7 12  2  0
  7  8  1  0
  8  9  2  0
  8 30  1  0
  9 10  1  0
  9 31  1  0
 10 11  2  0
 10 32  1  0
 11 12  1  0
 11 33  1  0
 12 13  1  0
 14 13  1  1
 14 21  1  0
 14 15  1  0
 15 16  1  0
 16 24  1  0
 16 17  1  6
 16 18  1  0
 17 34  1  0
 17 35  1  0
 17 36  1  0
 18 19  2  0
 18 37  1  0
 19 20  1  0
 19 21  1  0
 20 38  1  0
 20 39  1  0
 20 40  1  0
 21 22  1  1
 21 23  1  0
 22 41  1  0
 23 24  1  0
 23 42  1  6
 24 43  1  0
 24 44  1  0
M  END
>  <i_m_ct_stereo_status>  (233) 
1

>  <s_m_source_file>  (233) 
/var/tmp/pbs.5076255.sched01/tmplj_yfvzq/807e0r74np.sdf

>  <i_m_source_file_index>  (233) 
16

>  <i_lp_mmshare_version>  (233) 
48012

>  <i_f3d_flags>  (233) 
0

>  <s_epik_input>  (233) 
TzFbQ0BAXShbQ0gzXSkoW0NIMl0yKVtDSF09QyhbQ0gzXSlbQ0BAXTMoW09IXSlbQ0BASF0yQyhbQ0gzXSk9W0NIXVtDQEBIXShbQ0BAXTEzNClDKD1PKWM1YyhPNClbY0hdW2NIXVtjSF1bY0hdNQ==

>  <s_epik_cmdline>  (233) 
J2VwaWtfcHl0aG9uJywgJy1waHQnLCAnMi4wJywgJy1waCcsICc3LjAnLCAnLXRuJywgJzgnLCAnLW1hJywgJzIwMCcsICctaW1hZScsICc8aW5maWxlLm1hZT4nLCAnLW9tYWUnLCAnPG91dGZpbGUubWFlPic=

>  <r_lp_tautomer_probability>  (233) 
1

>  <r_epik_Ionization_Penalty>  (233) 
2.38051e-05

>  <r_epik_Ionization_Penalty_Charging>  (233) 
0

>  <r_epik_Ionization_Penalty_Neutral>  (233) 
2.38051e-05

>  <r_epik_State_Penalty>  (233) 
-0

>  <r_epik_Charging_Adjusted_Penalty>  (233) 
0

>  <i_epik_Tot_Q>  (233) 
0

>  <i_epik_Tot_abs_Q>  (233) 
0

>  <s_lp_Force_Field>  (233) 
OPLS3e

>  <r_lp_Energy>  (233) 
51.2146

>  <b_lp_Chiralities_Consistent>  (233) 
1

>  <s_lp_Variant>  (233) 
69:0-1

>  <s_i_glide_gridfile>  (233) 
pfpi4k_grid

>  <i_i_glide_lignum>  (233) 
16

>  <i_i_glide_rotatable_bonds>  (233) 
1

>  <r_i_docking_score>  (233) 
-2.81992

>  <r_i_glide_ligand_efficiency>  (233) 
-0.117497

>  <r_i_glide_ligand_efficiency_sa>  (233) 
-0.33892

>  <r_i_glide_ligand_efficiency_ln>  (233) 
-0.674937

>  <r_i_glide_gscore>  (233) 
-2.81992

>  <r_i_glide_lipo>  (233) 
-0.199488

>  <r_i_glide_hbond>  (233) 
0

>  <r_i_glide_metal>  (233) 
-0

>  <r_i_glide_rewards>  (233) 
-1.19747

>  <r_i_glide_evdw>  (233) 
-20.3148

>  <r_i_glide_ecoul>  (233) 
-2.70702

>  <r_i_glide_erotb>  (233) 
0

>  <r_i_glide_esite>  (233) 
-0.00116711

>  <r_i_glide_emodel>  (233) 
-27.6332

>  <r_i_glide_energy>  (233) 
-23.0218

>  <r_i_glide_einternal>  (233) 
0.137048

>  <r_i_glide_intrahb_reward>  (233) 
-0

>  <i_i_glide_confnum>  (233) 
2

>  <i_i_glide_posenum>  (233) 
29

>  <r_i_glide_eff_state_penalty>  (233) 
0

>  <ligand_id>  (233) 
69

>  <original_smiles>  (233) 
CC1=CC2C(=O)c3ccccc3OC23OC2(C)C=C(C)C3(O)C1C2

>  <smiles>  (233) 
[H]OC12C(C([H])([H])[H])=C([H])C3(C([H])([H])[H])OC14Oc1c([H])c([H])c([H])c([H])c1C(=O)C4([H])C([H])=C(C([H])([H])[H])C2([H])C3([H])[H]

$$$$
69:0:2
     RDKit          3D

 44 48  0  0  1  0  0  0  0  0999 V2000
    2.8271    0.1500    4.4953 C   0  0  0  0  0  0  0  0  0  0  0  0
    2.0418    1.2461    5.1906 C   0  0  0  0  0  0  0  0  0  0  0  0
    2.2669    1.5839    6.4751 C   0  0  0  0  0  0  0  0  0  0  0  0
    1.4976    2.6691    7.2216 C   0  0  2  0  0  0  0  0  0  0  0  0
    0.7757    2.0294    8.4154 C   0  0  0  0  0  0  0  0  0  0  0  0
    1.3261    1.1394    9.0673 O   0  0  0  0  0  0  0  0  0  0  0  0
   -0.5571    2.5800    8.7454 C   0  0  0  0  0  0  0  0  0  0  0  0
   -1.3099    2.0633    9.8218 C   0  0  0  0  0  0  0  0  0  0  0  0
   -2.5942    2.5664   10.0932 C   0  0  0  0  0  0  0  0  0  0  0  0
   -3.1264    3.6078    9.3197 C   0  0  0  0  0  0  0  0  0  0  0  0
   -2.3654    4.1483    8.2730 C   0  0  0  0  0  0  0  0  0  0  0  0
   -1.0870    3.6387    7.9752 C   0  0  0  0  0  0  0  0  0  0  0  0
   -0.3885    4.2259    6.9525 O   0  0  0  0  0  0  0  0  0  0  0  0
    0.5520    3.4514    6.2620 C   0  0  1  0  0  0  0  0  0  0  0  0
    1.3715    4.3711    5.5475 O   0  0  0  0  0  0  0  0  0  0  0  0
    1.1399    4.4874    4.1242 C   0  0  2  0  0  0  0  0  0  0  0  0
    1.8530    5.7276    3.5772 C   0  0  0  0  0  0  0  0  0  0  0  0
   -0.3510    4.5110    3.8364 C   0  0  0  0  0  0  0  0  0  0  0  0
   -1.0373    3.4834    4.3482 C   0  0  0  0  0  0  0  0  0  0  0  0
   -2.5271    3.2563    4.1678 C   0  0  0  0  0  0  0  0  0  0  0  0
   -0.1820    2.5466    5.2035 C   0  0  2  0  0  0  0  0  0  0  0  0
   -0.9252    1.4668    5.7460 O   0  0  0  0  0  0  0  0  0  0  0  0
    0.9958    1.9723    4.3418 C   0  0  1  0  0  0  0  0  0  0  0  0
    1.6762    3.1469    3.5680 C   0  0  0  0  0  0  0  0  0  0  0  0
    3.3388    0.5477    3.6189 H   0  0  0  0  0  0  0  0  0  0  0  0
    2.1572   -0.6479    4.1732 H   0  0  0  0  0  0  0  0  0  0  0  0
    3.5737   -0.2807    5.1637 H   0  0  0  0  0  0  0  0  0  0  0  0
    3.0146    1.0571    7.0509 H   0  0  0  0  0  0  0  0  0  0  0  0
    2.2142    3.3791    7.6321 H   0  0  0  0  0  0  0  0  0  0  0  0
   -0.9197    1.2706   10.4434 H   0  0  0  0  0  0  0  0  0  0  0  0
   -3.1854    2.1488   10.8921 H   0  0  0  0  0  0  0  0  0  0  0  0
   -4.1121    3.9922    9.5252 H   0  0  0  0  0  0  0  0  0  0  0  0
   -2.7705    4.9423    7.6824 H   0  0  0  0  0  0  0  0  0  0  0  0
    1.7280    5.7874    2.4947 H   0  0  0  0  0  0  0  0  0  0  0  0
    2.9211    5.6987    3.7967 H   0  0  0  0  0  0  0  0  0  0  0  0
    1.4427    6.6416    4.0127 H   0  0  0  0  0  0  0  0  0  0  0  0
   -0.7698    5.2756    3.1981 H   0  0  0  0  0  0  0  0  0  0  0  0
   -2.7218    2.3040    3.6763 H   0  0  0  0  0  0  0  0  0  0  0  0
   -2.9540    4.0446    3.5482 H   0  0  0  0  0  0  0  0  0  0  0  0
   -3.0353    3.2632    5.1325 H   0  0  0  0  0  0  0  0  0  0  0  0
   -1.2994    0.9909    5.0207 H   0  0  0  0  0  0  0  0  0  0  0  0
    0.5940    1.2636    3.6151 H   0  0  0  0  0  0  0  0  0  0  0  0
    1.4573    3.0778    2.4991 H   0  0  0  0  0  0  0  0  0  0  0  0
    2.7638    3.1089    3.6660 H   0  0  0  0  0  0  0  0  0  0  0  0
  1  2  1  0
  1 25  1  0
  1 26  1  0
  1 27  1  0
  2 23  1  0
  2  3  2  0
  3  4  1  0
  3 28  1  0
  4 14  1  0
  4  5  1  0
  4 29  1  1
  5  6  2  0
  5  7  1  0
  7 12  2  0
  7  8  1  0
  8  9  2  0
  8 30  1  0
  9 10  1  0
  9 31  1  0
 10 11  2  0
 10 32  1  0
 11 12  1  0
 11 33  1  0
 12 13  1  0
 14 13  1  1
 14 21  1  0
 14 15  1  0
 15 16  1  0
 16 24  1  0
 16 17  1  6
 16 18  1  0
 17 34  1  0
 17 35  1  0
 17 36  1  0
 18 19  2  0
 18 37  1  0
 19 20  1  0
 19 21  1  0
 20 38  1  0
 20 39  1  0
 20 40  1  0
 21 22  1  1
 21 23  1  0
 22 41  1  0
 23 24  1  0
 23 42  1  6
 24 43  1  0
 24 44  1  0
M  END
>  <i_m_ct_stereo_status>  (234) 
1

>  <s_m_source_file>  (234) 
/var/tmp/pbs.5076255.sched01/tmplj_yfvzq/807e0r74np.sdf

>  <i_m_source_file_index>  (234) 
16

>  <i_lp_mmshare_version>  (234) 
48012

>  <i_f3d_flags>  (234) 
0

>  <s_epik_input>  (234) 
TzFbQ0BAXShbQ0gzXSkoW0NIMl0yKVtDSF09QyhbQ0gzXSlbQ0BAXTMoW09IXSlbQ0BASF0yQyhbQ0gzXSk9W0NIXVtDQEBIXShbQ0BAXTEzNClDKD1PKWM1YyhPNClbY0hdW2NIXVtjSF1bY0hdNQ==

>  <s_epik_cmdline>  (234) 
J2VwaWtfcHl0aG9uJywgJy1waHQnLCAnMi4wJywgJy1waCcsICc3LjAnLCAnLXRuJywgJzgnLCAnLW1hJywgJzIwMCcsICctaW1hZScsICc8aW5maWxlLm1hZT4nLCAnLW9tYWUnLCAnPG91dGZpbGUubWFlPic=

>  <r_lp_tautomer_probability>  (234) 
1

>  <r_epik_Ionization_Penalty>  (234) 
2.38051e-05

>  <r_epik_Ionization_Penalty_Charging>  (234) 
0

>  <r_epik_Ionization_Penalty_Neutral>  (234) 
2.38051e-05

>  <r_epik_State_Penalty>  (234) 
-0

>  <r_epik_Charging_Adjusted_Penalty>  (234) 
0

>  <i_epik_Tot_Q>  (234) 
0

>  <i_epik_Tot_abs_Q>  (234) 
0

>  <s_lp_Force_Field>  (234) 
OPLS3e

>  <r_lp_Energy>  (234) 
51.2146

>  <b_lp_Chiralities_Consistent>  (234) 
1

>  <s_lp_Variant>  (234) 
69:0-1

>  <s_i_glide_gridfile>  (234) 
pfpi4k_grid

>  <i_i_glide_lignum>  (234) 
16

>  <i_i_glide_rotatable_bonds>  (234) 
1

>  <r_i_docking_score>  (234) 
-2.53626

>  <r_i_glide_ligand_efficiency>  (234) 
-0.105677

>  <r_i_glide_ligand_efficiency_sa>  (234) 
-0.304827

>  <r_i_glide_ligand_efficiency_ln>  (234) 
-0.607043

>  <r_i_glide_gscore>  (234) 
-2.53626

>  <r_i_glide_lipo>  (234) 
-0.0416326

>  <r_i_glide_hbond>  (234) 
0

>  <r_i_glide_metal>  (234) 
-0

>  <r_i_glide_rewards>  (234) 
-1.19747

>  <r_i_glide_evdw>  (234) 
-19.5587

>  <r_i_glide_ecoul>  (234) 
-2.12176

>  <r_i_glide_erotb>  (234) 
0

>  <r_i_glide_esite>  (234) 
-0.000953912

>  <r_i_glide_emodel>  (234) 
-25.8604

>  <r_i_glide_energy>  (234) 
-21.6804

>  <r_i_glide_einternal>  (234) 
0.00588821

>  <r_i_glide_intrahb_reward>  (234) 
-0

>  <i_i_glide_confnum>  (234) 
2

>  <i_i_glide_posenum>  (234) 
13

>  <r_i_glide_eff_state_penalty>  (234) 
0

>  <ligand_id>  (234) 
69

>  <original_smiles>  (234) 
CC1=CC2C(=O)c3ccccc3OC23OC2(C)C=C(C)C3(O)C1C2

>  <smiles>  (234) 
[H]OC12C(C([H])([H])[H])=C([H])C3(C([H])([H])[H])OC14Oc1c([H])c([H])c([H])c([H])c1C(=O)C4([H])C([H])=C(C([H])([H])[H])C2([H])C3([H])[H]

$$$$
70:0:0
     RDKit          3D

 44 48  0  0  1  0  0  0  0  0999 V2000
    5.3162   -0.2584    3.0166 C   0  0  0  0  0  0  0  0  0  0  0  0
    4.1395   -1.2461    2.9435 C   0  0  2  0  0  0  0  0  0  0  0  0
    3.7640   -1.7874    4.3449 C   0  0  0  0  0  0  0  0  0  0  0  0
    4.3995   -3.1878    4.4350 C   0  0  0  0  0  0  0  0  0  0  0  0
    4.6523   -3.5461    2.9963 C   0  0  0  0  0  0  0  0  0  0  0  0
    4.5012   -2.5002    2.1866 C   0  0  0  0  0  0  0  0  0  0  0  0
    4.6671   -2.4841    0.6729 C   0  0  2  0  0  0  0  0  0  0  0  0
    3.6534   -1.6644   -0.0634 N   0  0  0  0  0  0  0  0  0  0  0  0
    3.7058   -1.7155   -1.4899 N   0  0  0  0  0  0  0  0  0  0  0  0
    5.0209   -1.3650   -2.0087 C   0  0  0  0  0  0  0  0  0  0  0  0
    5.8448   -2.6708   -2.0263 C   0  0  0  0  0  0  0  0  0  0  0  0
    4.8428   -3.7389   -1.5274 C   0  0  2  0  0  0  0  0  0  0  0  0
    3.5299   -3.0797   -1.9492 C   0  0  0  0  0  0  0  0  0  0  0  0
    4.8480   -3.9073    0.0219 C   0  0  2  0  0  0  0  0  0  0  0  0
    3.7694   -4.9222    0.4499 C   0  0  0  0  0  0  0  0  0  0  0  0
    4.0973   -5.6438    1.7495 C   0  0  0  0  0  0  0  0  0  0  0  0
    5.1625   -4.9028    2.5667 C   0  0  2  0  0  0  0  0  0  0  0  0
    5.5804   -5.7696    3.7677 C   0  0  0  0  0  0  0  0  0  0  0  0
    6.3589   -4.6867    1.8149 O   0  0  0  0  0  0  0  0  0  0  0  0
    6.0846   -4.5605    0.3009 O   0  0  0  0  0  0  0  0  0  0  0  0
    5.6047    0.0892    2.0266 H   0  0  0  0  0  0  0  0  0  0  0  0
    6.1984   -0.7103    3.4738 H   0  0  0  0  0  0  0  0  0  0  0  0
    5.0558    0.6137    3.6211 H   0  0  0  0  0  0  0  0  0  0  0  0
    3.2791   -0.7693    2.4722 H   0  0  0  0  0  0  0  0  0  0  0  0
    4.0377   -1.1291    5.1749 H   0  0  0  0  0  0  0  0  0  0  0  0
    2.6816   -1.9042    4.3814 H   0  0  0  0  0  0  0  0  0  0  0  0
    5.3434   -3.1568    4.9794 H   0  0  0  0  0  0  0  0  0  0  0  0
    3.7377   -3.9142    4.9032 H   0  0  0  0  0  0  0  0  0  0  0  0
    5.6158   -1.9619    0.5434 H   0  0  0  0  0  0  0  0  0  0  0  0
    2.7040   -1.9490    0.1964 H   0  0  0  0  0  0  0  0  0  0  0  0
    4.8907   -1.0126   -3.0366 H   0  0  0  0  0  0  0  0  0  0  0  0
    5.4493   -0.5527   -1.4271 H   0  0  0  0  0  0  0  0  0  0  0  0
    6.1503   -2.8923   -3.0484 H   0  0  0  0  0  0  0  0  0  0  0  0
    6.7513   -2.6127   -1.4203 H   0  0  0  0  0  0  0  0  0  0  0  0
    5.0073   -4.6994   -2.0236 H   0  0  0  0  0  0  0  0  0  0  0  0
    2.6211   -3.5266   -1.5426 H   0  0  0  0  0  0  0  0  0  0  0  0
    3.4384   -3.0886   -3.0375 H   0  0  0  0  0  0  0  0  0  0  0  0
    2.7988   -4.4295    0.5289 H   0  0  0  0  0  0  0  0  0  0  0  0
    3.6632   -5.6872   -0.3225 H   0  0  0  0  0  0  0  0  0  0  0  0
    3.1865   -5.7520    2.3433 H   0  0  0  0  0  0  0  0  0  0  0  0
    4.4369   -6.6583    1.5329 H   0  0  0  0  0  0  0  0  0  0  0  0
    4.7419   -5.9678    4.4448 H   0  0  0  0  0  0  0  0  0  0  0  0
    6.3706   -5.2844    4.3470 H   0  0  0  0  0  0  0  0  0  0  0  0
    5.9640   -6.7418    3.4474 H   0  0  0  0  0  0  0  0  0  0  0  0
  1  2  1  0
  1 21  1  0
  1 22  1  0
  1 23  1  0
  2  6  1  0
  2  3  1  0
  2 24  1  6
  3  4  1  0
  3 25  1  0
  3 26  1  0
  4  5  1  0
  4 27  1  0
  4 28  1  0
  5 17  1  0
  5  6  2  0
  6  7  1  0
  7 14  1  0
  7  8  1  0
  7 29  1  1
  8  9  1  0
  8 30  1  0
  9 13  1  0
  9 10  1  0
 10 11  1  0
 10 31  1  0
 10 32  1  0
 11 12  1  0
 11 33  1  0
 11 34  1  0
 12 13  1  0
 12 14  1  0
 12 35  1  6
 13 36  1  0
 13 37  1  0
 14 20  1  1
 14 15  1  0
 15 16  1  0
 15 38  1  0
 15 39  1  0
 16 17  1  0
 16 40  1  0
 16 41  1  0
 17 18  1  1
 17 19  1  0
 18 42  1  0
 18 43  1  0
 18 44  1  0
 19 20  1  0
M  END
>  <i_m_ct_stereo_status>  (235) 
1

>  <s_m_source_file>  (235) 
/var/tmp/pbs.5076255.sched01/tmplj_yfvzq/807e0r74np.sdf

>  <i_m_source_file_index>  (235) 
17

>  <i_lp_mmshare_version>  (235) 
48012

>  <i_f3d_flags>  (235) 
0

>  <s_epik_input>  (235) 
W0NIM11bQ0BASF0xW0NIMl1bQ0gyXUMoW0NAXShbQ0gzXSkoT08yKVtDSDJdW0NIMl0zKT1DMVtDQEBIXShbQ0BAXTIzNClbTkhdTjVbQ0gyXVtDSDJdW0NAQEhdNFtDSDJdNQ==

>  <s_epik_cmdline>  (235) 
J2VwaWtfcHl0aG9uJywgJy1waHQnLCAnMi4wJywgJy1waCcsICc3LjAnLCAnLXRuJywgJzgnLCAnLW1hJywgJzIwMCcsICctaW1hZScsICc8aW5maWxlLm1hZT4nLCAnLW9tYWUnLCAnPG91dGZpbGUubWFlPic=

>  <r_epik_Ionization_Penalty>  (235) 
0.0179622

>  <r_epik_Ionization_Penalty_Charging>  (235) 
0

>  <r_epik_Ionization_Penalty_Neutral>  (235) 
0.0179622

>  <r_epik_State_Penalty>  (235) 
0.0141491

>  <r_epik_Charging_Adjusted_Penalty>  (235) 
0.0141491

>  <i_epik_Tot_Q>  (235) 
0

>  <i_epik_Tot_abs_Q>  (235) 
0

>  <s_lp_Force_Field>  (235) 
OPLS3e

>  <r_lp_Energy>  (235) 
30.1647

>  <b_lp_Chiralities_Consistent>  (235) 
1

>  <s_lp_Variant>  (235) 
70:0-1

>  <s_i_glide_gridfile>  (235) 
pfpi4k_grid

>  <i_i_glide_lignum>  (235) 
17

>  <i_i_glide_rotatable_bonds>  (235) 
0

>  <r_i_docking_score>  (235) 
-3.1102

>  <r_i_glide_ligand_efficiency>  (235) 
-0.15551

>  <r_i_glide_ligand_efficiency_sa>  (235) 
-0.422118

>  <r_i_glide_ligand_efficiency_ln>  (235) 
-0.778379

>  <r_i_glide_gscore>  (235) 
-3.1102

>  <r_i_glide_lipo>  (235) 
-0.287739

>  <r_i_glide_hbond>  (235) 
-0.0036035

>  <r_i_glide_metal>  (235) 
-0

>  <r_i_glide_rewards>  (235) 
-1.52472

>  <r_i_glide_evdw>  (235) 
-21.576

>  <r_i_glide_ecoul>  (235) 
-0.545112

>  <r_i_glide_erotb>  (235) 
0

>  <r_i_glide_esite>  (235) 
-0.133563

>  <r_i_glide_emodel>  (235) 
-25.5733

>  <r_i_glide_energy>  (235) 
-22.1211

>  <r_i_glide_einternal>  (235) 
0

>  <r_i_glide_intrahb_reward>  (235) 
-0

>  <i_i_glide_confnum>  (235) 
1

>  <i_i_glide_posenum>  (235) 
1

>  <r_i_glide_eff_state_penalty>  (235) 
0

>  <ligand_id>  (235) 
70

>  <original_smiles>  (235) 
CC1CCC2=C1C1NN3CCC(C3)C13CCC2(C)OO3

>  <smiles>  (235) 
[H]N1N2C([H])([H])C([H])([H])C([H])(C2([H])[H])C23OOC(C([H])([H])[H])(C4=C(C12[H])C([H])(C([H])([H])[H])C([H])([H])C4([H])[H])C([H])([H])C3([H])[H]

$$$$
70:0:1
     RDKit          3D

 44 48  0  0  1  0  0  0  0  0999 V2000
    2.4160   -3.4419   -1.7438 C   0  0  0  0  0  0  0  0  0  0  0  0
    3.0158   -2.8812   -0.4453 C   0  0  2  0  0  0  0  0  0  0  0  0
    3.9327   -1.6650   -0.7273 C   0  0  0  0  0  0  0  0  0  0  0  0
    5.3682   -2.2112   -0.6529 C   0  0  0  0  0  0  0  0  0  0  0  0
    5.2060   -3.5017    0.1055 C   0  0  0  0  0  0  0  0  0  0  0  0
    3.9334   -3.8645    0.2299 C   0  0  0  0  0  0  0  0  0  0  0  0
    3.3922   -5.0971    0.9377 C   0  0  2  0  0  0  0  0  0  0  0  0
    2.1727   -4.8506    1.7595 N   0  0  0  0  0  0  0  0  0  0  0  0
    1.6702   -5.9610    2.5151 N   0  0  0  0  0  0  0  0  0  0  0  0
    1.4734   -7.1687    1.7040 C   0  0  0  0  0  0  0  0  0  0  0  0
    2.8292   -7.9077    1.6898 C   0  0  0  0  0  0  0  0  0  0  0  0
    3.7332   -7.0253    2.5788 C   0  0  2  0  0  0  0  0  0  0  0  0
    2.6787   -6.3889    3.4778 C   0  0  0  0  0  0  0  0  0  0  0  0
    4.4528   -5.9051    1.7802 C   0  0  2  0  0  0  0  0  0  0  0  0
    5.2677   -5.0223    2.7357 C   0  0  0  0  0  0  0  0  0  0  0  0
    6.4654   -4.3773    2.0637 C   0  0  0  0  0  0  0  0  0  0  0  0
    6.3724   -4.3381    0.5621 C   0  0  2  0  0  0  0  0  0  0  0  0
    7.7055   -3.8392   -0.0407 C   0  0  0  0  0  0  0  0  0  0  0  0
    6.1965   -5.6653    0.0736 O   0  0  0  0  0  0  0  0  0  0  0  0
    5.4362   -6.5902    1.0320 O   0  0  0  0  0  0  0  0  0  0  0  0
    1.7808   -4.3031   -1.5438 H   0  0  0  0  0  0  0  0  0  0  0  0
    3.2055   -3.7418   -2.4454 H   0  0  0  0  0  0  0  0  0  0  0  0
    1.8070   -2.6958   -2.2570 H   0  0  0  0  0  0  0  0  0  0  0  0
    2.2242   -2.6049    0.2534 H   0  0  0  0  0  0  0  0  0  0  0  0
    3.7042   -1.1321   -1.6564 H   0  0  0  0  0  0  0  0  0  0  0  0
    3.7892   -0.9492    0.0803 H   0  0  0  0  0  0  0  0  0  0  0  0
    5.7597   -2.4211   -1.6489 H   0  0  0  0  0  0  0  0  0  0  0  0
    6.0408   -1.5352   -0.1259 H   0  0  0  0  0  0  0  0  0  0  0  0
    3.0871   -5.7441    0.1154 H   0  0  0  0  0  0  0  0  0  0  0  0
    2.3536   -4.0968    2.4146 H   0  0  0  0  0  0  0  0  0  0  0  0
    0.7389   -7.8033    2.2102 H   0  0  0  0  0  0  0  0  0  0  0  0
    1.0625   -6.9216    0.7251 H   0  0  0  0  0  0  0  0  0  0  0  0
    2.6976   -8.8982    2.1231 H   0  0  0  0  0  0  0  0  0  0  0  0
    3.2725   -8.0439    0.7083 H   0  0  0  0  0  0  0  0  0  0  0  0
    4.4566   -7.6351    3.1302 H   0  0  0  0  0  0  0  0  0  0  0  0
    3.0225   -5.5538    4.0930 H   0  0  0  0  0  0  0  0  0  0  0  0
    2.2586   -7.1467    4.1429 H   0  0  0  0  0  0  0  0  0  0  0  0
    4.6427   -4.2541    3.1846 H   0  0  0  0  0  0  0  0  0  0  0  0
    5.6537   -5.6378    3.5509 H   0  0  0  0  0  0  0  0  0  0  0  0
    6.5456   -3.3476    2.4105 H   0  0  0  0  0  0  0  0  0  0  0  0
    7.3781   -4.9116    2.3459 H   0  0  0  0  0  0  0  0  0  0  0  0
    7.9500   -2.8179    0.2725 H   0  0  0  0  0  0  0  0  0  0  0  0
    7.6738   -3.8512   -1.1303 H   0  0  0  0  0  0  0  0  0  0  0  0
    8.5435   -4.4699    0.2588 H   0  0  0  0  0  0  0  0  0  0  0  0
  1  2  1  0
  1 21  1  0
  1 22  1  0
  1 23  1  0
  2  6  1  0
  2  3  1  0
  2 24  1  1
  3  4  1  0
  3 25  1  0
  3 26  1  0
  4  5  1  0
  4 27  1  0
  4 28  1  0
  5 17  1  0
  5  6  2  0
  6  7  1  0
  7 14  1  0
  7  8  1  0
  7 29  1  6
  8  9  1  0
  8 30  1  0
  9 13  1  0
  9 10  1  0
 10 11  1  0
 10 31  1  0
 10 32  1  0
 11 12  1  0
 11 33  1  0
 11 34  1  0
 12 13  1  0
 12 14  1  0
 12 35  1  1
 13 36  1  0
 13 37  1  0
 14 20  1  6
 14 15  1  0
 15 16  1  0
 15 38  1  0
 15 39  1  0
 16 17  1  0
 16 40  1  0
 16 41  1  0
 17 18  1  6
 17 19  1  0
 18 42  1  0
 18 43  1  0
 18 44  1  0
 19 20  1  0
M  END
>  <i_m_ct_stereo_status>  (236) 
1

>  <s_m_source_file>  (236) 
/var/tmp/pbs.5076255.sched01/tmplj_yfvzq/807e0r74np.sdf

>  <i_m_source_file_index>  (236) 
17

>  <i_lp_mmshare_version>  (236) 
48012

>  <i_f3d_flags>  (236) 
0

>  <s_epik_input>  (236) 
W0NIM11bQ0BASF0xW0NIMl1bQ0gyXUMoW0NAXShbQ0gzXSkoT08yKVtDSDJdW0NIMl0zKT1DMVtDQEBIXShbQ0BAXTIzNClbTkhdTjVbQ0gyXVtDSDJdW0NAQEhdNFtDSDJdNQ==

>  <s_epik_cmdline>  (236) 
J2VwaWtfcHl0aG9uJywgJy1waHQnLCAnMi4wJywgJy1waCcsICc3LjAnLCAnLXRuJywgJzgnLCAnLW1hJywgJzIwMCcsICctaW1hZScsICc8aW5maWxlLm1hZT4nLCAnLW9tYWUnLCAnPG91dGZpbGUubWFlPic=

>  <r_epik_Ionization_Penalty>  (236) 
0.0179622

>  <r_epik_Ionization_Penalty_Charging>  (236) 
0

>  <r_epik_Ionization_Penalty_Neutral>  (236) 
0.0179622

>  <r_epik_State_Penalty>  (236) 
0.0141491

>  <r_epik_Charging_Adjusted_Penalty>  (236) 
0.0141491

>  <i_epik_Tot_Q>  (236) 
0

>  <i_epik_Tot_abs_Q>  (236) 
0

>  <s_lp_Force_Field>  (236) 
OPLS3e

>  <r_lp_Energy>  (236) 
30.1647

>  <b_lp_Chiralities_Consistent>  (236) 
1

>  <s_lp_Variant>  (236) 
70:0-1

>  <s_i_glide_gridfile>  (236) 
pfpi4k_grid

>  <i_i_glide_lignum>  (236) 
17

>  <i_i_glide_rotatable_bonds>  (236) 
0

>  <r_i_docking_score>  (236) 
-3.05235

>  <r_i_glide_ligand_efficiency>  (236) 
-0.152618

>  <r_i_glide_ligand_efficiency_sa>  (236) 
-0.414268

>  <r_i_glide_ligand_efficiency_ln>  (236) 
-0.763903

>  <r_i_glide_gscore>  (236) 
-3.05235

>  <r_i_glide_lipo>  (236) 
-0.532769

>  <r_i_glide_hbond>  (236) 
0

>  <r_i_glide_metal>  (236) 
-0

>  <r_i_glide_rewards>  (236) 
-1.52472

>  <r_i_glide_evdw>  (236) 
-16.5658

>  <r_i_glide_ecoul>  (236) 
-0.73418

>  <r_i_glide_erotb>  (236) 
0

>  <r_i_glide_esite>  (236) 
-0.0564398

>  <r_i_glide_emodel>  (236) 
-20.5052

>  <r_i_glide_energy>  (236) 
-17.3

>  <r_i_glide_einternal>  (236) 
0

>  <r_i_glide_intrahb_reward>  (236) 
-0

>  <i_i_glide_confnum>  (236) 
2

>  <i_i_glide_posenum>  (236) 
8

>  <r_i_glide_eff_state_penalty>  (236) 
0

>  <ligand_id>  (236) 
70

>  <original_smiles>  (236) 
CC1CCC2=C1C1NN3CCC(C3)C13CCC2(C)OO3

>  <smiles>  (236) 
[H]N1N2C([H])([H])C([H])([H])C([H])(C2([H])[H])C23OOC(C([H])([H])[H])(C4=C(C12[H])C([H])(C([H])([H])[H])C([H])([H])C4([H])[H])C([H])([H])C3([H])[H]

$$$$
70:0:2
     RDKit          3D

 44 48  0  0  1  0  0  0  0  0999 V2000
    6.5071   -0.8847    0.3060 C   0  0  0  0  0  0  0  0  0  0  0  0
    5.1085   -0.9603    0.8634 C   0  0  2  0  0  0  0  0  0  0  0  0
    5.0667   -1.1753    2.3822 C   0  0  0  0  0  0  0  0  0  0  0  0
    4.9216   -2.6964    2.5630 C   0  0  0  0  0  0  0  0  0  0  0  0
    4.4535   -3.1693    1.2092 C   0  0  0  0  0  0  0  0  0  0  0  0
    4.4944   -2.1975    0.3077 C   0  0  0  0  0  0  0  0  0  0  0  0
    4.1986   -2.2778   -1.1775 C   0  0  2  0  0  0  0  0  0  0  0  0
    3.5338   -1.0836   -1.7622 N   0  0  0  0  0  0  0  0  0  0  0  0
    3.1009   -1.1657   -3.1206 N   0  0  0  0  0  0  0  0  0  0  0  0
    4.1294   -1.5709   -4.0601 C   0  0  0  0  0  0  0  0  0  0  0  0
    4.1966   -3.1133   -4.0193 C   0  0  0  0  0  0  0  0  0  0  0  0
    3.0698   -3.4636   -3.0666 C   0  0  2  0  0  0  0  0  0  0  0  0
    2.2179   -2.2773   -3.2270 C   0  0  0  0  0  0  0  0  0  0  0  0
    3.5506   -3.6297   -1.5661 C   0  0  2  0  0  0  0  0  0  0  0  0
    2.2930   -3.9358   -0.6899 C   0  0  0  0  0  0  0  0  0  0  0  0
    2.5766   -4.6745    0.6090 C   0  0  0  0  0  0  0  0  0  0  0  0
    4.0544   -4.6171    0.9551 C   0  0  2  0  0  0  0  0  0  0  0  0
    4.3473   -5.5192    2.1494 C   0  0  0  0  0  0  0  0  0  0  0  0
    4.8255   -5.2472   -0.0692 O   0  0  0  0  0  0  0  0  0  0  0  0
    4.6183   -4.6445   -1.4687 O   0  0  0  0  0  0  0  0  0  0  0  0
    6.4216   -0.8777   -0.7788 H   0  0  0  0  0  0  0  0  0  0  0  0
    7.1990   -1.6677    0.6640 H   0  0  0  0  0  0  0  0  0  0  0  0
    6.8747    0.0913    0.5260 H   0  0  0  0  0  0  0  0  0  0  0  0
    4.5322   -0.0969    0.5435 H   0  0  0  0  0  0  0  0  0  0  0  0
    5.9192   -0.7422    2.9155 H   0  0  0  0  0  0  0  0  0  0  0  0
    4.1624   -0.6877    2.7475 H   0  0  0  0  0  0  0  0  0  0  0  0
    5.8804   -3.1629    2.8001 H   0  0  0  0  0  0  0  0  0  0  0  0
    4.1920   -2.9428    3.3362 H   0  0  0  0  0  0  0  0  0  0  0  0
    5.1729   -2.3109   -1.6660 H   0  0  0  0  0  0  0  0  0  0  0  0
    2.6836   -0.8647   -1.2252 H   0  0  0  0  0  0  0  0  0  0  0  0
    3.8274   -1.2620   -5.0699 H   0  0  0  0  0  0  0  0  0  0  0  0
    5.0347   -1.0788   -3.7702 H   0  0  0  0  0  0  0  0  0  0  0  0
    3.8847   -3.5495   -4.9601 H   0  0  0  0  0  0  0  0  0  0  0  0
    5.1475   -3.5617   -3.7123 H   0  0  0  0  0  0  0  0  0  0  0  0
    2.3850   -4.2542   -3.4281 H   0  0  0  0  0  0  0  0  0  0  0  0
    1.4484   -2.2697   -2.4724 H   0  0  0  0  0  0  0  0  0  0  0  0
    1.7474   -2.2886   -4.2080 H   0  0  0  0  0  0  0  0  0  0  0  0
    1.7726   -3.0186   -0.4123 H   0  0  0  0  0  0  0  0  0  0  0  0
    1.5596   -4.5108   -1.2493 H   0  0  0  0  0  0  0  0  0  0  0  0
    1.9924   -4.2395    1.4281 H   0  0  0  0  0  0  0  0  0  0  0  0
    2.2597   -5.7104    0.5218 H   0  0  0  0  0  0  0  0  0  0  0  0
    3.8135   -5.2240    3.0518 H   0  0  0  0  0  0  0  0  0  0  0  0
    5.4175   -5.5242    2.3544 H   0  0  0  0  0  0  0  0  0  0  0  0
    4.0623   -6.5436    1.9178 H   0  0  0  0  0  0  0  0  0  0  0  0
  1  2  1  0
  1 21  1  0
  1 22  1  0
  1 23  1  0
  2  6  1  0
  2  3  1  0
  2 24  1  1
  3  4  1  0
  3 25  1  0
  3 26  1  0
  4  5  1  0
  4 27  1  0
  4 28  1  0
  5 17  1  0
  5  6  2  0
  6  7  1  0
  7 14  1  0
  7  8  1  0
  7 29  1  6
  8  9  1  0
  8 30  1  0
  9 13  1  0
  9 10  1  0
 10 11  1  0
 10 31  1  0
 10 32  1  0
 11 12  1  0
 11 33  1  0
 11 34  1  0
 12 13  1  0
 12 14  1  0
 12 35  1  6
 13 36  1  0
 13 37  1  0
 14 20  1  6
 14 15  1  0
 15 16  1  0
 15 38  1  0
 15 39  1  0
 16 17  1  0
 16 40  1  0
 16 41  1  0
 17 18  1  1
 17 19  1  0
 18 42  1  0
 18 43  1  0
 18 44  1  0
 19 20  1  0
M  END
>  <i_m_ct_stereo_status>  (237) 
1

>  <s_m_source_file>  (237) 
/var/tmp/pbs.5076255.sched01/tmplj_yfvzq/807e0r74np.sdf

>  <i_m_source_file_index>  (237) 
17

>  <i_lp_mmshare_version>  (237) 
48012

>  <i_f3d_flags>  (237) 
0

>  <s_epik_input>  (237) 
W0NIM11bQ0BASF0xW0NIMl1bQ0gyXUMoW0NAXShbQ0gzXSkoT08yKVtDSDJdW0NIMl0zKT1DMVtDQEBIXShbQ0BAXTIzNClbTkhdTjVbQ0gyXVtDSDJdW0NAQEhdNFtDSDJdNQ==

>  <s_epik_cmdline>  (237) 
J2VwaWtfcHl0aG9uJywgJy1waHQnLCAnMi4wJywgJy1waCcsICc3LjAnLCAnLXRuJywgJzgnLCAnLW1hJywgJzIwMCcsICctaW1hZScsICc8aW5maWxlLm1hZT4nLCAnLW9tYWUnLCAnPG91dGZpbGUubWFlPic=

>  <r_epik_Ionization_Penalty>  (237) 
0.0179622

>  <r_epik_Ionization_Penalty_Charging>  (237) 
0

>  <r_epik_Ionization_Penalty_Neutral>  (237) 
0.0179622

>  <r_epik_State_Penalty>  (237) 
0.0141491

>  <r_epik_Charging_Adjusted_Penalty>  (237) 
0.0141491

>  <i_epik_Tot_Q>  (237) 
0

>  <i_epik_Tot_abs_Q>  (237) 
0

>  <s_lp_Force_Field>  (237) 
OPLS3e

>  <r_lp_Energy>  (237) 
30.1647

>  <b_lp_Chiralities_Consistent>  (237) 
1

>  <s_lp_Variant>  (237) 
70:0-1

>  <s_i_glide_gridfile>  (237) 
pfpi4k_grid

>  <i_i_glide_lignum>  (237) 
17

>  <i_i_glide_rotatable_bonds>  (237) 
0

>  <r_i_docking_score>  (237) 
-2.83317

>  <r_i_glide_ligand_efficiency>  (237) 
-0.141658

>  <r_i_glide_ligand_efficiency_sa>  (237) 
-0.38452

>  <r_i_glide_ligand_efficiency_ln>  (237) 
-0.709049

>  <r_i_glide_gscore>  (237) 
-2.83317

>  <r_i_glide_lipo>  (237) 
-0.453288

>  <r_i_glide_hbond>  (237) 
-0.16

>  <r_i_glide_metal>  (237) 
-0

>  <r_i_glide_rewards>  (237) 
-1.53269

>  <r_i_glide_evdw>  (237) 
-12.4698

>  <r_i_glide_ecoul>  (237) 
-0.183461

>  <r_i_glide_erotb>  (237) 
0

>  <r_i_glide_esite>  (237) 
-0.0693998

>  <r_i_glide_emodel>  (237) 
-12.1875

>  <r_i_glide_energy>  (237) 
-12.6533

>  <r_i_glide_einternal>  (237) 
0

>  <r_i_glide_intrahb_reward>  (237) 
-0

>  <i_i_glide_confnum>  (237) 
2

>  <i_i_glide_posenum>  (237) 
29

>  <r_i_glide_eff_state_penalty>  (237) 
0

>  <ligand_id>  (237) 
70

>  <original_smiles>  (237) 
CC1CCC2=C1C1NN3CCC(C3)C13CCC2(C)OO3

>  <smiles>  (237) 
[H]N1N2C([H])([H])C([H])([H])C([H])(C2([H])[H])C23OOC(C([H])([H])[H])(C4=C(C12[H])C([H])(C([H])([H])[H])C([H])([H])C4([H])[H])C([H])([H])C3([H])[H]

$$$$
70:1:0
     RDKit          3D

 45 49  0  0  1  0  0  0  0  0999 V2000
    4.0572    0.0253    1.4478 C   0  0  0  0  0  0  0  0  0  0  0  0
    3.6500   -1.4488    1.4993 C   0  0  2  0  0  0  0  0  0  0  0  0
    4.0166   -2.0846    2.8663 C   0  0  0  0  0  0  0  0  0  0  0  0
    5.3284   -2.8623    2.6387 C   0  0  0  0  0  0  0  0  0  0  0  0
    5.3880   -2.9892    1.1399 C   0  0  0  0  0  0  0  0  0  0  0  0
    4.4731   -2.2587    0.5309 C   0  0  0  0  0  0  0  0  0  0  0  0
    4.2812   -2.1570   -0.9926 C   0  0  2  0  0  0  0  0  0  0  0  0
    2.8754   -2.2735   -1.3034 N   0  0  0  0  0  0  0  0  0  0  0  0
    2.5452   -2.1769   -2.7278 N   0  0  1  0  0  0  0  0  0  0  0  0
    3.1666   -1.0637   -3.4214 C   0  0  0  0  0  0  0  0  0  0  0  0
    4.5016   -1.6631   -3.8425 C   0  0  0  0  0  0  0  0  0  0  0  0
    4.5052   -3.1362   -3.3505 C   0  0  2  0  0  0  0  0  0  0  0  0
    2.9899   -3.3684   -3.4368 C   0  0  0  0  0  0  0  0  0  0  0  0
    5.0387   -3.2151   -1.8629 C   0  0  2  0  0  0  0  0  0  0  0  0
    4.8427   -4.6459   -1.3066 C   0  0  0  0  0  0  0  0  0  0  0  0
    5.6829   -5.0476   -0.0985 C   0  0  0  0  0  0  0  0  0  0  0  0
    6.4163   -3.8263    0.4275 C   0  0  2  0  0  0  0  0  0  0  0  0
    7.5343   -4.3548    1.2919 C   0  0  0  0  0  0  0  0  0  0  0  0
    7.0830   -2.9724   -0.5351 O   0  0  0  0  0  0  0  0  0  0  0  0
    6.4560   -3.0389   -1.9318 O   0  0  0  0  0  0  0  0  0  0  0  0
    3.8473    0.4775    0.4787 H   0  0  0  0  0  0  0  0  0  0  0  0
    5.1280    0.1198    1.6338 H   0  0  0  0  0  0  0  0  0  0  0  0
    3.5381    0.6096    2.2064 H   0  0  0  0  0  0  0  0  0  0  0  0
    2.5830   -1.5532    1.2947 H   0  0  0  0  0  0  0  0  0  0  0  0
    4.0846   -1.3749    3.6985 H   0  0  0  0  0  0  0  0  0  0  0  0
    3.2433   -2.8072    3.1284 H   0  0  0  0  0  0  0  0  0  0  0  0
    6.1948   -2.2740    2.9330 H   0  0  0  0  0  0  0  0  0  0  0  0
    5.3415   -3.8393    3.1295 H   0  0  0  0  0  0  0  0  0  0  0  0
    4.6161   -1.1543   -1.2394 H   0  0  0  0  0  0  0  0  0  0  0  0
    2.4880   -3.1982   -1.1485 H   0  0  0  0  0  0  0  0  0  0  0  0
    2.6078   -0.7558   -4.3103 H   0  0  0  0  0  0  0  0  0  0  0  0
    3.2737   -0.1780   -2.7916 H   0  0  0  0  0  0  0  0  0  0  0  0
    4.6061   -1.5680   -4.9245 H   0  0  0  0  0  0  0  0  0  0  0  0
    5.2531   -1.1051   -3.3026 H   0  0  0  0  0  0  0  0  0  0  0  0
    5.0580   -3.8045   -4.0264 H   0  0  0  0  0  0  0  0  0  0  0  0
    2.5610   -4.2517   -2.9878 H   0  0  0  0  0  0  0  0  0  0  0  0
    2.6524   -3.3626   -4.4805 H   0  0  0  0  0  0  0  0  0  0  0  0
    3.8067   -4.7812   -1.0196 H   0  0  0  0  0  0  0  0  0  0  0  0
    5.0136   -5.3302   -2.1224 H   0  0  0  0  0  0  0  0  0  0  0  0
    5.0735   -5.5715    0.6517 H   0  0  0  0  0  0  0  0  0  0  0  0
    6.4373   -5.8037   -0.2769 H   0  0  0  0  0  0  0  0  0  0  0  0
    7.1609   -4.9410    2.1432 H   0  0  0  0  0  0  0  0  0  0  0  0
    8.0614   -3.4610    1.5961 H   0  0  0  0  0  0  0  0  0  0  0  0
    8.2690   -4.9616    0.7545 H   0  0  0  0  0  0  0  0  0  0  0  0
    1.5318   -2.0834   -2.7322 H   0  0  0  0  0  0  0  0  0  0  0  0
  1  2  1  0
  1 21  1  0
  1 22  1  0
  1 23  1  0
  2  6  1  0
  2  3  1  0
  2 24  1  6
  3  4  1  0
  3 25  1  0
  3 26  1  0
  4  5  1  0
  4 27  1  0
  4 28  1  0
  5 17  1  0
  5  6  2  0
  6  7  1  0
  7 14  1  0
  7  8  1  0
  7 29  1  6
  8  9  1  0
  8 30  1  0
  9 13  1  0
  9 10  1  0
  9 45  1  1
 10 11  1  0
 10 31  1  0
 10 32  1  0
 11 12  1  0
 11 33  1  0
 11 34  1  0
 12 13  1  0
 12 14  1  0
 12 35  1  6
 13 36  1  0
 13 37  1  0
 14 20  1  6
 14 15  1  0
 15 16  1  0
 15 38  1  0
 15 39  1  0
 16 17  1  0
 16 40  1  0
 16 41  1  0
 17 18  1  1
 17 19  1  0
 18 42  1  0
 18 43  1  0
 18 44  1  0
 19 20  1  0
M  CHG  1   9   1
M  END
>  <i_m_ct_stereo_status>  (238) 
1

>  <s_m_source_file>  (238) 
/var/tmp/pbs.5076255.sched01/tmplj_yfvzq/807e0r74np.sdf

>  <i_m_source_file_index>  (238) 
18

>  <i_lp_mmshare_version>  (238) 
48012

>  <i_f3d_flags>  (238) 
0

>  <s_epik_input>  (238) 
W0NIM11bQ0BASF0xW0NIMl1bQ0gyXUMoW0NAXShbQ0gzXSkoT08yKVtDSDJdW0NIMl0zKT1DMVtDQEBIXShbQ0BAXTIzNClbTkhdTjVbQ0gyXVtDSDJdW0NAQEhdNFtDSDJdNQ==

>  <s_epik_cmdline>  (238) 
J2VwaWtfcHl0aG9uJywgJy1waHQnLCAnMi4wJywgJy1waCcsICc3LjAnLCAnLXRuJywgJzgnLCAnLW1hJywgJzIwMCcsICctaW1hZScsICc8aW5maWxlLm1hZT4nLCAnLW9tYWUnLCAnPG91dGZpbGUubWFlPic=

>  <r_epik_Ionization_Penalty>  (238) 
2.09622

>  <r_epik_Ionization_Penalty_Charging>  (238) 
2.09622

>  <r_epik_Ionization_Penalty_Neutral>  (238) 
1.72956e-10

>  <r_epik_State_Penalty>  (238) 
2.23233

>  <r_epik_Charging_Adjusted_Penalty>  (238) 
4.32856

>  <i_epik_Tot_Q>  (238) 
1

>  <i_epik_Tot_abs_Q>  (238) 
1

>  <s_lp_Force_Field>  (238) 
OPLS3e

>  <r_lp_Energy>  (238) 
36.5748

>  <b_lp_Chiralities_Consistent>  (238) 
1

>  <s_lp_Variant>  (238) 
70:0-2

>  <s_i_glide_gridfile>  (238) 
pfpi4k_grid

>  <i_i_glide_lignum>  (238) 
18

>  <i_i_glide_rotatable_bonds>  (238) 
0

>  <r_i_docking_score>  (238) 
-3.64297

>  <r_i_glide_ligand_efficiency>  (238) 
-0.182149

>  <r_i_glide_ligand_efficiency_sa>  (238) 
-0.494428

>  <r_i_glide_ligand_efficiency_ln>  (238) 
-0.911716

>  <r_i_glide_gscore>  (238) 
-3.64297

>  <r_i_glide_lipo>  (238) 
-1.05456

>  <r_i_glide_hbond>  (238) 
-0.0180533

>  <r_i_glide_metal>  (238) 
-0

>  <r_i_glide_rewards>  (238) 
-1.51785

>  <r_i_glide_evdw>  (238) 
-9.98781

>  <r_i_glide_ecoul>  (238) 
-3.36557

>  <r_i_glide_erotb>  (238) 
0

>  <r_i_glide_esite>  (238) 
-0.0482845

>  <r_i_glide_emodel>  (238) 
-17.6227

>  <r_i_glide_energy>  (238) 
-13.3534

>  <r_i_glide_einternal>  (238) 
0

>  <r_i_glide_intrahb_reward>  (238) 
-0

>  <i_i_glide_confnum>  (238) 
1

>  <i_i_glide_posenum>  (238) 
1

>  <r_i_glide_eff_state_penalty>  (238) 
0

>  <ligand_id>  (238) 
70

>  <original_smiles>  (238) 
CC1CCC2=C1C1NN3CCC(C3)C13CCC2(C)OO3

>  <smiles>  (238) 
[H]N1C2([H])C3=C(C([H])([H])C([H])([H])C3([H])C([H])([H])[H])C3(C([H])([H])[H])OOC2(C([H])([H])C3([H])[H])C2([H])C([H])([H])C([H])([H])[N+]1([H])C2([H])[H]

$$$$
70:1:1
     RDKit          3D

 45 49  0  0  1  0  0  0  0  0999 V2000
    5.4645   -0.2594    2.8854 C   0  0  0  0  0  0  0  0  0  0  0  0
    4.2043   -1.1335    2.9039 C   0  0  2  0  0  0  0  0  0  0  0  0
    3.8822   -1.6440    4.3276 C   0  0  0  0  0  0  0  0  0  0  0  0
    4.4062   -3.0910    4.3884 C   0  0  0  0  0  0  0  0  0  0  0  0
    4.5390   -3.4699    2.9364 C   0  0  0  0  0  0  0  0  0  0  0  0
    4.4073   -2.4190    2.1262 C   0  0  0  0  0  0  0  0  0  0  0  0
    4.5314   -2.4212    0.6114 C   0  0  2  0  0  0  0  0  0  0  0  0
    3.4840   -1.5721   -0.0027 N   0  0  0  0  0  0  0  0  0  0  0  0
    3.5097   -1.6094   -1.4849 N   0  0  1  0  0  0  0  0  0  0  0  0
    4.8416   -1.2969   -2.0455 C   0  0  0  0  0  0  0  0  0  0  0  0
    5.5440   -2.6734   -2.1465 C   0  0  0  0  0  0  0  0  0  0  0  0
    4.5057   -3.6778   -1.5976 C   0  0  2  0  0  0  0  0  0  0  0  0
    3.2103   -2.9561   -1.9759 C   0  0  0  0  0  0  0  0  0  0  0  0
    4.5579   -3.8501   -0.0505 C   0  0  2  0  0  0  0  0  0  0  0  0
    3.4234   -4.7862    0.4332 C   0  0  0  0  0  0  0  0  0  0  0  0
    3.7539   -5.5240    1.7317 C   0  0  0  0  0  0  0  0  0  0  0  0
    4.9214   -4.8725    2.4858 C   0  0  2  0  0  0  0  0  0  0  0  0
    5.3334   -5.7679    3.6739 C   0  0  0  0  0  0  0  0  0  0  0  0
    6.0873   -4.7496    1.6659 O   0  0  0  0  0  0  0  0  0  0  0  0
    5.7551   -4.5961    0.1805 O   0  0  0  0  0  0  0  0  0  0  0  0
    5.7160    0.0701    1.8784 H   0  0  0  0  0  0  0  0  0  0  0  0
    6.3315   -0.7952    3.2679 H   0  0  0  0  0  0  0  0  0  0  0  0
    5.3311    0.6213    3.5159 H   0  0  0  0  0  0  0  0  0  0  0  0
    3.3618   -0.5753    2.4981 H   0  0  0  0  0  0  0  0  0  0  0  0
    4.2649   -1.0076    5.1303 H   0  0  0  0  0  0  0  0  0  0  0  0
    2.7984   -1.6712    4.4346 H   0  0  0  0  0  0  0  0  0  0  0  0
    5.3837   -3.1350    4.8701 H   0  0  0  0  0  0  0  0  0  0  0  0
    3.7181   -3.7562    4.9098 H   0  0  0  0  0  0  0  0  0  0  0  0
    5.4912   -1.9391    0.4270 H   0  0  0  0  0  0  0  0  0  0  0  0
    2.5524   -1.9530    0.1094 H   0  0  0  0  0  0  0  0  0  0  0  0
    4.7367   -0.8651   -3.0415 H   0  0  0  0  0  0  0  0  0  0  0  0
    5.3957   -0.5831   -1.4318 H   0  0  0  0  0  0  0  0  0  0  0  0
    5.7521   -2.9021   -3.1957 H   0  0  0  0  0  0  0  0  0  0  0  0
    6.4931   -2.7080   -1.6051 H   0  0  0  0  0  0  0  0  0  0  0  0
    4.6128   -4.6449   -2.0973 H   0  0  0  0  0  0  0  0  0  0  0  0
    2.2887   -3.3805   -1.5712 H   0  0  0  0  0  0  0  0  0  0  0  0
    3.0999   -2.9350   -3.0588 H   0  0  0  0  0  0  0  0  0  0  0  0
    2.4924   -4.2338    0.5531 H   0  0  0  0  0  0  0  0  0  0  0  0
    3.2284   -5.5479   -0.3205 H   0  0  0  0  0  0  0  0  0  0  0  0
    2.8675   -5.5515    2.3698 H   0  0  0  0  0  0  0  0  0  0  0  0
    3.9972   -6.5650    1.5074 H   0  0  0  0  0  0  0  0  0  0  0  0
    4.5183   -5.8957    4.3903 H   0  0  0  0  0  0  0  0  0  0  0  0
    6.1865   -5.3456    4.2041 H   0  0  0  0  0  0  0  0  0  0  0  0
    5.6185   -6.7643    3.3379 H   0  0  0  0  0  0  0  0  0  0  0  0
    2.7874   -0.9556   -1.7659 H   0  0  0  0  0  0  0  0  0  0  0  0
  1  2  1  0
  1 21  1  0
  1 22  1  0
  1 23  1  0
  2  6  1  0
  2  3  1  0
  2 24  1  6
  3  4  1  0
  3 25  1  0
  3 26  1  0
  4  5  1  0
  4 27  1  0
  4 28  1  0
  5 17  1  0
  5  6  2  0
  6  7  1  0
  7 14  1  0
  7  8  1  0
  7 29  1  1
  8  9  1  0
  8 30  1  0
  9 13  1  0
  9 10  1  0
  9 45  1  6
 10 11  1  0
 10 31  1  0
 10 32  1  0
 11 12  1  0
 11 33  1  0
 11 34  1  0
 12 13  1  0
 12 14  1  0
 12 35  1  6
 13 36  1  0
 13 37  1  0
 14 20  1  6
 14 15  1  0
 15 16  1  0
 15 38  1  0
 15 39  1  0
 16 17  1  0
 16 40  1  0
 16 41  1  0
 17 18  1  1
 17 19  1  0
 18 42  1  0
 18 43  1  0
 18 44  1  0
 19 20  1  0
M  CHG  1   9   1
M  END
>  <i_m_ct_stereo_status>  (239) 
1

>  <s_m_source_file>  (239) 
/var/tmp/pbs.5076255.sched01/tmplj_yfvzq/807e0r74np.sdf

>  <i_m_source_file_index>  (239) 
18

>  <i_lp_mmshare_version>  (239) 
48012

>  <i_f3d_flags>  (239) 
0

>  <s_epik_input>  (239) 
W0NIM11bQ0BASF0xW0NIMl1bQ0gyXUMoW0NAXShbQ0gzXSkoT08yKVtDSDJdW0NIMl0zKT1DMVtDQEBIXShbQ0BAXTIzNClbTkhdTjVbQ0gyXVtDSDJdW0NAQEhdNFtDSDJdNQ==

>  <s_epik_cmdline>  (239) 
J2VwaWtfcHl0aG9uJywgJy1waHQnLCAnMi4wJywgJy1waCcsICc3LjAnLCAnLXRuJywgJzgnLCAnLW1hJywgJzIwMCcsICctaW1hZScsICc8aW5maWxlLm1hZT4nLCAnLW9tYWUnLCAnPG91dGZpbGUubWFlPic=

>  <r_epik_Ionization_Penalty>  (239) 
2.09622

>  <r_epik_Ionization_Penalty_Charging>  (239) 
2.09622

>  <r_epik_Ionization_Penalty_Neutral>  (239) 
1.72956e-10

>  <r_epik_State_Penalty>  (239) 
2.23233

>  <r_epik_Charging_Adjusted_Penalty>  (239) 
4.32856

>  <i_epik_Tot_Q>  (239) 
1

>  <i_epik_Tot_abs_Q>  (239) 
1

>  <s_lp_Force_Field>  (239) 
OPLS3e

>  <r_lp_Energy>  (239) 
36.5748

>  <b_lp_Chiralities_Consistent>  (239) 
1

>  <s_lp_Variant>  (239) 
70:0-2

>  <s_i_glide_gridfile>  (239) 
pfpi4k_grid

>  <i_i_glide_lignum>  (239) 
18

>  <i_i_glide_rotatable_bonds>  (239) 
0

>  <r_i_docking_score>  (239) 
-3.61392

>  <r_i_glide_ligand_efficiency>  (239) 
-0.180696

>  <r_i_glide_ligand_efficiency_sa>  (239) 
-0.490485

>  <r_i_glide_ligand_efficiency_ln>  (239) 
-0.904445

>  <r_i_glide_gscore>  (239) 
-3.61392

>  <r_i_glide_lipo>  (239) 
-0.282004

>  <r_i_glide_hbond>  (239) 
-0.0716976

>  <r_i_glide_metal>  (239) 
-0

>  <r_i_glide_rewards>  (239) 
-1.51785

>  <r_i_glide_evdw>  (239) 
-20.0436

>  <r_i_glide_ecoul>  (239) 
-4.34552

>  <r_i_glide_erotb>  (239) 
0

>  <r_i_glide_esite>  (239) 
-0.088363

>  <r_i_glide_emodel>  (239) 
-29.9001

>  <r_i_glide_energy>  (239) 
-24.3891

>  <r_i_glide_einternal>  (239) 
0

>  <r_i_glide_intrahb_reward>  (239) 
-0

>  <i_i_glide_confnum>  (239) 
2

>  <i_i_glide_posenum>  (239) 
30

>  <r_i_glide_eff_state_penalty>  (239) 
0

>  <ligand_id>  (239) 
70

>  <original_smiles>  (239) 
CC1CCC2=C1C1NN3CCC(C3)C13CCC2(C)OO3

>  <smiles>  (239) 
[H]N1C2([H])C3=C(C([H])([H])C([H])([H])C3([H])C([H])([H])[H])C3(C([H])([H])[H])OOC2(C([H])([H])C3([H])[H])C2([H])C([H])([H])C([H])([H])[N+]1([H])C2([H])[H]

$$$$
72:0:0
     RDKit          3D

 60 64  0  0  1  0  0  0  0  0999 V2000
    4.4954   -3.5293    6.4263 C   0  0  0  0  0  0  0  0  0  0  0  0
    3.6580   -2.8823    5.3008 C   0  0  0  0  0  0  0  0  0  0  0  0
    2.4753   -2.0868    5.8633 C   0  0  0  0  0  0  0  0  0  0  0  0
    4.4333   -1.9968    4.5711 O   0  0  0  0  0  0  0  0  0  0  0  0
    4.9832   -2.7023    3.4764 C   0  0  2  0  0  0  0  0  0  0  0  0
    5.2083   -1.7226    2.1740 C   0  0  1  0  0  0  0  0  0  0  0  0
    6.5525   -1.3314    1.9831 O   0  0  0  0  0  0  0  0  0  0  0  0
    4.5704   -2.2517    0.8065 C   0  0  2  0  0  0  0  0  0  0  0  0
    4.4884   -3.6740    1.1719 C   0  0  1  0  0  0  0  0  0  0  0  0
    5.8550   -4.0620    1.2526 O   0  0  0  0  0  0  0  0  0  0  0  0
    6.3254   -3.5815   -0.0256 C   0  0  0  0  0  0  0  0  0  0  0  0
    5.1490   -2.6708   -0.5291 C   0  0  2  0  0  0  0  0  0  0  0  0
    5.7082   -1.4533   -1.2610 C   0  0  0  0  0  0  0  0  0  0  0  0
    4.6345   -0.5524   -1.8326 C   0  0  0  0  0  0  0  0  0  0  0  0
    3.4455   -1.2236   -2.4924 C   0  0  1  0  0  0  0  0  0  0  0  0
    3.1428   -0.5043   -3.6851 O   0  0  0  0  0  0  0  0  0  0  0  0
    3.6038   -2.7449   -2.7139 C   0  0  0  0  0  0  0  0  0  0  0  0
    2.2975   -3.1849   -3.4057 C   0  0  0  0  0  0  0  0  0  0  0  0
    4.7353   -3.0663   -3.6951 C   0  0  0  0  0  0  0  0  0  0  0  0
    3.9168   -3.4423   -1.3399 C   0  0  2  0  0  0  0  0  0  0  0  0
    2.5459   -3.9045   -0.5322 C   0  0  0  0  0  0  0  0  0  0  0  0
    2.4643   -4.6377    0.9464 C   0  0  0  0  0  0  0  0  0  0  0  0
    3.2402   -3.7667    2.0171 C   0  0  2  0  0  0  0  0  0  0  0  0
    2.2335   -2.5849    2.2776 C   0  0  0  0  0  0  0  0  0  0  0  0
    4.0034   -3.9537    3.3346 C   0  0  2  0  0  0  0  0  0  0  0  0
    3.1678   -3.8839    4.4772 O   0  0  0  0  0  0  0  0  0  0  0  0
    5.3336   -4.1113    6.0286 H   0  0  0  0  0  0  0  0  0  0  0  0
    3.8616   -4.2025    7.0068 H   0  0  0  0  0  0  0  0  0  0  0  0
    4.8861   -2.7646    7.1005 H   0  0  0  0  0  0  0  0  0  0  0  0
    1.9387   -1.6179    5.0474 H   0  0  0  0  0  0  0  0  0  0  0  0
    2.8439   -1.3139    6.5318 H   0  0  0  0  0  0  0  0  0  0  0  0
    1.8103   -2.7529    6.4011 H   0  0  0  0  0  0  0  0  0  0  0  0
    5.9220   -3.1113    3.8052 H   0  0  0  0  0  0  0  0  0  0  0  0
    4.6833   -0.7878    2.4134 H   0  0  0  0  0  0  0  0  0  0  0  0
    6.5725   -0.4634    1.6107 H   0  0  0  0  0  0  0  0  0  0  0  0
    3.6542   -1.6976    0.5661 H   0  0  0  0  0  0  0  0  0  0  0  0
    4.5290   -4.5781    0.5554 H   0  0  0  0  0  0  0  0  0  0  0  0
    7.2624   -3.0364    0.1165 H   0  0  0  0  0  0  0  0  0  0  0  0
    6.5120   -4.4021   -0.7131 H   0  0  0  0  0  0  0  0  0  0  0  0
    6.2862   -0.8524   -0.5641 H   0  0  0  0  0  0  0  0  0  0  0  0
    6.4079   -1.7591   -2.0349 H   0  0  0  0  0  0  0  0  0  0  0  0
    4.2405    0.0552   -1.0176 H   0  0  0  0  0  0  0  0  0  0  0  0
    5.0960    0.1317   -2.5391 H   0  0  0  0  0  0  0  0  0  0  0  0
    2.6135   -1.0866   -1.8061 H   0  0  0  0  0  0  0  0  0  0  0  0
    2.7173    0.3125   -3.4410 H   0  0  0  0  0  0  0  0  0  0  0  0
    2.2839   -4.2595   -3.5625 H   0  0  0  0  0  0  0  0  0  0  0  0
    2.2055   -2.7493   -4.3990 H   0  0  0  0  0  0  0  0  0  0  0  0
    1.4087   -2.9109   -2.8378 H   0  0  0  0  0  0  0  0  0  0  0  0
    4.5012   -3.8971   -4.3541 H   0  0  0  0  0  0  0  0  0  0  0  0
    5.6790   -3.3271   -3.2183 H   0  0  0  0  0  0  0  0  0  0  0  0
    4.9186   -2.1790   -4.2937 H   0  0  0  0  0  0  0  0  0  0  0  0
    4.3537   -4.3918   -1.6386 H   0  0  0  0  0  0  0  0  0  0  0  0
    1.8850   -3.0475   -0.5215 H   0  0  0  0  0  0  0  0  0  0  0  0
    2.0351   -4.6092   -1.1808 H   0  0  0  0  0  0  0  0  0  0  0  0
    1.4267   -4.7561    1.2622 H   0  0  0  0  0  0  0  0  0  0  0  0
    2.8619   -5.6602    0.8965 H   0  0  0  0  0  0  0  0  0  0  0  0
    1.4185   -2.9342    2.9089 H   0  0  0  0  0  0  0  0  0  0  0  0
    1.7615   -2.1866    1.3872 H   0  0  0  0  0  0  0  0  0  0  0  0
    2.6588   -1.7277    2.7883 H   0  0  0  0  0  0  0  0  0  0  0  0
    4.5610   -4.8912    3.3588 H   0  0  0  0  0  0  0  0  0  0  0  0
  1  2  1  0
  1 27  1  0
  1 28  1  0
  1 29  1  0
  2 26  1  0
  2  3  1  0
  2  4  1  0
  3 30  1  0
  3 31  1  0
  3 32  1  0
  4  5  1  0
  5 25  1  0
  5  6  1  0
  5 33  1  1
  6  7  1  0
  6  8  1  0
  6 34  1  1
  7 35  1  0
  8 12  1  0
  8  9  1  0
  8 36  1  6
  9 23  1  0
  9 10  1  0
  9 37  1  6
 10 11  1  0
 12 11  1  1
 11 38  1  0
 11 39  1  0
 12 20  1  0
 12 13  1  0
 13 14  1  0
 13 40  1  0
 13 41  1  0
 14 15  1  0
 14 42  1  0
 14 43  1  0
 15 16  1  0
 15 17  1  0
 15 44  1  1
 16 45  1  0
 17 18  1  0
 17 19  1  0
 17 20  1  0
 18 46  1  0
 18 47  1  0
 18 48  1  0
 19 49  1  0
 19 50  1  0
 19 51  1  0
 20 21  1  0
 20 52  1  6
 21 22  1  0
 21 53  1  0
 21 54  1  0
 22 23  1  0
 22 55  1  0
 22 56  1  0
 23 24  1  1
 23 25  1  0
 24 57  1  0
 24 58  1  0
 24 59  1  0
 25 26  1  0
 25 60  1  6
M  END
>  <i_m_ct_stereo_status>  (240) 
1

>  <s_m_source_file>  (240) 
/var/tmp/pbs.5076255.sched01/tmplj_yfvzq/807e0r74np.sdf

>  <i_m_source_file_index>  (240) 
20

>  <i_lp_mmshare_version>  (240) 
48012

>  <i_f3d_flags>  (240) 
0

>  <s_epik_input>  (240) 
W0NIM11DKE8xKShbQ0gzXSlPW0NASF0oW0NASF0yW09IXSlbQ0BASF0xW0NAQF0oW0NIM10pKFtDQEBIXShbQ0BASF0yW0NAXTM0NSlPW0NIMl0zKVtDSDJdW0NIMl1bQ0BIXTVDKFtDSDNdKShbQ0gzXSlbQ0BIXShbT0hdKVtDSDJdW0NIMl00

>  <s_epik_cmdline>  (240) 
J2VwaWtfcHl0aG9uJywgJy1waHQnLCAnMi4wJywgJy1waCcsICc3LjAnLCAnLXRuJywgJzgnLCAnLW1hJywgJzIwMCcsICctaW1hZScsICc8aW5maWxlLm1hZT4nLCAnLW9tYWUnLCAnPG91dGZpbGUubWFlPic=

>  <r_lp_tautomer_probability>  (240) 
1

>  <r_epik_Ionization_Penalty>  (240) 
1.91187e-06

>  <r_epik_Ionization_Penalty_Charging>  (240) 
0

>  <r_epik_Ionization_Penalty_Neutral>  (240) 
1.91187e-06

>  <r_epik_State_Penalty>  (240) 
-0

>  <r_epik_Charging_Adjusted_Penalty>  (240) 
0

>  <i_epik_Tot_Q>  (240) 
0

>  <i_epik_Tot_abs_Q>  (240) 
0

>  <s_lp_Force_Field>  (240) 
OPLS3e

>  <r_lp_Energy>  (240) 
200.458

>  <b_lp_Chiralities_Consistent>  (240) 
1

>  <s_lp_Variant>  (240) 
72:0-1

>  <s_i_glide_gridfile>  (240) 
pfpi4k_grid

>  <i_i_glide_lignum>  (240) 
20

>  <i_i_glide_rotatable_bonds>  (240) 
2

>  <r_i_docking_score>  (240) 
-3.20138

>  <r_i_glide_ligand_efficiency>  (240) 
-0.12313

>  <r_i_glide_ligand_efficiency_sa>  (240) 
-0.364772

>  <r_i_glide_ligand_efficiency_ln>  (240) 
-0.751834

>  <r_i_glide_gscore>  (240) 
-3.20138

>  <r_i_glide_lipo>  (240) 
-0.650541

>  <r_i_glide_hbond>  (240) 
-0.120788

>  <r_i_glide_metal>  (240) 
-0

>  <r_i_glide_rewards>  (240) 
-0.910284

>  <r_i_glide_evdw>  (240) 
-18.4501

>  <r_i_glide_ecoul>  (240) 
-3.98174

>  <r_i_glide_erotb>  (240) 
0

>  <r_i_glide_esite>  (240) 
0

>  <r_i_glide_emodel>  (240) 
-22.1511

>  <r_i_glide_energy>  (240) 
-22.4319

>  <r_i_glide_einternal>  (240) 
1.05091

>  <r_i_glide_intrahb_reward>  (240) 
-0

>  <i_i_glide_confnum>  (240) 
1

>  <i_i_glide_posenum>  (240) 
6

>  <r_i_glide_eff_state_penalty>  (240) 
0

>  <ligand_id>  (240) 
72

>  <original_smiles>  (240) 
CC1(C)OC2C(O)C3C4OCC35CCC(O)C(C)(C)C5CCC4(C)C2O1

>  <smiles>  (240) 
[H]OC1([H])C2([H])OC(C([H])([H])[H])(C([H])([H])[H])OC2([H])C2(C([H])([H])[H])C([H])([H])C([H])([H])C3([H])C(C([H])([H])[H])(C([H])([H])[H])C([H])(O[H])C([H])([H])C([H])([H])C34C([H])([H])OC2([H])C14[H]

$$$$
72:0:1
     RDKit          3D

 60 64  0  0  1  0  0  0  0  0999 V2000
    3.8256   -4.1740    6.5378 C   0  0  0  0  0  0  0  0  0  0  0  0
    3.0704   -3.4698    5.3952 C   0  0  0  0  0  0  0  0  0  0  0  0
    1.8456   -2.7165    5.9148 C   0  0  0  0  0  0  0  0  0  0  0  0
    3.9045   -2.5431    4.7649 O   0  0  0  0  0  0  0  0  0  0  0  0
    4.5370   -3.1863    3.6881 C   0  0  2  0  0  0  0  0  0  0  0  0
    4.7846   -2.1122    2.4477 C   0  0  1  0  0  0  0  0  0  0  0  0
    6.0867   -1.6002    2.3610 O   0  0  0  0  0  0  0  0  0  0  0  0
    4.2792   -2.5627    1.0012 C   0  0  2  0  0  0  0  0  0  0  0  0
    4.2075   -4.0017    1.2988 C   0  0  1  0  0  0  0  0  0  0  0  0
    5.5546   -4.3945    1.4394 O   0  0  0  0  0  0  0  0  0  0  0  0
    6.1087   -3.8387    0.2236 C   0  0  0  0  0  0  0  0  0  0  0  0
    4.9663   -2.8966   -0.3043 C   0  0  2  0  0  0  0  0  0  0  0  0
    5.6101   -1.6463   -0.9251 C   0  0  0  0  0  0  0  0  0  0  0  0
    4.6013   -0.6986   -1.5211 C   0  0  0  0  0  0  0  0  0  0  0  0
    3.4923   -1.3504   -2.3257 C   0  0  1  0  0  0  0  0  0  0  0  0
    3.2430   -0.5644   -3.4897 O   0  0  0  0  0  0  0  0  0  0  0  0
    3.5944   -2.8682   -2.6061 C   0  0  0  0  0  0  0  0  0  0  0  0
    2.3113   -3.2422   -3.3881 C   0  0  0  0  0  0  0  0  0  0  0  0
    4.7799   -3.1542   -3.5408 C   0  0  0  0  0  0  0  0  0  0  0  0
    3.7943   -3.6292   -1.2356 C   0  0  2  0  0  0  0  0  0  0  0  0
    2.3503   -4.1265   -0.5266 C   0  0  0  0  0  0  0  0  0  0  0  0
    2.2255   -4.9803    0.9025 C   0  0  0  0  0  0  0  0  0  0  0  0
    2.9115   -4.1687    2.0566 C   0  0  2  0  0  0  0  0  0  0  0  0
    1.8954   -2.9965    2.3565 C   0  0  0  0  0  0  0  0  0  0  0  0
    3.5863   -4.4385    3.4132 C   0  0  2  0  0  0  0  0  0  0  0  0
    2.6536   -4.4383    4.4801 O   0  0  0  0  0  0  0  0  0  0  0  0
    4.6955   -4.7296    6.1637 H   0  0  0  0  0  0  0  0  0  0  0  0
    3.1578   -4.8803    7.0313 H   0  0  0  0  0  0  0  0  0  0  0  0
    4.1633   -3.4407    7.2719 H   0  0  0  0  0  0  0  0  0  0  0  0
    1.3470   -2.1951    5.0935 H   0  0  0  0  0  0  0  0  0  0  0  0
    2.1582   -1.9734    6.6506 H   0  0  0  0  0  0  0  0  0  0  0  0
    1.1403   -3.4110    6.3734 H   0  0  0  0  0  0  0  0  0  0  0  0
    5.4864   -3.5955    4.0363 H   0  0  0  0  0  0  0  0  0  0  0  0
    4.1798   -1.2432    2.7083 H   0  0  0  0  0  0  0  0  0  0  0  0
    6.3644   -1.3703    3.2325 H   0  0  0  0  0  0  0  0  0  0  0  0
    3.3812   -2.0127    0.7249 H   0  0  0  0  0  0  0  0  0  0  0  0
    4.2943   -4.8790    0.6387 H   0  0  0  0  0  0  0  0  0  0  0  0
    7.0194   -3.3184    0.4788 H   0  0  0  0  0  0  0  0  0  0  0  0
    6.3189   -4.6301   -0.4985 H   0  0  0  0  0  0  0  0  0  0  0  0
    6.1386   -1.0874   -0.1572 H   0  0  0  0  0  0  0  0  0  0  0  0
    6.3519   -1.9066   -1.6725 H   0  0  0  0  0  0  0  0  0  0  0  0
    4.1201   -0.2420   -0.6594 H   0  0  0  0  0  0  0  0  0  0  0  0
    5.0817    0.0875   -2.0965 H   0  0  0  0  0  0  0  0  0  0  0  0
    2.6442   -1.2770   -1.6535 H   0  0  0  0  0  0  0  0  0  0  0  0
    2.7445    0.1936   -3.2198 H   0  0  0  0  0  0  0  0  0  0  0  0
    2.2359   -4.2996   -3.6269 H   0  0  0  0  0  0  0  0  0  0  0  0
    2.2896   -2.7410   -4.3587 H   0  0  0  0  0  0  0  0  0  0  0  0
    1.4133   -2.9593   -2.8516 H   0  0  0  0  0  0  0  0  0  0  0  0
    4.5651   -4.0007   -4.1984 H   0  0  0  0  0  0  0  0  0  0  0  0
    5.7016   -3.3800   -3.0188 H   0  0  0  0  0  0  0  0  0  0  0  0
    4.9840   -2.2782   -4.1542 H   0  0  0  0  0  0  0  0  0  0  0  0
    4.2407   -4.5727   -1.5379 H   0  0  0  0  0  0  0  0  0  0  0  0
    1.7698   -3.2172   -0.4439 H   0  0  0  0  0  0  0  0  0  0  0  0
    1.8017   -4.7211   -1.2367 H   0  0  0  0  0  0  0  0  0  0  0  0
    1.2138   -5.2085    1.1891 H   0  0  0  0  0  0  0  0  0  0  0  0
    2.6831   -5.9802    0.7903 H   0  0  0  0  0  0  0  0  0  0  0  0
    1.0330   -3.3741    2.8949 H   0  0  0  0  0  0  0  0  0  0  0  0
    1.4906   -2.5139    1.4778 H   0  0  0  0  0  0  0  0  0  0  0  0
    2.2739   -2.1740    2.9633 H   0  0  0  0  0  0  0  0  0  0  0  0
    4.1266   -5.3852    3.4264 H   0  0  0  0  0  0  0  0  0  0  0  0
  1  2  1  0
  1 27  1  0
  1 28  1  0
  1 29  1  0
  2 26  1  0
  2  3  1  0
  2  4  1  0
  3 30  1  0
  3 31  1  0
  3 32  1  0
  4  5  1  0
  5 25  1  0
  5  6  1  0
  5 33  1  1
  6  7  1  0
  6  8  1  0
  6 34  1  1
  7 35  1  0
  8 12  1  0
  8  9  1  0
  8 36  1  6
  9 23  1  0
  9 10  1  0
  9 37  1  6
 10 11  1  0
 12 11  1  1
 11 38  1  0
 11 39  1  0
 12 20  1  0
 12 13  1  0
 13 14  1  0
 13 40  1  0
 13 41  1  0
 14 15  1  0
 14 42  1  0
 14 43  1  0
 15 16  1  0
 15 17  1  0
 15 44  1  1
 16 45  1  0
 17 18  1  0
 17 19  1  0
 17 20  1  0
 18 46  1  0
 18 47  1  0
 18 48  1  0
 19 49  1  0
 19 50  1  0
 19 51  1  0
 20 21  1  0
 20 52  1  6
 21 22  1  0
 21 53  1  0
 21 54  1  0
 22 23  1  0
 22 55  1  0
 22 56  1  0
 23 24  1  1
 23 25  1  0
 24 57  1  0
 24 58  1  0
 24 59  1  0
 25 26  1  0
 25 60  1  6
M  END
>  <i_m_ct_stereo_status>  (241) 
1

>  <s_m_source_file>  (241) 
/var/tmp/pbs.5076255.sched01/tmplj_yfvzq/807e0r74np.sdf

>  <i_m_source_file_index>  (241) 
20

>  <i_lp_mmshare_version>  (241) 
48012

>  <i_f3d_flags>  (241) 
0

>  <s_epik_input>  (241) 
W0NIM11DKE8xKShbQ0gzXSlPW0NASF0oW0NASF0yW09IXSlbQ0BASF0xW0NAQF0oW0NIM10pKFtDQEBIXShbQ0BASF0yW0NAXTM0NSlPW0NIMl0zKVtDSDJdW0NIMl1bQ0BIXTVDKFtDSDNdKShbQ0gzXSlbQ0BIXShbT0hdKVtDSDJdW0NIMl00

>  <s_epik_cmdline>  (241) 
J2VwaWtfcHl0aG9uJywgJy1waHQnLCAnMi4wJywgJy1waCcsICc3LjAnLCAnLXRuJywgJzgnLCAnLW1hJywgJzIwMCcsICctaW1hZScsICc8aW5maWxlLm1hZT4nLCAnLW9tYWUnLCAnPG91dGZpbGUubWFlPic=

>  <r_lp_tautomer_probability>  (241) 
1

>  <r_epik_Ionization_Penalty>  (241) 
1.91187e-06

>  <r_epik_Ionization_Penalty_Charging>  (241) 
0

>  <r_epik_Ionization_Penalty_Neutral>  (241) 
1.91187e-06

>  <r_epik_State_Penalty>  (241) 
-0

>  <r_epik_Charging_Adjusted_Penalty>  (241) 
0

>  <i_epik_Tot_Q>  (241) 
0

>  <i_epik_Tot_abs_Q>  (241) 
0

>  <s_lp_Force_Field>  (241) 
OPLS3e

>  <r_lp_Energy>  (241) 
200.458

>  <b_lp_Chiralities_Consistent>  (241) 
1

>  <s_lp_Variant>  (241) 
72:0-1

>  <s_i_glide_gridfile>  (241) 
pfpi4k_grid

>  <i_i_glide_lignum>  (241) 
20

>  <i_i_glide_rotatable_bonds>  (241) 
2

>  <r_i_docking_score>  (241) 
-2.89543

>  <r_i_glide_ligand_efficiency>  (241) 
-0.111363

>  <r_i_glide_ligand_efficiency_sa>  (241) 
-0.329911

>  <r_i_glide_ligand_efficiency_ln>  (241) 
-0.679982

>  <r_i_glide_gscore>  (241) 
-2.89543

>  <r_i_glide_lipo>  (241) 
-0.614129

>  <r_i_glide_hbond>  (241) 
-0.0751204

>  <r_i_glide_metal>  (241) 
-0

>  <r_i_glide_rewards>  (241) 
-0.910284

>  <r_i_glide_evdw>  (241) 
-19.2221

>  <r_i_glide_ecoul>  (241) 
-2.23191

>  <r_i_glide_erotb>  (241) 
0

>  <r_i_glide_esite>  (241) 
0

>  <r_i_glide_emodel>  (241) 
-21.4153

>  <r_i_glide_energy>  (241) 
-21.454

>  <r_i_glide_einternal>  (241) 
0.723107

>  <r_i_glide_intrahb_reward>  (241) 
-0

>  <i_i_glide_confnum>  (241) 
1

>  <i_i_glide_posenum>  (241) 
37

>  <r_i_glide_eff_state_penalty>  (241) 
0

>  <ligand_id>  (241) 
72

>  <original_smiles>  (241) 
CC1(C)OC2C(O)C3C4OCC35CCC(O)C(C)(C)C5CCC4(C)C2O1

>  <smiles>  (241) 
[H]OC1([H])C2([H])OC(C([H])([H])[H])(C([H])([H])[H])OC2([H])C2(C([H])([H])[H])C([H])([H])C([H])([H])C3([H])C(C([H])([H])[H])(C([H])([H])[H])C([H])(O[H])C([H])([H])C([H])([H])C34C([H])([H])OC2([H])C14[H]

$$$$
72:0:2
     RDKit          3D

 60 64  0  0  1  0  0  0  0  0999 V2000
    4.0664    0.2409   -3.8044 C   0  0  0  0  0  0  0  0  0  0  0  0
    3.6883   -1.1399   -3.2797 C   0  0  0  0  0  0  0  0  0  0  0  0
    2.8064   -1.8257   -4.2379 C   0  0  0  0  0  0  0  0  0  0  0  0
    4.8033   -1.9464   -3.1235 O   0  0  0  0  0  0  0  0  0  0  0  0
    5.2165   -1.8357   -1.8094 C   0  0  2  0  0  0  0  0  0  0  0  0
    5.8750   -3.2290   -1.2825 C   0  0  1  0  0  0  0  0  0  0  0  0
    7.2931   -3.1032   -1.2872 O   0  0  0  0  0  0  0  0  0  0  0  0
    5.2658   -3.8004    0.0841 C   0  0  2  0  0  0  0  0  0  0  0  0
    4.6875   -2.5466    0.5908 C   0  0  1  0  0  0  0  0  0  0  0  0
    5.8373   -1.7633    0.8432 O   0  0  0  0  0  0  0  0  0  0  0  0
    6.5947   -2.7102    1.6188 C   0  0  0  0  0  0  0  0  0  0  0  0
    5.8280   -4.0661    1.4633 C   0  0  2  0  0  0  0  0  0  0  0  0
    6.8021   -5.2548    1.4198 C   0  0  0  0  0  0  0  0  0  0  0  0
    6.1125   -6.6081    1.2973 C   0  0  0  0  0  0  0  0  0  0  0  0
    4.8540   -6.7884    2.1635 C   0  0  1  0  0  0  0  0  0  0  0  0
    4.8918   -8.0815    2.7429 O   0  0  0  0  0  0  0  0  0  0  0  0
    4.5953   -5.6796    3.2365 C   0  0  0  0  0  0  0  0  0  0  0  0
    3.2901   -6.0331    3.9834 C   0  0  0  0  0  0  0  0  0  0  0  0
    5.7072   -5.6594    4.3232 C   0  0  0  0  0  0  0  0  0  0  0  0
    4.5201   -4.2939    2.4930 C   0  0  2  0  0  0  0  0  0  0  0  0
    2.9874   -3.9193    2.0125 C   0  0  0  0  0  0  0  0  0  0  0  0
    2.5185   -2.5630    1.1730 C   0  0  0  0  0  0  0  0  0  0  0  0
    3.3942   -2.3968   -0.1370 C   0  0  2  0  0  0  0  0  0  0  0  0
    2.7488   -3.4678   -1.0918 C   0  0  0  0  0  0  0  0  0  0  0  0
    3.9229   -1.2816   -1.0513 C   0  0  2  0  0  0  0  0  0  0  0  0
    3.0255   -1.0151   -2.0866 O   0  0  0  0  0  0  0  0  0  0  0  0
    4.6826    0.7758   -3.0939 H   0  0  0  0  0  0  0  0  0  0  0  0
    3.1762    0.8408   -3.9803 H   0  0  0  0  0  0  0  0  0  0  0  0
    4.6138    0.1464   -4.7514 H   0  0  0  0  0  0  0  0  0  0  0  0
    2.4798   -2.7996   -3.8793 H   0  0  0  0  0  0  0  0  0  0  0  0
    3.4209   -1.9548   -5.1184 H   0  0  0  0  0  0  0  0  0  0  0  0
    1.9360   -1.2233   -4.4854 H   0  0  0  0  0  0  0  0  0  0  0  0
    5.9569   -1.0453   -1.7702 H   0  0  0  0  0  0  0  0  0  0  0  0
    5.6580   -3.9905   -2.0293 H   0  0  0  0  0  0  0  0  0  0  0  0
    7.5971   -3.1182   -2.1883 H   0  0  0  0  0  0  0  0  0  0  0  0
    4.5942   -4.6412   -0.1152 H   0  0  0  0  0  0  0  0  0  0  0  0
    4.5230   -2.1719    1.6185 H   0  0  0  0  0  0  0  0  0  0  0  0
    7.6052   -2.7553    1.2416 H   0  0  0  0  0  0  0  0  0  0  0  0
    6.6197   -2.3661    2.6411 H   0  0  0  0  0  0  0  0  0  0  0  0
    7.4831   -5.1422    0.5768 H   0  0  0  0  0  0  0  0  0  0  0  0
    7.4564   -5.2502    2.2933 H   0  0  0  0  0  0  0  0  0  0  0  0
    5.7997   -6.7292    0.2616 H   0  0  0  0  0  0  0  0  0  0  0  0
    6.8348   -7.3996    1.4951 H   0  0  0  0  0  0  0  0  0  0  0  0
    3.9939   -6.7863    1.4874 H   0  0  0  0  0  0  0  0  0  0  0  0
    4.0522   -8.2590    3.1441 H   0  0  0  0  0  0  0  0  0  0  0  0
    2.9910   -5.2272    4.6557 H   0  0  0  0  0  0  0  0  0  0  0  0
    3.4139   -6.9224    4.6060 H   0  0  0  0  0  0  0  0  0  0  0  0
    2.4693   -6.2374    3.3051 H   0  0  0  0  0  0  0  0  0  0  0  0
    5.3008   -5.3912    5.3049 H   0  0  0  0  0  0  0  0  0  0  0  0
    6.4751   -4.9199    4.1333 H   0  0  0  0  0  0  0  0  0  0  0  0
    6.2038   -6.6211    4.4407 H   0  0  0  0  0  0  0  0  0  0  0  0
    4.6928   -3.5835    3.3087 H   0  0  0  0  0  0  0  0  0  0  0  0
    2.6088   -4.7780    1.4528 H   0  0  0  0  0  0  0  0  0  0  0  0
    2.3717   -3.8654    2.8984 H   0  0  0  0  0  0  0  0  0  0  0  0
    1.4755   -2.6018    0.9244 H   0  0  0  0  0  0  0  0  0  0  0  0
    2.5789   -1.6616    1.8103 H   0  0  0  0  0  0  0  0  0  0  0  0
    1.8099   -3.0902   -1.4829 H   0  0  0  0  0  0  0  0  0  0  0  0
    2.5161   -4.4100   -0.6184 H   0  0  0  0  0  0  0  0  0  0  0  0
    3.3628   -3.7142   -1.9541 H   0  0  0  0  0  0  0  0  0  0  0  0
    4.1479   -0.3613   -0.5213 H   0  0  0  0  0  0  0  0  0  0  0  0
  1  2  1  0
  1 27  1  0
  1 28  1  0
  1 29  1  0
  2 26  1  0
  2  3  1  0
  2  4  1  0
  3 30  1  0
  3 31  1  0
  3 32  1  0
  4  5  1  0
  5 25  1  0
  5  6  1  0
  5 33  1  6
  6  7  1  0
  6  8  1  0
  6 34  1  6
  7 35  1  0
  8 12  1  0
  8  9  1  0
  8 36  1  6
  9 23  1  0
  9 10  1  0
  9 37  1  1
 10 11  1  0
 12 11  1  1
 11 38  1  0
 11 39  1  0
 12 20  1  0
 12 13  1  0
 13 14  1  0
 13 40  1  0
 13 41  1  0
 14 15  1  0
 14 42  1  0
 14 43  1  0
 15 16  1  0
 15 17  1  0
 15 44  1  6
 16 45  1  0
 17 18  1  0
 17 19  1  0
 17 20  1  0
 18 46  1  0
 18 47  1  0
 18 48  1  0
 19 49  1  0
 19 50  1  0
 19 51  1  0
 20 21  1  0
 20 52  1  1
 21 22  1  0
 21 53  1  0
 21 54  1  0
 22 23  1  0
 22 55  1  0
 22 56  1  0
 23 24  1  6
 23 25  1  0
 24 57  1  0
 24 58  1  0
 24 59  1  0
 25 26  1  0
 25 60  1  1
M  END
>  <i_m_ct_stereo_status>  (242) 
1

>  <s_m_source_file>  (242) 
/var/tmp/pbs.5076255.sched01/tmplj_yfvzq/807e0r74np.sdf

>  <i_m_source_file_index>  (242) 
20

>  <i_lp_mmshare_version>  (242) 
48012

>  <i_f3d_flags>  (242) 
0

>  <s_epik_input>  (242) 
W0NIM11DKE8xKShbQ0gzXSlPW0NASF0oW0NASF0yW09IXSlbQ0BASF0xW0NAQF0oW0NIM10pKFtDQEBIXShbQ0BASF0yW0NAXTM0NSlPW0NIMl0zKVtDSDJdW0NIMl1bQ0BIXTVDKFtDSDNdKShbQ0gzXSlbQ0BIXShbT0hdKVtDSDJdW0NIMl00

>  <s_epik_cmdline>  (242) 
J2VwaWtfcHl0aG9uJywgJy1waHQnLCAnMi4wJywgJy1waCcsICc3LjAnLCAnLXRuJywgJzgnLCAnLW1hJywgJzIwMCcsICctaW1hZScsICc8aW5maWxlLm1hZT4nLCAnLW9tYWUnLCAnPG91dGZpbGUubWFlPic=

>  <r_lp_tautomer_probability>  (242) 
1

>  <r_epik_Ionization_Penalty>  (242) 
1.91187e-06

>  <r_epik_Ionization_Penalty_Charging>  (242) 
0

>  <r_epik_Ionization_Penalty_Neutral>  (242) 
1.91187e-06

>  <r_epik_State_Penalty>  (242) 
-0

>  <r_epik_Charging_Adjusted_Penalty>  (242) 
0

>  <i_epik_Tot_Q>  (242) 
0

>  <i_epik_Tot_abs_Q>  (242) 
0

>  <s_lp_Force_Field>  (242) 
OPLS3e

>  <r_lp_Energy>  (242) 
200.458

>  <b_lp_Chiralities_Consistent>  (242) 
1

>  <s_lp_Variant>  (242) 
72:0-1

>  <s_i_glide_gridfile>  (242) 
pfpi4k_grid

>  <i_i_glide_lignum>  (242) 
20

>  <i_i_glide_rotatable_bonds>  (242) 
2

>  <r_i_docking_score>  (242) 
-2.57057

>  <r_i_glide_ligand_efficiency>  (242) 
-0.0988683

>  <r_i_glide_ligand_efficiency_sa>  (242) 
-0.292897

>  <r_i_glide_ligand_efficiency_ln>  (242) 
-0.603691

>  <r_i_glide_gscore>  (242) 
-2.57057

>  <r_i_glide_lipo>  (242) 
-0.536714

>  <r_i_glide_hbond>  (242) 
0

>  <r_i_glide_metal>  (242) 
-0

>  <r_i_glide_rewards>  (242) 
-1.06744

>  <r_i_glide_evdw>  (242) 
-14.9767

>  <r_i_glide_ecoul>  (242) 
-1.45056

>  <r_i_glide_erotb>  (242) 
0

>  <r_i_glide_esite>  (242) 
0

>  <r_i_glide_emodel>  (242) 
-16.462

>  <r_i_glide_energy>  (242) 
-16.4273

>  <r_i_glide_einternal>  (242) 
0.786424

>  <r_i_glide_intrahb_reward>  (242) 
-0

>  <i_i_glide_confnum>  (242) 
1

>  <i_i_glide_posenum>  (242) 
12

>  <r_i_glide_eff_state_penalty>  (242) 
0

>  <ligand_id>  (242) 
72

>  <original_smiles>  (242) 
CC1(C)OC2C(O)C3C4OCC35CCC(O)C(C)(C)C5CCC4(C)C2O1

>  <smiles>  (242) 
[H]OC1([H])C2([H])OC(C([H])([H])[H])(C([H])([H])[H])OC2([H])C2(C([H])([H])[H])C([H])([H])C([H])([H])C3([H])C(C([H])([H])[H])(C([H])([H])[H])C([H])(O[H])C([H])([H])C([H])([H])C34C([H])([H])OC2([H])C14[H]

$$$$
73:0:0
     RDKit          3D

 59 66  0  0  1  0  0  0  0  0999 V2000
    5.7274   -9.9351    5.1147 C   0  0  0  0  0  0  0  0  0  0  0  0
    5.6273   -9.0566    3.9549 N   0  0  0  0  0  0  0  0  0  0  0  0
    6.3628   -7.7960    4.1356 C   0  0  2  0  0  0  0  0  0  0  0  0
    5.3990   -6.7175    4.7324 C   0  0  0  0  0  0  0  0  0  0  0  0
    5.2629   -5.9972    5.7184 O   0  0  0  0  0  0  0  0  0  0  0  0
    4.7339   -7.0352    3.4049 C   0  0  2  0  0  0  0  0  0  0  0  0
    6.1951   -6.8820    2.9008 C   0  0  2  0  0  0  0  0  0  0  0  0
    6.2270   -7.1050    1.3943 C   0  0  0  0  0  0  0  0  0  0  0  0
    5.5340   -5.8335    0.8134 C   0  0  1  0  0  0  0  0  0  0  0  0
    4.6388   -6.0777   -0.2917 O   0  0  0  0  0  0  0  0  0  0  0  0
    3.7397   -5.0706    0.2386 C   0  0  2  0  0  0  0  0  0  0  0  0
    3.8077   -3.7683   -0.5799 C   0  0  1  0  0  0  0  0  0  0  0  0
    2.7246   -3.6787   -1.4818 O   0  0  0  0  0  0  0  0  0  0  0  0
    3.8117   -2.5098    0.3151 C   0  0  2  0  0  0  0  0  0  0  0  0
    2.5579   -2.2152    0.9057 O   0  0  0  0  0  0  0  0  0  0  0  0
    4.3734   -1.2945   -0.3893 C   0  0  0  0  0  0  0  0  0  0  0  0
    5.5621   -0.9347    0.1133 C   0  0  0  0  0  0  0  0  0  0  0  0
    5.8905   -1.8159    1.2008 C   0  0  0  0  0  0  0  0  0  0  0  0
    4.8832   -2.6809    1.3691 C   0  0  0  0  0  0  0  0  0  0  0  0
    4.7812   -3.8392    2.3565 C   0  0  1  0  0  0  0  0  0  0  0  0
    3.8264   -3.4990    3.3326 O   0  0  0  0  0  0  0  0  0  0  0  0
    4.3874   -5.1692    1.6389 C   0  0  2  0  0  0  0  0  0  0  0  0
    3.7391   -6.2448    2.5723 C   0  0  2  0  0  0  0  0  0  0  0  0
    2.3548   -6.0900    3.1883 C   0  0  0  0  0  0  0  0  0  0  0  0
    1.4652   -7.3423    3.0877 C   0  0  0  0  0  0  0  0  0  0  0  0
    0.0805   -7.0866    3.1816 C   0  0  0  0  0  0  0  0  0  0  0  0
   -0.8701   -8.1224    3.1150 C   0  0  0  0  0  0  0  0  0  0  0  0
   -0.4382   -9.4512    2.9594 C   0  0  0  0  0  0  0  0  0  0  0  0
    0.9334   -9.7320    2.8664 C   0  0  0  0  0  0  0  0  0  0  0  0
    1.9024   -8.7090    2.9149 C   0  0  0  0  0  0  0  0  0  0  0  0
    3.3650   -9.1757    2.8011 C   0  0  0  0  0  0  0  0  0  0  0  0
    4.2931   -8.4621    3.7866 C   0  0  1  0  0  0  0  0  0  0  0  0
    6.7530  -10.2861    5.2417 H   0  0  0  0  0  0  0  0  0  0  0  0
    5.1084  -10.8188    4.9580 H   0  0  0  0  0  0  0  0  0  0  0  0
    5.4225   -9.4629    6.0500 H   0  0  0  0  0  0  0  0  0  0  0  0
    7.3703   -7.8979    4.5435 H   0  0  0  0  0  0  0  0  0  0  0  0
    6.7191   -5.9212    3.0740 H   0  0  0  0  0  0  0  0  0  0  0  0
    7.2345   -7.2415    1.0005 H   0  0  0  0  0  0  0  0  0  0  0  0
    5.6634   -8.0064    1.1425 H   0  0  0  0  0  0  0  0  0  0  0  0
    6.2670   -5.0707    0.5389 H   0  0  0  0  0  0  0  0  0  0  0  0
    2.7225   -5.4379    0.3070 H   0  0  0  0  0  0  0  0  0  0  0  0
    4.7320   -3.7512   -1.1740 H   0  0  0  0  0  0  0  0  0  0  0  0
    2.7435   -4.4587   -2.0257 H   0  0  0  0  0  0  0  0  0  0  0  0
    2.0159   -1.7629    0.2611 H   0  0  0  0  0  0  0  0  0  0  0  0
    3.8503   -0.7885   -1.1836 H   0  0  0  0  0  0  0  0  0  0  0  0
    6.1320   -0.0820   -0.2085 H   0  0  0  0  0  0  0  0  0  0  0  0
    6.8072   -1.7587    1.7681 H   0  0  0  0  0  0  0  0  0  0  0  0
    5.7477   -3.9224    2.8525 H   0  0  0  0  0  0  0  0  0  0  0  0
    3.0316   -3.2620    2.8809 H   0  0  0  0  0  0  0  0  0  0  0  0
    3.4563   -6.9338    1.7791 H   0  0  0  0  0  0  0  0  0  0  0  0
    2.4249   -5.7684    4.2274 H   0  0  0  0  0  0  0  0  0  0  0  0
    1.8454   -5.2904    2.6486 H   0  0  0  0  0  0  0  0  0  0  0  0
   -0.2511   -6.0713    3.3253 H   0  0  0  0  0  0  0  0  0  0  0  0
   -1.9269   -7.9109    3.2025 H   0  0  0  0  0  0  0  0  0  0  0  0
   -1.1644  -10.2523    2.9328 H   0  0  0  0  0  0  0  0  0  0  0  0
    1.2375  -10.7677    2.7582 H   0  0  0  0  0  0  0  0  0  0  0  0
    3.4064  -10.2422    3.0304 H   0  0  0  0  0  0  0  0  0  0  0  0
    3.7163   -9.1107    1.7704 H   0  0  0  0  0  0  0  0  0  0  0  0
    3.7670   -8.4717    4.7497 H   0  0  0  0  0  0  0  0  0  0  0  0
  1  2  1  0
  1 33  1  0
  1 34  1  0
  1 35  1  0
  2 32  1  0
  2  3  1  0
  3  7  1  0
  3  4  1  0
  3 36  1  1
  4  5  2  0
  6  4  1  1
  6 23  1  0
  6 32  1  0
  6  7  1  0
  7  8  1  0
  7 37  1  6
  8  9  1  0
  8 38  1  0
  8 39  1  0
  9 22  1  0
  9 10  1  0
  9 40  1  6
 10 11  1  0
 11 22  1  0
 11 12  1  0
 11 41  1  1
 12 13  1  0
 12 14  1  0
 12 42  1  6
 13 43  1  0
 14 19  1  0
 14 15  1  1
 14 16  1  0
 15 44  1  0
 16 17  2  0
 16 45  1  0
 17 18  1  0
 17 46  1  0
 18 19  2  0
 18 47  1  0
 19 20  1  0
 20 21  1  0
 22 20  1  1
 20 48  1  1
 21 49  1  0
 22 23  1  0
 23 24  1  0
 23 50  1  6
 24 25  1  0
 24 51  1  0
 24 52  1  0
 25 30  2  0
 25 26  1  0
 26 27  2  0
 26 53  1  0
 27 28  1  0
 27 54  1  0
 28 29  2  0
 28 55  1  0
 29 30  1  0
 29 56  1  0
 30 31  1  0
 31 32  1  0
 31 57  1  0
 31 58  1  0
 32 59  1  1
M  END
>  <i_m_ct_stereo_status>  (243) 
1

>  <s_m_source_file>  (243) 
/var/tmp/pbs.5076255.sched01/tmplj_yfvzq/807e0r74np.sdf

>  <i_m_source_file_index>  (243) 
21

>  <i_lp_mmshare_version>  (243) 
48012

>  <i_f3d_flags>  (243) 
0

>  <s_epik_input>  (243) 
Tz1DMVtDQEhdKFtDQEBIXTJbQ0BAXTEzNClOKFtDSDNdKVtDQEBIXTRbQ0gyXWM1YyhbY0hdW2NIXVtjSF1bY0hdNSlbQ0gyXVtDQEhdM1tDQEBdNjdbQ0BASF0oW0NIMl0yKU9bQ0BASF02W0NAQEhdKFtPSF0pW0NAQF04KFtPSF0pQyhbQ0BIXTdbT0hdKT1bQ0hdW0NIXT1bQ0hdOA==

>  <s_epik_cmdline>  (243) 
J2VwaWtfcHl0aG9uJywgJy1waHQnLCAnMi4wJywgJy1waCcsICc3LjAnLCAnLXRuJywgJzgnLCAnLW1hJywgJzIwMCcsICctaW1hZScsICc8aW5maWxlLm1hZT4nLCAnLW9tYWUnLCAnPG91dGZpbGUubWFlPic=

>  <r_epik_Ionization_Penalty>  (243) 
0.0361733

>  <r_epik_Ionization_Penalty_Charging>  (243) 
0

>  <r_epik_Ionization_Penalty_Neutral>  (243) 
0.0361733

>  <r_epik_State_Penalty>  (243) 
0.0242982

>  <r_epik_Charging_Adjusted_Penalty>  (243) 
0.0242982

>  <i_epik_Tot_Q>  (243) 
0

>  <i_epik_Tot_abs_Q>  (243) 
0

>  <s_lp_Force_Field>  (243) 
OPLS3e

>  <r_lp_Energy>  (243) 
127.797

>  <b_lp_Chiralities_Consistent>  (243) 
1

>  <s_lp_Variant>  (243) 
73:0-1

>  <s_i_glide_gridfile>  (243) 
pfpi4k_grid

>  <i_i_glide_lignum>  (243) 
21

>  <i_i_glide_rotatable_bonds>  (243) 
3

>  <r_i_docking_score>  (243) 
-3.49617

>  <r_i_glide_ligand_efficiency>  (243) 
-0.109255

>  <r_i_glide_ligand_efficiency_sa>  (243) 
-0.346864

>  <r_i_glide_ligand_efficiency_ln>  (243) 
-0.782887

>  <r_i_glide_gscore>  (243) 
-3.49617

>  <r_i_glide_lipo>  (243) 
-0.520595

>  <r_i_glide_hbond>  (243) 
0

>  <r_i_glide_metal>  (243) 
-0

>  <r_i_glide_rewards>  (243) 
-0.953434

>  <r_i_glide_evdw>  (243) 
-24.1967

>  <r_i_glide_ecoul>  (243) 
-5.41535

>  <r_i_glide_erotb>  (243) 
0

>  <r_i_glide_esite>  (243) 
0

>  <r_i_glide_emodel>  (243) 
-40.7151

>  <r_i_glide_energy>  (243) 
-29.612

>  <r_i_glide_einternal>  (243) 
0.609128

>  <r_i_glide_intrahb_reward>  (243) 
-0.5

>  <i_i_glide_confnum>  (243) 
2

>  <i_i_glide_posenum>  (243) 
7

>  <r_i_glide_eff_state_penalty>  (243) 
0

>  <ligand_id>  (243) 
73

>  <original_smiles>  (243) 
CN1C2C(=O)C34C2CC2OC5C(O)C6(O)C=CC=C6C(O)C25C3Cc2ccccc2CC14

>  <smiles>  (243) 
[H]OC1([H])C2=C([H])C([H])=C([H])C2(O[H])C([H])(O[H])C2([H])OC3([H])C([H])([H])C4([H])C5([H])C(=O)C46C([H])(N5C([H])([H])[H])C([H])([H])c4c([H])c([H])c([H])c([H])c4C([H])([H])C6([H])C132

$$$$
73:0:1
     RDKit          3D

 59 66  0  0  1  0  0  0  0  0999 V2000
    5.4179  -10.0611    4.8886 C   0  0  0  0  0  0  0  0  0  0  0  0
    5.3264   -9.1029    3.7938 N   0  0  0  0  0  0  0  0  0  0  0  0
    6.1009   -7.8781    4.0489 C   0  0  2  0  0  0  0  0  0  0  0  0
    5.1726   -6.8218    4.7345 C   0  0  0  0  0  0  0  0  0  0  0  0
    5.0732   -6.1638    5.7698 O   0  0  0  0  0  0  0  0  0  0  0  0
    4.4858   -7.0253    3.3972 C   0  0  2  0  0  0  0  0  0  0  0  0
    5.9426   -6.8767    2.8844 C   0  0  2  0  0  0  0  0  0  0  0  0
    5.9501   -6.9951    1.3668 C   0  0  0  0  0  0  0  0  0  0  0  0
    5.2938   -5.6632    0.8904 C   0  0  1  0  0  0  0  0  0  0  0  0
    4.3896   -5.8067   -0.2215 O   0  0  0  0  0  0  0  0  0  0  0  0
    3.5068   -4.8188    0.3808 C   0  0  2  0  0  0  0  0  0  0  0  0
    3.5814   -3.4579   -0.3444 C   0  0  1  0  0  0  0  0  0  0  0  0
    2.4773   -3.2730   -1.2215 O   0  0  0  0  0  0  0  0  0  0  0  0
    3.6358   -2.2717    0.6465 C   0  0  2  0  0  0  0  0  0  0  0  0
    2.3865   -1.9882    1.2723 O   0  0  0  0  0  0  0  0  0  0  0  0
    4.2371   -1.0356    0.0152 C   0  0  0  0  0  0  0  0  0  0  0  0
    5.4391   -0.7357    0.5266 C   0  0  0  0  0  0  0  0  0  0  0  0
    5.7513   -1.6940    1.5502 C   0  0  0  0  0  0  0  0  0  0  0  0
    4.7179   -2.5485    1.6661 C   0  0  0  0  0  0  0  0  0  0  0  0
    4.6025   -3.7638    2.5701 C   0  0  1  0  0  0  0  0  0  0  0  0
    3.6709   -3.4655    3.5855 O   0  0  0  0  0  0  0  0  0  0  0  0
    4.1664   -5.0300    1.7631 C   0  0  2  0  0  0  0  0  0  0  0  0
    3.5002   -6.1505    2.6346 C   0  0  2  0  0  0  0  0  0  0  0  0
    2.1278   -6.0031    3.2812 C   0  0  0  0  0  0  0  0  0  0  0  0
    1.2018   -7.2238    3.1134 C   0  0  0  0  0  0  0  0  0  0  0  0
   -0.1688   -6.9415    3.2537 C   0  0  0  0  0  0  0  0  0  0  0  0
   -1.1515   -7.9392    3.1261 C   0  0  0  0  0  0  0  0  0  0  0  0
   -0.7586   -9.2647    2.8812 C   0  0  0  0  0  0  0  0  0  0  0  0
    0.6039   -9.5754    2.7397 C   0  0  0  0  0  0  0  0  0  0  0  0
    1.6020   -8.5834    2.8386 C   0  0  0  0  0  0  0  0  0  0  0  0
    3.0485   -9.0809    2.6700 C   0  0  0  0  0  0  0  0  0  0  0  0
    4.0081   -8.4628    3.6875 C   0  0  1  0  0  0  0  0  0  0  0  0
    6.4356  -10.4466    4.9765 H   0  0  0  0  0  0  0  0  0  0  0  0
    4.7733  -10.9150    4.6826 H   0  0  0  0  0  0  0  0  0  0  0  0
    5.1378   -9.6464    5.8585 H   0  0  0  0  0  0  0  0  0  0  0  0
    7.1111   -8.0346    4.4327 H   0  0  0  0  0  0  0  0  0  0  0  0
    6.4961   -5.9455    3.1139 H   0  0  0  0  0  0  0  0  0  0  0  0
    6.9474   -7.1321    0.9489 H   0  0  0  0  0  0  0  0  0  0  0  0
    5.3565   -7.8586    1.0589 H   0  0  0  0  0  0  0  0  0  0  0  0
    6.0432   -4.9031    0.6573 H   0  0  0  0  0  0  0  0  0  0  0  0
    2.4847   -5.1726    0.4368 H   0  0  0  0  0  0  0  0  0  0  0  0
    4.4985   -3.4214   -0.9532 H   0  0  0  0  0  0  0  0  0  0  0  0
    2.1119   -2.3993   -1.1186 H   0  0  0  0  0  0  0  0  0  0  0  0
    1.8474   -1.4878    0.6651 H   0  0  0  0  0  0  0  0  0  0  0  0
    3.7492   -0.4744   -0.7568 H   0  0  0  0  0  0  0  0  0  0  0  0
    6.0402    0.1098    0.2351 H   0  0  0  0  0  0  0  0  0  0  0  0
    6.6680   -1.7034    2.1153 H   0  0  0  0  0  0  0  0  0  0  0  0
    5.5755   -3.9084    3.0459 H   0  0  0  0  0  0  0  0  0  0  0  0
    2.8774   -3.1792    3.1595 H   0  0  0  0  0  0  0  0  0  0  0  0
    3.1910   -6.7755    1.8008 H   0  0  0  0  0  0  0  0  0  0  0  0
    2.2230   -5.7526    4.3386 H   0  0  0  0  0  0  0  0  0  0  0  0
    1.6334   -5.1529    2.8087 H   0  0  0  0  0  0  0  0  0  0  0  0
   -0.4699   -5.9324    3.4853 H   0  0  0  0  0  0  0  0  0  0  0  0
   -2.2006   -7.7046    3.2408 H   0  0  0  0  0  0  0  0  0  0  0  0
   -1.5039  -10.0429    2.8017 H   0  0  0  0  0  0  0  0  0  0  0  0
    0.8767  -10.6091    2.5541 H   0  0  0  0  0  0  0  0  0  0  0  0
    3.0623  -10.1614    2.8220 H   0  0  0  0  0  0  0  0  0  0  0  0
    3.3857   -8.9530    1.6421 H   0  0  0  0  0  0  0  0  0  0  0  0
    3.4943   -8.5221    4.6542 H   0  0  0  0  0  0  0  0  0  0  0  0
  1  2  1  0
  1 33  1  0
  1 34  1  0
  1 35  1  0
  2 32  1  0
  2  3  1  0
  3  7  1  0
  3  4  1  0
  3 36  1  1
  4  5  2  0
  6  4  1  1
  6 23  1  0
  6 32  1  0
  6  7  1  0
  7  8  1  0
  7 37  1  6
  8  9  1  0
  8 38  1  0
  8 39  1  0
  9 22  1  0
  9 10  1  0
  9 40  1  6
 10 11  1  0
 11 22  1  0
 11 12  1  0
 11 41  1  1
 12 13  1  0
 12 14  1  0
 12 42  1  6
 13 43  1  0
 14 19  1  0
 14 15  1  1
 14 16  1  0
 15 44  1  0
 16 17  2  0
 16 45  1  0
 17 18  1  0
 17 46  1  0
 18 19  2  0
 18 47  1  0
 19 20  1  0
 20 21  1  0
 22 20  1  1
 20 48  1  1
 21 49  1  0
 22 23  1  0
 23 24  1  0
 23 50  1  6
 24 25  1  0
 24 51  1  0
 24 52  1  0
 25 30  2  0
 25 26  1  0
 26 27  2  0
 26 53  1  0
 27 28  1  0
 27 54  1  0
 28 29  2  0
 28 55  1  0
 29 30  1  0
 29 56  1  0
 30 31  1  0
 31 32  1  0
 31 57  1  0
 31 58  1  0
 32 59  1  1
M  END
>  <i_m_ct_stereo_status>  (244) 
1

>  <s_m_source_file>  (244) 
/var/tmp/pbs.5076255.sched01/tmplj_yfvzq/807e0r74np.sdf

>  <i_m_source_file_index>  (244) 
21

>  <i_lp_mmshare_version>  (244) 
48012

>  <i_f3d_flags>  (244) 
0

>  <s_epik_input>  (244) 
Tz1DMVtDQEhdKFtDQEBIXTJbQ0BAXTEzNClOKFtDSDNdKVtDQEBIXTRbQ0gyXWM1YyhbY0hdW2NIXVtjSF1bY0hdNSlbQ0gyXVtDQEhdM1tDQEBdNjdbQ0BASF0oW0NIMl0yKU9bQ0BASF02W0NAQEhdKFtPSF0pW0NAQF04KFtPSF0pQyhbQ0BIXTdbT0hdKT1bQ0hdW0NIXT1bQ0hdOA==

>  <s_epik_cmdline>  (244) 
J2VwaWtfcHl0aG9uJywgJy1waHQnLCAnMi4wJywgJy1waCcsICc3LjAnLCAnLXRuJywgJzgnLCAnLW1hJywgJzIwMCcsICctaW1hZScsICc8aW5maWxlLm1hZT4nLCAnLW9tYWUnLCAnPG91dGZpbGUubWFlPic=

>  <r_epik_Ionization_Penalty>  (244) 
0.0361733

>  <r_epik_Ionization_Penalty_Charging>  (244) 
0

>  <r_epik_Ionization_Penalty_Neutral>  (244) 
0.0361733

>  <r_epik_State_Penalty>  (244) 
0.0242982

>  <r_epik_Charging_Adjusted_Penalty>  (244) 
0.0242982

>  <i_epik_Tot_Q>  (244) 
0

>  <i_epik_Tot_abs_Q>  (244) 
0

>  <s_lp_Force_Field>  (244) 
OPLS3e

>  <r_lp_Energy>  (244) 
127.797

>  <b_lp_Chiralities_Consistent>  (244) 
1

>  <s_lp_Variant>  (244) 
73:0-1

>  <s_i_glide_gridfile>  (244) 
pfpi4k_grid

>  <i_i_glide_lignum>  (244) 
21

>  <i_i_glide_rotatable_bonds>  (244) 
3

>  <r_i_docking_score>  (244) 
-3.1827

>  <r_i_glide_ligand_efficiency>  (244) 
-0.0994592

>  <r_i_glide_ligand_efficiency_sa>  (244) 
-0.315763

>  <r_i_glide_ligand_efficiency_ln>  (244) 
-0.712692

>  <r_i_glide_gscore>  (244) 
-3.1827

>  <r_i_glide_lipo>  (244) 
-0.568122

>  <r_i_glide_hbond>  (244) 
0

>  <r_i_glide_metal>  (244) 
-0

>  <r_i_glide_rewards>  (244) 
-0.953434

>  <r_i_glide_evdw>  (244) 
-25.1231

>  <r_i_glide_ecoul>  (244) 
-2.69988

>  <r_i_glide_erotb>  (244) 
0

>  <r_i_glide_esite>  (244) 
0

>  <r_i_glide_emodel>  (244) 
-37.7437

>  <r_i_glide_energy>  (244) 
-27.823

>  <r_i_glide_einternal>  (244) 
1.65487

>  <r_i_glide_intrahb_reward>  (244) 
-0.5

>  <i_i_glide_confnum>  (244) 
1

>  <i_i_glide_posenum>  (244) 
1

>  <r_i_glide_eff_state_penalty>  (244) 
0

>  <ligand_id>  (244) 
73

>  <original_smiles>  (244) 
CN1C2C(=O)C34C2CC2OC5C(O)C6(O)C=CC=C6C(O)C25C3Cc2ccccc2CC14

>  <smiles>  (244) 
[H]OC1([H])C2=C([H])C([H])=C([H])C2(O[H])C([H])(O[H])C2([H])OC3([H])C([H])([H])C4([H])C5([H])C(=O)C46C([H])(N5C([H])([H])[H])C([H])([H])c4c([H])c([H])c([H])c([H])c4C([H])([H])C6([H])C132

$$$$
73:0:2
     RDKit          3D

 59 66  0  0  1  0  0  0  0  0999 V2000
    5.5118   -9.8794    5.2905 C   0  0  0  0  0  0  0  0  0  0  0  0
    5.4564   -9.0097    4.1210 N   0  0  0  0  0  0  0  0  0  0  0  0
    6.1763   -7.7441    4.3230 C   0  0  2  0  0  0  0  0  0  0  0  0
    5.1829   -6.6651    4.8673 C   0  0  0  0  0  0  0  0  0  0  0  0
    5.0016   -5.9350    5.8385 O   0  0  0  0  0  0  0  0  0  0  0  0
    4.5770   -6.9985    3.5165 C   0  0  2  0  0  0  0  0  0  0  0  0
    6.0578   -6.8414    3.0738 C   0  0  2  0  0  0  0  0  0  0  0  0
    6.1558   -7.0756    1.5717 C   0  0  0  0  0  0  0  0  0  0  0  0
    5.4831   -5.8133    0.9525 C   0  0  1  0  0  0  0  0  0  0  0  0
    4.6386   -6.0701   -0.1870 O   0  0  0  0  0  0  0  0  0  0  0  0
    3.7109   -5.0625    0.2936 C   0  0  2  0  0  0  0  0  0  0  0  0
    3.8061   -3.7668   -0.5323 C   0  0  1  0  0  0  0  0  0  0  0  0
    2.7703   -3.6879   -1.4876 O   0  0  0  0  0  0  0  0  0  0  0  0
    3.7629   -2.4993    0.3492 C   0  0  2  0  0  0  0  0  0  0  0  0
    2.4818   -2.1935    0.8729 O   0  0  0  0  0  0  0  0  0  0  0  0
    4.3541   -1.2880   -0.3392 C   0  0  0  0  0  0  0  0  0  0  0  0
    5.5152   -0.9160    0.2153 C   0  0  0  0  0  0  0  0  0  0  0  0
    5.7957   -1.7853    1.3246 C   0  0  0  0  0  0  0  0  0  0  0  0
    4.7845   -2.6536    1.4564 C   0  0  0  0  0  0  0  0  0  0  0  0
    4.6546   -3.8110    2.4440 C   0  0  1  0  0  0  0  0  0  0  0  0
    3.6824   -3.4761    3.4103 O   0  0  0  0  0  0  0  0  0  0  0  0
    4.2995   -5.1481    1.7206 C   0  0  2  0  0  0  0  0  0  0  0  0
    3.6149   -6.2195    2.6355 C   0  0  2  0  0  0  0  0  0  0  0  0
    2.2041   -6.0667    3.1892 C   0  0  0  0  0  0  0  0  0  0  0  0
    1.3288   -7.3281    3.0630 C   0  0  0  0  0  0  0  0  0  0  0  0
   -0.0572   -7.0809    3.1012 C   0  0  0  0  0  0  0  0  0  0  0  0
   -1.0030   -8.1169    3.0012 C   0  0  0  0  0  0  0  0  0  0  0  0
   -0.5573   -9.4467    2.8800 C   0  0  0  0  0  0  0  0  0  0  0  0
    0.8181   -9.7227    2.8436 C   0  0  0  0  0  0  0  0  0  0  0  0
    1.7815   -8.6907    2.9203 C   0  0  0  0  0  0  0  0  0  0  0  0
    3.2494   -9.1523    2.8702 C   0  0  0  0  0  0  0  0  0  0  0  0
    4.1282   -8.4247    3.8899 C   0  0  1  0  0  0  0  0  0  0  0  0
    6.5332  -10.2239    5.4648 H   0  0  0  0  0  0  0  0  0  0  0  0
    4.9052  -10.7677    5.1141 H   0  0  0  0  0  0  0  0  0  0  0  0
    5.1643   -9.4015    6.2082 H   0  0  0  0  0  0  0  0  0  0  0  0
    7.1659   -7.8369    4.7753 H   0  0  0  0  0  0  0  0  0  0  0  0
    6.5696   -5.8765    3.2632 H   0  0  0  0  0  0  0  0  0  0  0  0
    7.1790   -7.2123    1.2228 H   0  0  0  0  0  0  0  0  0  0  0  0
    5.6080   -7.9820    1.3031 H   0  0  0  0  0  0  0  0  0  0  0  0
    6.2213   -5.0489    0.7032 H   0  0  0  0  0  0  0  0  0  0  0  0
    2.6959   -5.4343    0.3248 H   0  0  0  0  0  0  0  0  0  0  0  0
    4.7572   -3.7494   -1.0816 H   0  0  0  0  0  0  0  0  0  0  0  0
    2.8143   -4.4735   -2.0215 H   0  0  0  0  0  0  0  0  0  0  0  0
    1.9669   -1.7379    0.2082 H   0  0  0  0  0  0  0  0  0  0  0  0
    3.8617   -0.7912   -1.1591 H   0  0  0  0  0  0  0  0  0  0  0  0
    6.0946   -0.0612   -0.0883 H   0  0  0  0  0  0  0  0  0  0  0  0
    6.6828   -1.7195    1.9344 H   0  0  0  0  0  0  0  0  0  0  0  0
    5.6067   -3.8844    2.9726 H   0  0  0  0  0  0  0  0  0  0  0  0
    3.9251   -2.6577    3.8051 H   0  0  0  0  0  0  0  0  0  0  0  0
    3.3711   -6.9146    1.8368 H   0  0  0  0  0  0  0  0  0  0  0  0
    2.2289   -5.7360    4.2268 H   0  0  0  0  0  0  0  0  0  0  0  0
    1.7195   -5.2711    2.6227 H   0  0  0  0  0  0  0  0  0  0  0  0
   -0.4016   -6.0683    3.2319 H   0  0  0  0  0  0  0  0  0  0  0  0
   -2.0640   -7.9144    3.0369 H   0  0  0  0  0  0  0  0  0  0  0  0
   -1.2843  -10.2379    2.8206 H   0  0  0  0  0  0  0  0  0  0  0  0
    1.1327  -10.7584    2.7519 H   0  0  0  0  0  0  0  0  0  0  0  0
    3.2845  -10.2161    3.1108 H   0  0  0  0  0  0  0  0  0  0  0  0
    3.6415   -9.0916    1.8550 H   0  0  0  0  0  0  0  0  0  0  0  0
    3.5614   -8.4300    4.8300 H   0  0  0  0  0  0  0  0  0  0  0  0
  1  2  1  0
  1 33  1  0
  1 34  1  0
  1 35  1  0
  2 32  1  0
  2  3  1  0
  3  7  1  0
  3  4  1  0
  3 36  1  1
  4  5  2  0
  6  4  1  1
  6 23  1  0
  6 32  1  0
  6  7  1  0
  7  8  1  0
  7 37  1  1
  8  9  1  0
  8 38  1  0
  8 39  1  0
  9 22  1  0
  9 10  1  0
  9 40  1  6
 10 11  1  0
 11 22  1  0
 11 12  1  0
 11 41  1  1
 12 13  1  0
 12 14  1  0
 12 42  1  6
 13 43  1  0
 14 19  1  0
 14 15  1  1
 14 16  1  0
 15 44  1  0
 16 17  2  0
 16 45  1  0
 17 18  1  0
 17 46  1  0
 18 19  2  0
 18 47  1  0
 19 20  1  0
 20 21  1  0
 22 20  1  1
 20 48  1  1
 21 49  1  0
 22 23  1  0
 23 24  1  0
 23 50  1  6
 24 25  1  0
 24 51  1  0
 24 52  1  0
 25 30  2  0
 25 26  1  0
 26 27  2  0
 26 53  1  0
 27 28  1  0
 27 54  1  0
 28 29  2  0
 28 55  1  0
 29 30  1  0
 29 56  1  0
 30 31  1  0
 31 32  1  0
 31 57  1  0
 31 58  1  0
 32 59  1  1
M  END
>  <i_m_ct_stereo_status>  (245) 
1

>  <s_m_source_file>  (245) 
/var/tmp/pbs.5076255.sched01/tmplj_yfvzq/807e0r74np.sdf

>  <i_m_source_file_index>  (245) 
21

>  <i_lp_mmshare_version>  (245) 
48012

>  <i_f3d_flags>  (245) 
0

>  <s_epik_input>  (245) 
Tz1DMVtDQEhdKFtDQEBIXTJbQ0BAXTEzNClOKFtDSDNdKVtDQEBIXTRbQ0gyXWM1YyhbY0hdW2NIXVtjSF1bY0hdNSlbQ0gyXVtDQEhdM1tDQEBdNjdbQ0BASF0oW0NIMl0yKU9bQ0BASF02W0NAQEhdKFtPSF0pW0NAQF04KFtPSF0pQyhbQ0BIXTdbT0hdKT1bQ0hdW0NIXT1bQ0hdOA==

>  <s_epik_cmdline>  (245) 
J2VwaWtfcHl0aG9uJywgJy1waHQnLCAnMi4wJywgJy1waCcsICc3LjAnLCAnLXRuJywgJzgnLCAnLW1hJywgJzIwMCcsICctaW1hZScsICc8aW5maWxlLm1hZT4nLCAnLW9tYWUnLCAnPG91dGZpbGUubWFlPic=

>  <r_epik_Ionization_Penalty>  (245) 
0.0361733

>  <r_epik_Ionization_Penalty_Charging>  (245) 
0

>  <r_epik_Ionization_Penalty_Neutral>  (245) 
0.0361733

>  <r_epik_State_Penalty>  (245) 
0.0242982

>  <r_epik_Charging_Adjusted_Penalty>  (245) 
0.0242982

>  <i_epik_Tot_Q>  (245) 
0

>  <i_epik_Tot_abs_Q>  (245) 
0

>  <s_lp_Force_Field>  (245) 
OPLS3e

>  <r_lp_Energy>  (245) 
127.797

>  <b_lp_Chiralities_Consistent>  (245) 
1

>  <s_lp_Variant>  (245) 
73:0-1

>  <s_i_glide_gridfile>  (245) 
pfpi4k_grid

>  <i_i_glide_lignum>  (245) 
21

>  <i_i_glide_rotatable_bonds>  (245) 
3

>  <r_i_docking_score>  (245) 
-2.89447

>  <r_i_glide_ligand_efficiency>  (245) 
-0.0904523

>  <r_i_glide_ligand_efficiency_sa>  (245) 
-0.287168

>  <r_i_glide_ligand_efficiency_ln>  (245) 
-0.648151

>  <r_i_glide_gscore>  (245) 
-2.89447

>  <r_i_glide_lipo>  (245) 
-0.508436

>  <r_i_glide_hbond>  (245) 
0

>  <r_i_glide_metal>  (245) 
-0

>  <r_i_glide_rewards>  (245) 
-0.453434

>  <r_i_glide_evdw>  (245) 
-23.4883

>  <r_i_glide_ecoul>  (245) 
-5.0546

>  <r_i_glide_erotb>  (245) 
0

>  <r_i_glide_esite>  (245) 
0

>  <r_i_glide_emodel>  (245) 
-33.3106

>  <r_i_glide_energy>  (245) 
-28.5429

>  <r_i_glide_einternal>  (245) 
0.965047

>  <r_i_glide_intrahb_reward>  (245) 
-0

>  <i_i_glide_confnum>  (245) 
2

>  <i_i_glide_posenum>  (245) 
15

>  <r_i_glide_eff_state_penalty>  (245) 
0

>  <ligand_id>  (245) 
73

>  <original_smiles>  (245) 
CN1C2C(=O)C34C2CC2OC5C(O)C6(O)C=CC=C6C(O)C25C3Cc2ccccc2CC14

>  <smiles>  (245) 
[H]OC1([H])C2=C([H])C([H])=C([H])C2(O[H])C([H])(O[H])C2([H])OC3([H])C([H])([H])C4([H])C5([H])C(=O)C46C([H])(N5C([H])([H])[H])C([H])([H])c4c([H])c([H])c([H])c([H])c4C([H])([H])C6([H])C132

$$$$
73:1:0
     RDKit          3D

 60 67  0  0  1  0  0  0  0  0999 V2000
    4.1179  -12.4523    3.5553 C   0  0  0  0  0  0  0  0  0  0  0  0
    4.2869  -11.3232    4.4976 N   0  0  1  0  0  0  0  0  0  0  0  0
    5.6443  -10.7353    4.4542 C   0  0  2  0  0  0  0  0  0  0  0  0
    5.4322   -9.3553    5.1669 C   0  0  0  0  0  0  0  0  0  0  0  0
    5.8041   -8.7676    6.1763 O   0  0  0  0  0  0  0  0  0  0  0  0
    4.5352   -9.1454    3.9455 C   0  0  2  0  0  0  0  0  0  0  0  0
    5.7630   -9.7664    3.2395 C   0  0  2  0  0  0  0  0  0  0  0  0
    5.5261   -9.8130    1.7258 C   0  0  0  0  0  0  0  0  0  0  0  0
    5.6012   -8.3217    1.2864 C   0  0  1  0  0  0  0  0  0  0  0  0
    4.6166   -7.9327    0.3027 O   0  0  0  0  0  0  0  0  0  0  0  0
    4.4650   -6.6515    0.9848 C   0  0  2  0  0  0  0  0  0  0  0  0
    5.1352   -5.5074    0.2039 C   0  0  1  0  0  0  0  0  0  0  0  0
    4.2036   -4.7458   -0.5371 O   0  0  0  0  0  0  0  0  0  0  0  0
    5.9108   -4.5522    1.1258 C   0  0  2  0  0  0  0  0  0  0  0  0
    5.0675   -3.7204    1.8964 O   0  0  0  0  0  0  0  0  0  0  0  0
    6.9657   -3.7484    0.3853 C   0  0  0  0  0  0  0  0  0  0  0  0
    8.2030   -4.1150    0.7010 C   0  0  0  0  0  0  0  0  0  0  0  0
    8.1192   -5.1612    1.7051 C   0  0  0  0  0  0  0  0  0  0  0  0
    6.8365   -5.3694    1.9990 C   0  0  0  0  0  0  0  0  0  0  0  0
    6.2237   -6.3908    2.9657 C   0  0  1  0  0  0  0  0  0  0  0  0
    5.7138   -5.7023    4.0856 O   0  0  0  0  0  0  0  0  0  0  0  0
    5.0953   -7.2285    2.2711 C   0  0  2  0  0  0  0  0  0  0  0  0
    4.0594   -7.8682    3.2622 C   0  0  2  0  0  0  0  0  0  0  0  0
    3.0369   -7.0534    4.0406 C   0  0  0  0  0  0  0  0  0  0  0  0
    1.6037   -7.6194    3.9497 C   0  0  0  0  0  0  0  0  0  0  0  0
    0.5843   -6.6534    4.1333 C   0  0  0  0  0  0  0  0  0  0  0  0
   -0.7748   -7.0129    4.0909 C   0  0  0  0  0  0  0  0  0  0  0  0
   -1.1394   -8.3393    3.8397 C   0  0  0  0  0  0  0  0  0  0  0  0
   -0.1440   -9.3143    3.6385 C   0  0  0  0  0  0  0  0  0  0  0  0
    1.2345   -8.9862    3.6840 C   0  0  0  0  0  0  0  0  0  0  0  0
    2.1942  -10.1802    3.4611 C   0  0  0  0  0  0  0  0  0  0  0  0
    3.4384  -10.1248    4.3510 C   0  0  1  0  0  0  0  0  0  0  0  0
    4.2085  -12.1754    2.5118 H   0  0  0  0  0  0  0  0  0  0  0  0
    3.1502  -12.8961    3.7166 H   0  0  0  0  0  0  0  0  0  0  0  0
    4.8561  -13.2254    3.7506 H   0  0  0  0  0  0  0  0  0  0  0  0
    6.5251  -11.3111    4.7351 H   0  0  0  0  0  0  0  0  0  0  0  0
    6.7393   -9.2482    3.3419 H   0  0  0  0  0  0  0  0  0  0  0  0
    6.2454  -10.4416    1.1951 H   0  0  0  0  0  0  0  0  0  0  0  0
    4.5415  -10.2198    1.5115 H   0  0  0  0  0  0  0  0  0  0  0  0
    6.5946   -8.0484    0.9411 H   0  0  0  0  0  0  0  0  0  0  0  0
    3.4327   -6.4356    1.1936 H   0  0  0  0  0  0  0  0  0  0  0  0
    5.8508   -5.9182   -0.4999 H   0  0  0  0  0  0  0  0  0  0  0  0
    3.8505   -5.2923   -1.2330 H   0  0  0  0  0  0  0  0  0  0  0  0
    4.3739   -3.4290    1.3249 H   0  0  0  0  0  0  0  0  0  0  0  0
    6.7162   -2.9561   -0.3079 H   0  0  0  0  0  0  0  0  0  0  0  0
    9.1046   -3.6638    0.3126 H   0  0  0  0  0  0  0  0  0  0  0  0
    8.9771   -5.6487    2.1448 H   0  0  0  0  0  0  0  0  0  0  0  0
    7.0454   -7.0206    3.3110 H   0  0  0  0  0  0  0  0  0  0  0  0
    5.0371   -5.1149    3.7814 H   0  0  0  0  0  0  0  0  0  0  0  0
    3.3898   -8.2353    2.4904 H   0  0  0  0  0  0  0  0  0  0  0  0
    3.3302   -6.9489    5.0845 H   0  0  0  0  0  0  0  0  0  0  0  0
    3.0191   -6.0509    3.6188 H   0  0  0  0  0  0  0  0  0  0  0  0
    0.8472   -5.6220    4.3246 H   0  0  0  0  0  0  0  0  0  0  0  0
   -1.5492   -6.2841    4.2684 H   0  0  0  0  0  0  0  0  0  0  0  0
   -2.1819   -8.6325    3.8265 H   0  0  0  0  0  0  0  0  0  0  0  0
   -0.4671  -10.3365    3.4736 H   0  0  0  0  0  0  0  0  0  0  0  0
    1.6422  -11.0916    3.6947 H   0  0  0  0  0  0  0  0  0  0  0  0
    2.4364  -10.2547    2.4011 H   0  0  0  0  0  0  0  0  0  0  0  0
    3.0740   -9.9010    5.3569 H   0  0  0  0  0  0  0  0  0  0  0  0
    4.1281  -11.6964    5.4174 H   0  0  0  0  0  0  0  0  0  0  0  0
  1  2  1  0
  1 33  1  0
  1 34  1  0
  1 35  1  0
  2 32  1  0
  2  3  1  0
  2 60  1  1
  3  7  1  0
  3  4  1  0
  3 36  1  1
  4  5  2  0
  6  4  1  1
  6 23  1  0
  6 32  1  0
  6  7  1  0
  7  8  1  0
  7 37  1  6
  8  9  1  0
  8 38  1  0
  8 39  1  0
  9 22  1  0
  9 10  1  0
  9 40  1  6
 10 11  1  0
 11 22  1  0
 11 12  1  0
 11 41  1  1
 12 13  1  0
 12 14  1  0
 12 42  1  6
 13 43  1  0
 14 19  1  0
 14 15  1  1
 14 16  1  0
 15 44  1  0
 16 17  2  0
 16 45  1  0
 17 18  1  0
 17 46  1  0
 18 19  2  0
 18 47  1  0
 19 20  1  0
 20 21  1  0
 22 20  1  1
 20 48  1  1
 21 49  1  0
 22 23  1  0
 23 24  1  0
 23 50  1  6
 24 25  1  0
 24 51  1  0
 24 52  1  0
 25 30  2  0
 25 26  1  0
 26 27  2  0
 26 53  1  0
 27 28  1  0
 27 54  1  0
 28 29  2  0
 28 55  1  0
 29 30  1  0
 29 56  1  0
 30 31  1  0
 31 32  1  0
 31 57  1  0
 31 58  1  0
 32 59  1  1
M  CHG  1   2   1
M  END
>  <i_m_ct_stereo_status>  (246) 
1

>  <s_m_source_file>  (246) 
/var/tmp/pbs.5076255.sched01/tmplj_yfvzq/807e0r74np.sdf

>  <i_m_source_file_index>  (246) 
22

>  <i_lp_mmshare_version>  (246) 
48012

>  <i_f3d_flags>  (246) 
0

>  <s_epik_input>  (246) 
Tz1DMVtDQEhdKFtDQEBIXTJbQ0BAXTEzNClOKFtDSDNdKVtDQEBIXTRbQ0gyXWM1YyhbY0hdW2NIXVtjSF1bY0hdNSlbQ0gyXVtDQEhdM1tDQEBdNjdbQ0BASF0oW0NIMl0yKU9bQ0BASF02W0NAQEhdKFtPSF0pW0NAQF04KFtPSF0pQyhbQ0BIXTdbT0hdKT1bQ0hdW0NIXT1bQ0hdOA==

>  <s_epik_cmdline>  (246) 
J2VwaWtfcHl0aG9uJywgJy1waHQnLCAnMi4wJywgJy1waCcsICc3LjAnLCAnLXRuJywgJzgnLCAnLW1hJywgJzIwMCcsICctaW1hZScsICc8aW5maWxlLm1hZT4nLCAnLW9tYWUnLCAnPG91dGZpbGUubWFlPic=

>  <r_epik_Ionization_Penalty>  (246) 
1.7593

>  <r_epik_Ionization_Penalty_Charging>  (246) 
1.74735

>  <r_epik_Ionization_Penalty_Neutral>  (246) 
0.0119479

>  <r_epik_State_Penalty>  (246) 
2.01758

>  <r_epik_Charging_Adjusted_Penalty>  (246) 
3.76493

>  <i_epik_Tot_Q>  (246) 
1

>  <i_epik_Tot_abs_Q>  (246) 
1

>  <s_lp_Force_Field>  (246) 
OPLS3e

>  <r_lp_Energy>  (246) 
136.936

>  <b_lp_Chiralities_Consistent>  (246) 
1

>  <s_lp_Variant>  (246) 
73:0-2

>  <s_i_glide_gridfile>  (246) 
pfpi4k_grid

>  <i_i_glide_lignum>  (246) 
22

>  <i_i_glide_rotatable_bonds>  (246) 
3

>  <r_i_docking_score>  (246) 
-4.04945

>  <r_i_glide_ligand_efficiency>  (246) 
-0.126545

>  <r_i_glide_ligand_efficiency_sa>  (246) 
-0.401756

>  <r_i_glide_ligand_efficiency_ln>  (246) 
-0.906782

>  <r_i_glide_gscore>  (246) 
-4.04945

>  <r_i_glide_lipo>  (246) 
-0.7996

>  <r_i_glide_hbond>  (246) 
0

>  <r_i_glide_metal>  (246) 
-0

>  <r_i_glide_rewards>  (246) 
-0.946562

>  <r_i_glide_evdw>  (246) 
-22.7448

>  <r_i_glide_ecoul>  (246) 
-7.69578

>  <r_i_glide_erotb>  (246) 
0

>  <r_i_glide_esite>  (246) 
-0.0116815

>  <r_i_glide_emodel>  (246) 
-44.9485

>  <r_i_glide_energy>  (246) 
-30.4406

>  <r_i_glide_einternal>  (246) 
0.397385

>  <r_i_glide_intrahb_reward>  (246) 
-0.5

>  <i_i_glide_confnum>  (246) 
2

>  <i_i_glide_posenum>  (246) 
32

>  <r_i_glide_eff_state_penalty>  (246) 
0

>  <ligand_id>  (246) 
73

>  <original_smiles>  (246) 
CN1C2C(=O)C34C2CC2OC5C(O)C6(O)C=CC=C6C(O)C25C3Cc2ccccc2CC14

>  <smiles>  (246) 
[H]OC1([H])C2=C([H])C([H])=C([H])C2(O[H])C([H])(O[H])C2([H])OC3([H])C([H])([H])C4([H])C56C(=O)C4([H])[N+]([H])(C([H])([H])[H])C5([H])C([H])([H])c4c([H])c([H])c([H])c([H])c4C([H])([H])C6([H])C132

$$$$
73:1:1
     RDKit          3D

 60 67  0  0  1  0  0  0  0  0999 V2000
    5.2385  -10.5793    3.0152 C   0  0  0  0  0  0  0  0  0  0  0  0
    4.8475   -9.5263    3.9882 N   0  0  1  0  0  0  0  0  0  0  0  0
    5.8162   -8.3990    4.0636 C   0  0  2  0  0  0  0  0  0  0  0  0
    4.9799   -7.2910    4.7934 C   0  0  0  0  0  0  0  0  0  0  0  0
    5.0025   -6.6482    5.8375 O   0  0  0  0  0  0  0  0  0  0  0  0
    4.1538   -7.4253    3.5129 C   0  0  2  0  0  0  0  0  0  0  0  0
    5.5673   -7.4128    2.8873 C   0  0  2  0  0  0  0  0  0  0  0  0
    5.4695   -7.4795    1.3666 C   0  0  0  0  0  0  0  0  0  0  0  0
    4.9222   -6.0751    0.9800 C   0  0  1  0  0  0  0  0  0  0  0  0
    3.9233   -6.1309   -0.0586 O   0  0  0  0  0  0  0  0  0  0  0  0
    3.1881   -5.0634    0.6100 C   0  0  2  0  0  0  0  0  0  0  0  0
    3.3330   -3.7067   -0.1066 C   0  0  1  0  0  0  0  0  0  0  0  0
    2.1873   -3.4442   -0.8928 O   0  0  0  0  0  0  0  0  0  0  0  0
    3.5328   -2.5443    0.8893 C   0  0  2  0  0  0  0  0  0  0  0  0
    2.3655   -2.1842    1.6148 O   0  0  0  0  0  0  0  0  0  0  0  0
    4.1747   -1.3267    0.2440 C   0  0  0  0  0  0  0  0  0  0  0  0
    5.4225   -1.1318    0.6588 C   0  0  0  0  0  0  0  0  0  0  0  0
    5.7389   -2.1497    1.6318 C   0  0  0  0  0  0  0  0  0  0  0  0
    4.6604   -2.9164    1.8251 C   0  0  0  0  0  0  0  0  0  0  0  0
    4.5177   -4.1520    2.7188 C   0  0  1  0  0  0  0  0  0  0  0  0
    3.6866   -3.8187    3.8076 O   0  0  0  0  0  0  0  0  0  0  0  0
    3.9216   -5.3629    1.9324 C   0  0  2  0  0  0  0  0  0  0  0  0
    3.2135   -6.4454    2.8248 C   0  0  2  0  0  0  0  0  0  0  0  0
    1.8932   -6.1987    3.5414 C   0  0  0  0  0  0  0  0  0  0  0  0
    0.8655   -7.3328    3.3347 C   0  0  0  0  0  0  0  0  0  0  0  0
   -0.4800   -6.9101    3.4772 C   0  0  0  0  0  0  0  0  0  0  0  0
   -1.5488   -7.8044    3.2979 C   0  0  0  0  0  0  0  0  0  0  0  0
   -1.2859   -9.1354    2.9807 C   0  0  0  0  0  0  0  0  0  0  0  0
    0.0421   -9.5913    2.8579 C   0  0  0  0  0  0  0  0  0  0  0  0
    1.1392   -8.6996    3.0132 C   0  0  0  0  0  0  0  0  0  0  0  0
    2.5322   -9.3490    2.8309 C   0  0  0  0  0  0  0  0  0  0  0  0
    3.5749   -8.8033    3.8133 C   0  0  1  0  0  0  0  0  0  0  0  0
    5.2623  -10.2266    1.9888 H   0  0  0  0  0  0  0  0  0  0  0  0
    4.5623  -11.4241    3.0745 H   0  0  0  0  0  0  0  0  0  0  0  0
    6.2327  -10.9487    3.2539 H   0  0  0  0  0  0  0  0  0  0  0  0
    6.8423   -8.5473    4.3951 H   0  0  0  0  0  0  0  0  0  0  0  0
    6.2133   -6.5297    3.0679 H   0  0  0  0  0  0  0  0  0  0  0  0
    6.4258   -7.7004    0.8799 H   0  0  0  0  0  0  0  0  0  0  0  0
    4.7728   -8.2603    1.0576 H   0  0  0  0  0  0  0  0  0  0  0  0
    5.7058   -5.3852    0.6845 H   0  0  0  0  0  0  0  0  0  0  0  0
    2.1520   -5.3246    0.7359 H   0  0  0  0  0  0  0  0  0  0  0  0
    4.1994   -3.7248   -0.7746 H   0  0  0  0  0  0  0  0  0  0  0  0
    2.0507   -2.5024   -0.9829 H   0  0  0  0  0  0  0  0  0  0  0  0
    1.8180   -1.6404    1.0644 H   0  0  0  0  0  0  0  0  0  0  0  0
    3.6510   -0.6970   -0.4618 H   0  0  0  0  0  0  0  0  0  0  0  0
    6.0697   -0.3207    0.3492 H   0  0  0  0  0  0  0  0  0  0  0  0
    6.7009   -2.2524    2.0945 H   0  0  0  0  0  0  0  0  0  0  0  0
    5.5100   -4.3851    3.1111 H   0  0  0  0  0  0  0  0  0  0  0  0
    2.8796   -3.4790    3.4502 H   0  0  0  0  0  0  0  0  0  0  0  0
    2.8155   -7.0245    1.9967 H   0  0  0  0  0  0  0  0  0  0  0  0
    2.0513   -6.0295    4.6051 H   0  0  0  0  0  0  0  0  0  0  0  0
    1.4635   -5.2872    3.1352 H   0  0  0  0  0  0  0  0  0  0  0  0
   -0.6842   -5.8882    3.7392 H   0  0  0  0  0  0  0  0  0  0  0  0
   -2.5745   -7.4779    3.4299 H   0  0  0  0  0  0  0  0  0  0  0  0
   -2.1041   -9.8358    2.8851 H   0  0  0  0  0  0  0  0  0  0  0  0
    0.2120  -10.6373    2.6464 H   0  0  0  0  0  0  0  0  0  0  0  0
    2.4255  -10.4208    3.0024 H   0  0  0  0  0  0  0  0  0  0  0  0
    2.8440   -9.2553    1.7921 H   0  0  0  0  0  0  0  0  0  0  0  0
    3.0917   -8.8105    4.7920 H   0  0  0  0  0  0  0  0  0  0  0  0
    4.8259   -9.9624    4.8958 H   0  0  0  0  0  0  0  0  0  0  0  0
  1  2  1  0
  1 33  1  0
  1 34  1  0
  1 35  1  0
  2 32  1  0
  2  3  1  0
  2 60  1  1
  3  7  1  0
  3  4  1  0
  3 36  1  1
  4  5  2  0
  6  4  1  1
  6 23  1  0
  6 32  1  0
  6  7  1  0
  7  8  1  0
  7 37  1  6
  8  9  1  0
  8 38  1  0
  8 39  1  0
  9 22  1  0
  9 10  1  0
  9 40  1  6
 10 11  1  0
 11 22  1  0
 11 12  1  0
 11 41  1  1
 12 13  1  0
 12 14  1  0
 12 42  1  6
 13 43  1  0
 14 19  1  0
 14 15  1  1
 14 16  1  0
 15 44  1  0
 16 17  2  0
 16 45  1  0
 17 18  1  0
 17 46  1  0
 18 19  2  0
 18 47  1  0
 19 20  1  0
 20 21  1  0
 22 20  1  1
 20 48  1  1
 21 49  1  0
 22 23  1  0
 23 24  1  0
 23 50  1  6
 24 25  1  0
 24 51  1  0
 24 52  1  0
 25 30  2  0
 25 26  1  0
 26 27  2  0
 26 53  1  0
 27 28  1  0
 27 54  1  0
 28 29  2  0
 28 55  1  0
 29 30  1  0
 29 56  1  0
 30 31  1  0
 31 32  1  0
 31 57  1  0
 31 58  1  0
 32 59  1  1
M  CHG  1   2   1
M  END
>  <i_m_ct_stereo_status>  (247) 
1

>  <s_m_source_file>  (247) 
/var/tmp/pbs.5076255.sched01/tmplj_yfvzq/807e0r74np.sdf

>  <i_m_source_file_index>  (247) 
22

>  <i_lp_mmshare_version>  (247) 
48012

>  <i_f3d_flags>  (247) 
0

>  <s_epik_input>  (247) 
Tz1DMVtDQEhdKFtDQEBIXTJbQ0BAXTEzNClOKFtDSDNdKVtDQEBIXTRbQ0gyXWM1YyhbY0hdW2NIXVtjSF1bY0hdNSlbQ0gyXVtDQEhdM1tDQEBdNjdbQ0BASF0oW0NIMl0yKU9bQ0BASF02W0NAQEhdKFtPSF0pW0NAQF04KFtPSF0pQyhbQ0BIXTdbT0hdKT1bQ0hdW0NIXT1bQ0hdOA==

>  <s_epik_cmdline>  (247) 
J2VwaWtfcHl0aG9uJywgJy1waHQnLCAnMi4wJywgJy1waCcsICc3LjAnLCAnLXRuJywgJzgnLCAnLW1hJywgJzIwMCcsICctaW1hZScsICc8aW5maWxlLm1hZT4nLCAnLW9tYWUnLCAnPG91dGZpbGUubWFlPic=

>  <r_epik_Ionization_Penalty>  (247) 
1.7593

>  <r_epik_Ionization_Penalty_Charging>  (247) 
1.74735

>  <r_epik_Ionization_Penalty_Neutral>  (247) 
0.0119479

>  <r_epik_State_Penalty>  (247) 
2.01758

>  <r_epik_Charging_Adjusted_Penalty>  (247) 
3.76493

>  <i_epik_Tot_Q>  (247) 
1

>  <i_epik_Tot_abs_Q>  (247) 
1

>  <s_lp_Force_Field>  (247) 
OPLS3e

>  <r_lp_Energy>  (247) 
136.936

>  <b_lp_Chiralities_Consistent>  (247) 
1

>  <s_lp_Variant>  (247) 
73:0-2

>  <s_i_glide_gridfile>  (247) 
pfpi4k_grid

>  <i_i_glide_lignum>  (247) 
22

>  <i_i_glide_rotatable_bonds>  (247) 
3

>  <r_i_docking_score>  (247) 
-3.21233

>  <r_i_glide_ligand_efficiency>  (247) 
-0.100385

>  <r_i_glide_ligand_efficiency_sa>  (247) 
-0.318704

>  <r_i_glide_ligand_efficiency_ln>  (247) 
-0.719328

>  <r_i_glide_gscore>  (247) 
-3.21233

>  <r_i_glide_lipo>  (247) 
-0.449114

>  <r_i_glide_hbond>  (247) 
0

>  <r_i_glide_metal>  (247) 
-0

>  <r_i_glide_rewards>  (247) 
-0.946562

>  <r_i_glide_evdw>  (247) 
-24.8304

>  <r_i_glide_ecoul>  (247) 
-3.81758

>  <r_i_glide_erotb>  (247) 
0

>  <r_i_glide_esite>  (247) 
-0.00249708

>  <r_i_glide_emodel>  (247) 
-40.4277

>  <r_i_glide_energy>  (247) 
-28.648

>  <r_i_glide_einternal>  (247) 
1.41177

>  <r_i_glide_intrahb_reward>  (247) 
-0.5

>  <i_i_glide_confnum>  (247) 
1

>  <i_i_glide_posenum>  (247) 
20

>  <r_i_glide_eff_state_penalty>  (247) 
0

>  <ligand_id>  (247) 
73

>  <original_smiles>  (247) 
CN1C2C(=O)C34C2CC2OC5C(O)C6(O)C=CC=C6C(O)C25C3Cc2ccccc2CC14

>  <smiles>  (247) 
[H]OC1([H])C2=C([H])C([H])=C([H])C2(O[H])C([H])(O[H])C2([H])OC3([H])C([H])([H])C4([H])C56C(=O)C4([H])[N+]([H])(C([H])([H])[H])C5([H])C([H])([H])c4c([H])c([H])c([H])c([H])c4C([H])([H])C6([H])C132

$$$$
73:1:2
     RDKit          3D

 60 67  0  0  1  0  0  0  0  0999 V2000
    3.9049   -1.4649    5.8388 C   0  0  0  0  0  0  0  0  0  0  0  0
    4.8334   -2.4998    5.3219 N   0  0  1  0  0  0  0  0  0  0  0  0
    4.8086   -3.7575    6.0994 C   0  0  2  0  0  0  0  0  0  0  0  0
    5.5084   -4.7698    5.1286 C   0  0  0  0  0  0  0  0  0  0  0  0
    6.5276   -5.4491    5.0759 O   0  0  0  0  0  0  0  0  0  0  0  0
    4.2736   -4.4324    4.2880 C   0  0  2  0  0  0  0  0  0  0  0  0
    3.5880   -4.6263    5.6630 C   0  0  2  0  0  0  0  0  0  0  0  0
    2.0734   -4.4558    5.5189 C   0  0  0  0  0  0  0  0  0  0  0  0
    1.6226   -5.7248    4.7329 C   0  0  1  0  0  0  0  0  0  0  0  0
    0.6199   -5.4790    3.7147 O   0  0  0  0  0  0  0  0  0  0  0  0
    1.2886   -6.4495    2.8567 C   0  0  2  0  0  0  0  0  0  0  0  0
    0.5115   -7.7790    2.7785 C   0  0  1  0  0  0  0  0  0  0  0  0
   -0.2986   -7.8298    1.6202 O   0  0  0  0  0  0  0  0  0  0  0  0
    1.4491   -9.0033    2.8334 C   0  0  2  0  0  0  0  0  0  0  0  0
    2.2238   -9.2087    1.6684 O   0  0  0  0  0  0  0  0  0  0  0  0
    0.7264  -10.2722    3.2463 C   0  0  0  0  0  0  0  0  0  0  0  0
    1.0740  -10.6781    4.4641 C   0  0  0  0  0  0  0  0  0  0  0  0
    2.0819   -9.7738    4.9752 C   0  0  0  0  0  0  0  0  0  0  0  0
    2.3459   -8.8595    4.0419 C   0  0  0  0  0  0  0  0  0  0  0  0
    3.3012   -7.6606    4.1100 C   0  0  1  0  0  0  0  0  0  0  0  0
    4.4016   -7.9345    3.2735 O   0  0  0  0  0  0  0  0  0  0  0  0
    2.5943   -6.3311    3.6758 C   0  0  2  0  0  0  0  0  0  0  0  0
    3.5744   -5.2095    3.1781 C   0  0  2  0  0  0  0  0  0  0  0  0
    4.3322   -5.2865    1.8612 C   0  0  0  0  0  0  0  0  0  0  0  0
    4.2358   -3.9998    1.0133 C   0  0  0  0  0  0  0  0  0  0  0  0
    4.3970   -4.2089   -0.3768 C   0  0  0  0  0  0  0  0  0  0  0  0
    4.3339   -3.1425   -1.2912 C   0  0  0  0  0  0  0  0  0  0  0  0
    4.0979   -1.8392   -0.8276 C   0  0  0  0  0  0  0  0  0  0  0  0
    3.9192   -1.6066    0.5511 C   0  0  0  0  0  0  0  0  0  0  0  0
    3.9778   -2.6663    1.4946 C   0  0  0  0  0  0  0  0  0  0  0  0
    3.7648   -2.2449    2.9654 C   0  0  0  0  0  0  0  0  0  0  0  0
    4.6703   -2.9998    3.9431 C   0  0  1  0  0  0  0  0  0  0  0  0
    2.8627   -1.7565    5.7777 H   0  0  0  0  0  0  0  0  0  0  0  0
    4.0327   -0.5276    5.3093 H   0  0  0  0  0  0  0  0  0  0  0  0
    4.1165   -1.2644    6.8868 H   0  0  0  0  0  0  0  0  0  0  0  0
    5.1101   -3.7876    7.1462 H   0  0  0  0  0  0  0  0  0  0  0  0
    3.6999   -5.6080    6.1664 H   0  0  0  0  0  0  0  0  0  0  0  0
    1.5636   -4.3584    6.4794 H   0  0  0  0  0  0  0  0  0  0  0  0
    1.8426   -3.5590    4.9475 H   0  0  0  0  0  0  0  0  0  0  0  0
    1.2812   -6.5152    5.3977 H   0  0  0  0  0  0  0  0  0  0  0  0
    1.4859   -6.0466    1.8733 H   0  0  0  0  0  0  0  0  0  0  0  0
   -0.1673   -7.8523    3.6306 H   0  0  0  0  0  0  0  0  0  0  0  0
   -0.1395   -8.6544    1.1598 H   0  0  0  0  0  0  0  0  0  0  0  0
    2.5247  -10.1074    1.6548 H   0  0  0  0  0  0  0  0  0  0  0  0
    0.0086  -10.7712    2.6120 H   0  0  0  0  0  0  0  0  0  0  0  0
    0.6815  -11.5463    4.9789 H   0  0  0  0  0  0  0  0  0  0  0  0
    2.5272   -9.8663    5.9570 H   0  0  0  0  0  0  0  0  0  0  0  0
    3.6691   -7.6057    5.1358 H   0  0  0  0  0  0  0  0  0  0  0  0
    4.0647   -8.1994    2.4311 H   0  0  0  0  0  0  0  0  0  0  0  0
    2.7963   -4.5269    2.8524 H   0  0  0  0  0  0  0  0  0  0  0  0
    5.3779   -5.5396    2.0249 H   0  0  0  0  0  0  0  0  0  0  0  0
    3.9037   -6.1005    1.2785 H   0  0  0  0  0  0  0  0  0  0  0  0
    4.5649   -5.2063   -0.7622 H   0  0  0  0  0  0  0  0  0  0  0  0
    4.4567   -3.3281   -2.3514 H   0  0  0  0  0  0  0  0  0  0  0  0
    4.0353   -1.0137   -1.5257 H   0  0  0  0  0  0  0  0  0  0  0  0
    3.7239   -0.5899    0.8732 H   0  0  0  0  0  0  0  0  0  0  0  0
    3.9921   -1.1809    3.0343 H   0  0  0  0  0  0  0  0  0  0  0  0
    2.7093   -2.3293    3.2189 H   0  0  0  0  0  0  0  0  0  0  0  0
    5.6676   -2.9734    3.4987 H   0  0  0  0  0  0  0  0  0  0  0  0
    5.7616   -2.1182    5.4022 H   0  0  0  0  0  0  0  0  0  0  0  0
  1  2  1  0
  1 33  1  0
  1 34  1  0
  1 35  1  0
  2 32  1  0
  2  3  1  0
  2 60  1  6
  3  7  1  0
  3  4  1  0
  3 36  1  1
  4  5  2  0
  6  4  1  1
  6 23  1  0
  6 32  1  0
  6  7  1  0
  7  8  1  0
  7 37  1  1
  8  9  1  0
  8 38  1  0
  8 39  1  0
  9 22  1  0
  9 10  1  0
  9 40  1  1
 10 11  1  0
 11 22  1  0
 11 12  1  0
 11 41  1  6
 12 13  1  0
 12 14  1  0
 12 42  1  1
 13 43  1  0
 14 19  1  0
 14 15  1  6
 14 16  1  0
 15 44  1  0
 16 17  2  0
 16 45  1  0
 17 18  1  0
 17 46  1  0
 18 19  2  0
 18 47  1  0
 19 20  1  0
 20 21  1  0
 22 20  1  1
 20 48  1  1
 21 49  1  0
 22 23  1  0
 23 24  1  0
 23 50  1  6
 24 25  1  0
 24 51  1  0
 24 52  1  0
 25 30  2  0
 25 26  1  0
 26 27  2  0
 26 53  1  0
 27 28  1  0
 27 54  1  0
 28 29  2  0
 28 55  1  0
 29 30  1  0
 29 56  1  0
 30 31  1  0
 31 32  1  0
 31 57  1  0
 31 58  1  0
 32 59  1  6
M  CHG  1   2   1
M  END
>  <i_m_ct_stereo_status>  (248) 
1

>  <s_m_source_file>  (248) 
/var/tmp/pbs.5076255.sched01/tmplj_yfvzq/807e0r74np.sdf

>  <i_m_source_file_index>  (248) 
22

>  <i_lp_mmshare_version>  (248) 
48012

>  <i_f3d_flags>  (248) 
0

>  <s_epik_input>  (248) 
Tz1DMVtDQEhdKFtDQEBIXTJbQ0BAXTEzNClOKFtDSDNdKVtDQEBIXTRbQ0gyXWM1YyhbY0hdW2NIXVtjSF1bY0hdNSlbQ0gyXVtDQEhdM1tDQEBdNjdbQ0BASF0oW0NIMl0yKU9bQ0BASF02W0NAQEhdKFtPSF0pW0NAQF04KFtPSF0pQyhbQ0BIXTdbT0hdKT1bQ0hdW0NIXT1bQ0hdOA==

>  <s_epik_cmdline>  (248) 
J2VwaWtfcHl0aG9uJywgJy1waHQnLCAnMi4wJywgJy1waCcsICc3LjAnLCAnLXRuJywgJzgnLCAnLW1hJywgJzIwMCcsICctaW1hZScsICc8aW5maWxlLm1hZT4nLCAnLW9tYWUnLCAnPG91dGZpbGUubWFlPic=

>  <r_epik_Ionization_Penalty>  (248) 
1.7593

>  <r_epik_Ionization_Penalty_Charging>  (248) 
1.74735

>  <r_epik_Ionization_Penalty_Neutral>  (248) 
0.0119479

>  <r_epik_State_Penalty>  (248) 
2.01758

>  <r_epik_Charging_Adjusted_Penalty>  (248) 
3.76493

>  <i_epik_Tot_Q>  (248) 
1

>  <i_epik_Tot_abs_Q>  (248) 
1

>  <s_lp_Force_Field>  (248) 
OPLS3e

>  <r_lp_Energy>  (248) 
136.936

>  <b_lp_Chiralities_Consistent>  (248) 
1

>  <s_lp_Variant>  (248) 
73:0-2

>  <s_i_glide_gridfile>  (248) 
pfpi4k_grid

>  <i_i_glide_lignum>  (248) 
22

>  <i_i_glide_rotatable_bonds>  (248) 
3

>  <r_i_docking_score>  (248) 
-3.00737

>  <r_i_glide_ligand_efficiency>  (248) 
-0.0939804

>  <r_i_glide_ligand_efficiency_sa>  (248) 
-0.298369

>  <r_i_glide_ligand_efficiency_ln>  (248) 
-0.673433

>  <r_i_glide_gscore>  (248) 
-3.00737

>  <r_i_glide_lipo>  (248) 
-0.114354

>  <r_i_glide_hbond>  (248) 
0

>  <r_i_glide_metal>  (248) 
-0

>  <r_i_glide_rewards>  (248) 
-0.948826

>  <r_i_glide_evdw>  (248) 
-23.1079

>  <r_i_glide_ecoul>  (248) 
-5.25864

>  <r_i_glide_erotb>  (248) 
0

>  <r_i_glide_esite>  (248) 
0

>  <r_i_glide_emodel>  (248) 
-39.6728

>  <r_i_glide_energy>  (248) 
-28.3666

>  <r_i_glide_einternal>  (248) 
1.59004

>  <r_i_glide_intrahb_reward>  (248) 
-0.5

>  <i_i_glide_confnum>  (248) 
2

>  <i_i_glide_posenum>  (248) 
22

>  <r_i_glide_eff_state_penalty>  (248) 
0

>  <ligand_id>  (248) 
73

>  <original_smiles>  (248) 
CN1C2C(=O)C34C2CC2OC5C(O)C6(O)C=CC=C6C(O)C25C3Cc2ccccc2CC14

>  <smiles>  (248) 
[H]OC1([H])C2=C([H])C([H])=C([H])C2(O[H])C([H])(O[H])C2([H])OC3([H])C([H])([H])C4([H])C56C(=O)C4([H])[N+]([H])(C([H])([H])[H])C5([H])C([H])([H])c4c([H])c([H])c([H])c([H])c4C([H])([H])C6([H])C132

$$$$
74:0:0
     RDKit          3D

 40 43  0  0  1  0  0  0  0  0999 V2000
    5.7559   -0.6952    1.1339 C   0  0  0  0  0  0  0  0  0  0  0  0
    5.2493   -1.6762    0.3828 C   0  0  0  0  0  0  0  0  0  0  0  0
    4.4472   -1.4116   -0.8261 C   0  0  0  0  0  0  0  0  0  0  0  0
    4.0519   -2.4614   -1.6179 C   0  0  0  0  0  0  0  0  0  0  0  0
    3.1843   -2.2422   -2.8441 C   0  0  0  0  0  0  0  0  0  0  0  0
    4.5826   -3.9125   -1.3508 C   0  0  1  0  0  0  0  0  0  0  0  0
    5.9337   -3.6836   -0.7358 C   0  0  0  0  0  0  0  0  0  0  0  0
    5.4171   -3.1604    0.6557 C   0  0  1  0  0  0  0  0  0  0  0  0
    6.1561   -3.8046    1.8511 C   0  0  1  0  0  0  0  0  0  0  0  0
    5.1699   -3.7892    3.0205 C   0  0  0  0  0  0  0  0  0  0  0  0
    3.8080   -4.0665    2.3866 C   0  0  0  0  0  0  0  0  0  0  0  0
    3.9712   -3.6447    0.9177 C   0  0  2  0  0  0  0  0  0  0  0  0
    4.0238   -4.6122   -0.1507 N   0  0  1  0  0  0  0  0  0  0  0  0
    4.3276   -6.0312    0.1718 C   0  0  0  0  0  0  0  0  0  0  0  0
    5.4676   -6.2428    1.2546 C   0  0  0  0  0  0  0  0  0  0  0  0
    6.5147   -5.2117    1.5121 N   0  0  0  0  0  0  0  0  0  0  0  0
    7.5165   -5.7377    2.4395 C   0  0  0  0  0  0  0  0  0  0  0  0
    6.3394   -0.9048    2.0193 H   0  0  0  0  0  0  0  0  0  0  0  0
    5.5904    0.3408    0.8647 H   0  0  0  0  0  0  0  0  0  0  0  0
    4.1255   -0.4049   -1.0512 H   0  0  0  0  0  0  0  0  0  0  0  0
    2.2462   -2.7988   -2.7751 H   0  0  0  0  0  0  0  0  0  0  0  0
    3.7141   -2.5411   -3.7516 H   0  0  0  0  0  0  0  0  0  0  0  0
    2.9375   -1.1819   -2.9402 H   0  0  0  0  0  0  0  0  0  0  0  0
    4.6346   -4.5163   -2.2541 H   0  0  0  0  0  0  0  0  0  0  0  0
    6.5143   -4.5982   -0.7311 H   0  0  0  0  0  0  0  0  0  0  0  0
    6.5512   -2.9723   -1.2911 H   0  0  0  0  0  0  0  0  0  0  0  0
    7.0566   -3.2440    2.0686 H   0  0  0  0  0  0  0  0  0  0  0  0
    5.4177   -4.4830    3.8240 H   0  0  0  0  0  0  0  0  0  0  0  0
    5.1609   -2.7851    3.4456 H   0  0  0  0  0  0  0  0  0  0  0  0
    3.4669   -5.0896    2.5264 H   0  0  0  0  0  0  0  0  0  0  0  0
    3.0665   -3.4259    2.8620 H   0  0  0  0  0  0  0  0  0  0  0  0
    3.1615   -2.9417    0.7052 H   0  0  0  0  0  0  0  0  0  0  0  0
    3.4160   -6.4804    0.5677 H   0  0  0  0  0  0  0  0  0  0  0  0
    4.5595   -6.5843   -0.7393 H   0  0  0  0  0  0  0  0  0  0  0  0
    5.0416   -6.5685    2.2060 H   0  0  0  0  0  0  0  0  0  0  0  0
    6.0155   -7.1141    0.8993 H   0  0  0  0  0  0  0  0  0  0  0  0
    7.9277   -6.6791    2.0691 H   0  0  0  0  0  0  0  0  0  0  0  0
    7.0923   -5.9216    3.4290 H   0  0  0  0  0  0  0  0  0  0  0  0
    8.3549   -5.0511    2.5462 H   0  0  0  0  0  0  0  0  0  0  0  0
    5.0075   -4.6242    0.0979 H   0  0  0  0  0  0  0  0  0  0  0  0
  1  2  2  0
  1 18  1  0
  1 19  1  0
  8  2  1  6
  2  3  1  0
  3  4  2  0
  3 20  1  0
  4  5  1  0
  4  6  1  0
  5 21  1  0
  5 22  1  0
  5 23  1  0
  6 13  1  0
  6  7  1  0
  6 24  1  6
  7  8  1  0
  7 25  1  0
  7 26  1  0
  8 12  1  0
  8  9  1  0
  9 16  1  0
  9 10  1  0
  9 27  1  1
 10 11  1  0
 10 28  1  0
 10 29  1  0
 11 12  1  0
 11 30  1  0
 11 31  1  0
 12 13  1  0
 12 32  1  6
 13 14  1  0
 13 40  1  6
 14 15  1  0
 14 33  1  0
 14 34  1  0
 15 16  1  0
 15 35  1  0
 15 36  1  0
 16 17  1  0
 17 37  1  0
 17 38  1  0
 17 39  1  0
M  CHG  1  13   1
M  END
>  <i_m_ct_stereo_status>  (249) 
1

>  <s_m_source_file>  (249) 
/var/tmp/pbs.5076255.sched01/tmplj_yfvzq/807e0r74np.sdf

>  <i_m_source_file_index>  (249) 
23

>  <i_lp_mmshare_version>  (249) 
48012

>  <i_f3d_flags>  (249) 
0

>  <s_epik_input>  (249) 
W0NIMl09QzFbQ0hdPUMoW0NIM10pW0NAQEhdKFtDSDJdMilOKFtDQEBIXTNbQ0gyXVtDSDJdW0NAQEhdNFtDQEBdMTIzKVtDSDJdW0NIMl1ONFtDSDNd

>  <s_epik_cmdline>  (249) 
J2VwaWtfcHl0aG9uJywgJy1waHQnLCAnMi4wJywgJy1waCcsICc3LjAnLCAnLXRuJywgJzgnLCAnLW1hJywgJzIwMCcsICctaW1hZScsICc8aW5maWxlLm1hZT4nLCAnLW9tYWUnLCAnPG91dGZpbGUubWFlPic=

>  <r_epik_Ionization_Penalty>  (249) 
0.00708109

>  <r_epik_Ionization_Penalty_Charging>  (249) 
0.00702683

>  <r_epik_Ionization_Penalty_Neutral>  (249) 
5.42568e-05

>  <r_epik_State_Penalty>  (249) 
0.30881

>  <r_epik_Charging_Adjusted_Penalty>  (249) 
0.315836

>  <i_epik_Tot_Q>  (249) 
1

>  <i_epik_Tot_abs_Q>  (249) 
1

>  <s_lp_Force_Field>  (249) 
OPLS3e

>  <r_lp_Energy>  (249) 
127.475

>  <b_lp_Chiralities_Consistent>  (249) 
1

>  <s_lp_Variant>  (249) 
74:0-1

>  <s_i_glide_gridfile>  (249) 
pfpi4k_grid

>  <i_i_glide_lignum>  (249) 
23

>  <i_i_glide_rotatable_bonds>  (249) 
0

>  <r_i_docking_score>  (249) 
-3.46529

>  <r_i_glide_ligand_efficiency>  (249) 
-0.203841

>  <r_i_glide_ligand_efficiency_sa>  (249) 
-0.524132

>  <r_i_glide_ligand_efficiency_ln>  (249) 
-0.904017

>  <r_i_glide_gscore>  (249) 
-3.46529

>  <r_i_glide_lipo>  (249) 
-0.52902

>  <r_i_glide_hbond>  (249) 
0

>  <r_i_glide_metal>  (249) 
-0

>  <r_i_glide_rewards>  (249) 
-1.83166

>  <r_i_glide_evdw>  (249) 
-15.7447

>  <r_i_glide_ecoul>  (249) 
-1.99102

>  <r_i_glide_erotb>  (249) 
0

>  <r_i_glide_esite>  (249) 
-0.0187244

>  <r_i_glide_emodel>  (249) 
-21.482

>  <r_i_glide_energy>  (249) 
-17.7357

>  <r_i_glide_einternal>  (249) 
0

>  <r_i_glide_intrahb_reward>  (249) 
-0

>  <i_i_glide_confnum>  (249) 
1

>  <i_i_glide_posenum>  (249) 
1

>  <r_i_glide_eff_state_penalty>  (249) 
0

>  <ligand_id>  (249) 
74

>  <original_smiles>  (249) 
C=C1C=C(C)C2CC13C1CCC3N2CCN1C

>  <smiles>  (249) 
[H]C([H])=C1C([H])=C(C([H])([H])[H])C2([H])C([H])([H])C13C1([H])N(C([H])([H])[H])C([H])([H])C([H])([H])[N+]2([H])C3([H])C([H])([H])C1([H])[H]

$$$$
74:0:1
     RDKit          3D

 40 43  0  0  1  0  0  0  0  0999 V2000
    1.8451   -4.2428   -0.9006 C   0  0  0  0  0  0  0  0  0  0  0  0
    2.7991   -3.3538   -1.1726 C   0  0  0  0  0  0  0  0  0  0  0  0
    2.9111   -2.6887   -2.4867 C   0  0  0  0  0  0  0  0  0  0  0  0
    3.8448   -1.7014   -2.6640 C   0  0  0  0  0  0  0  0  0  0  0  0
    4.0096   -1.0076   -4.0008 C   0  0  0  0  0  0  0  0  0  0  0  0
    4.6882   -1.1662   -1.4576 C   0  0  1  0  0  0  0  0  0  0  0  0
    3.7859   -1.3434   -0.2714 C   0  0  0  0  0  0  0  0  0  0  0  0
    3.8879   -2.9184   -0.2013 C   0  0  1  0  0  0  0  0  0  0  0  0
    4.0975   -3.4454    1.2401 C   0  0  1  0  0  0  0  0  0  0  0  0
    4.8684   -4.7619    1.0948 C   0  0  0  0  0  0  0  0  0  0  0  0
    5.8203   -4.5425   -0.0769 C   0  0  0  0  0  0  0  0  0  0  0  0
    5.1859   -3.4064   -0.8902 C   0  0  2  0  0  0  0  0  0  0  0  0
    5.7539   -2.0781   -0.9257 N   0  0  1  0  0  0  0  0  0  0  0  0
    6.7099   -1.6733    0.1382 C   0  0  0  0  0  0  0  0  0  0  0  0
    6.3214   -2.1466    1.6010 C   0  0  0  0  0  0  0  0  0  0  0  0
    4.9184   -2.4601    1.9968 N   0  0  0  0  0  0  0  0  0  0  0  0
    4.8583   -2.7394    3.4280 C   0  0  0  0  0  0  0  0  0  0  0  0
    1.8179   -4.7398    0.0570 H   0  0  0  0  0  0  0  0  0  0  0  0
    1.1023   -4.5063   -1.6458 H   0  0  0  0  0  0  0  0  0  0  0  0
    2.2916   -3.0118   -3.3133 H   0  0  0  0  0  0  0  0  0  0  0  0
    5.0162   -1.1294   -4.3880 H   0  0  0  0  0  0  0  0  0  0  0  0
    3.7928    0.0589   -3.9158 H   0  0  0  0  0  0  0  0  0  0  0  0
    3.3255   -1.4340   -4.7337 H   0  0  0  0  0  0  0  0  0  0  0  0
    4.9963   -0.1350   -1.5998 H   0  0  0  0  0  0  0  0  0  0  0  0
    4.1466   -0.7482    0.5674 H   0  0  0  0  0  0  0  0  0  0  0  0
    2.7786   -0.9647   -0.4320 H   0  0  0  0  0  0  0  0  0  0  0  0
    3.1424   -3.5821    1.7462 H   0  0  0  0  0  0  0  0  0  0  0  0
    5.3838   -5.0913    1.9962 H   0  0  0  0  0  0  0  0  0  0  0  0
    4.1665   -5.5491    0.8154 H   0  0  0  0  0  0  0  0  0  0  0  0
    6.8531   -4.3623    0.2183 H   0  0  0  0  0  0  0  0  0  0  0  0
    5.8056   -5.4463   -0.6834 H   0  0  0  0  0  0  0  0  0  0  0  0
    5.1133   -3.7695   -1.9183 H   0  0  0  0  0  0  0  0  0  0  0  0
    7.6780   -2.1216   -0.1031 H   0  0  0  0  0  0  0  0  0  0  0  0
    6.8599   -0.5910    0.1128 H   0  0  0  0  0  0  0  0  0  0  0  0
    6.9658   -2.9749    1.8997 H   0  0  0  0  0  0  0  0  0  0  0  0
    6.6168   -1.3126    2.2371 H   0  0  0  0  0  0  0  0  0  0  0  0
    5.2743   -1.9058    3.9933 H   0  0  0  0  0  0  0  0  0  0  0  0
    5.4171   -3.6377    3.6912 H   0  0  0  0  0  0  0  0  0  0  0  0
    3.8243   -2.8712    3.7459 H   0  0  0  0  0  0  0  0  0  0  0  0
    5.1871   -1.9786   -0.0911 H   0  0  0  0  0  0  0  0  0  0  0  0
  1  2  2  0
  1 18  1  0
  1 19  1  0
  8  2  1  6
  2  3  1  0
  3  4  2  0
  3 20  1  0
  4  5  1  0
  4  6  1  0
  5 21  1  0
  5 22  1  0
  5 23  1  0
  6 13  1  0
  6  7  1  0
  6 24  1  6
  7  8  1  0
  7 25  1  0
  7 26  1  0
  8 12  1  0
  8  9  1  0
  9 16  1  0
  9 10  1  0
  9 27  1  1
 10 11  1  0
 10 28  1  0
 10 29  1  0
 11 12  1  0
 11 30  1  0
 11 31  1  0
 12 13  1  0
 12 32  1  6
 13 14  1  0
 13 40  1  6
 14 15  1  0
 14 33  1  0
 14 34  1  0
 15 16  1  0
 15 35  1  0
 15 36  1  0
 16 17  1  0
 17 37  1  0
 17 38  1  0
 17 39  1  0
M  CHG  1  13   1
M  END
>  <i_m_ct_stereo_status>  (250) 
1

>  <s_m_source_file>  (250) 
/var/tmp/pbs.5076255.sched01/tmplj_yfvzq/807e0r74np.sdf

>  <i_m_source_file_index>  (250) 
23

>  <i_lp_mmshare_version>  (250) 
48012

>  <i_f3d_flags>  (250) 
0

>  <s_epik_input>  (250) 
W0NIMl09QzFbQ0hdPUMoW0NIM10pW0NAQEhdKFtDSDJdMilOKFtDQEBIXTNbQ0gyXVtDSDJdW0NAQEhdNFtDQEBdMTIzKVtDSDJdW0NIMl1ONFtDSDNd

>  <s_epik_cmdline>  (250) 
J2VwaWtfcHl0aG9uJywgJy1waHQnLCAnMi4wJywgJy1waCcsICc3LjAnLCAnLXRuJywgJzgnLCAnLW1hJywgJzIwMCcsICctaW1hZScsICc8aW5maWxlLm1hZT4nLCAnLW9tYWUnLCAnPG91dGZpbGUubWFlPic=

>  <r_epik_Ionization_Penalty>  (250) 
0.00708109

>  <r_epik_Ionization_Penalty_Charging>  (250) 
0.00702683

>  <r_epik_Ionization_Penalty_Neutral>  (250) 
5.42568e-05

>  <r_epik_State_Penalty>  (250) 
0.30881

>  <r_epik_Charging_Adjusted_Penalty>  (250) 
0.315836

>  <i_epik_Tot_Q>  (250) 
1

>  <i_epik_Tot_abs_Q>  (250) 
1

>  <s_lp_Force_Field>  (250) 
OPLS3e

>  <r_lp_Energy>  (250) 
127.475

>  <b_lp_Chiralities_Consistent>  (250) 
1

>  <s_lp_Variant>  (250) 
74:0-1

>  <s_i_glide_gridfile>  (250) 
pfpi4k_grid

>  <i_i_glide_lignum>  (250) 
23

>  <i_i_glide_rotatable_bonds>  (250) 
0

>  <r_i_docking_score>  (250) 
-3.40737

>  <r_i_glide_ligand_efficiency>  (250) 
-0.200433

>  <r_i_glide_ligand_efficiency_sa>  (250) 
-0.515371

>  <r_i_glide_ligand_efficiency_ln>  (250) 
-0.888906

>  <r_i_glide_gscore>  (250) 
-3.40737

>  <r_i_glide_lipo>  (250) 
-0.510745

>  <r_i_glide_hbond>  (250) 
0

>  <r_i_glide_metal>  (250) 
-0

>  <r_i_glide_rewards>  (250) 
-1.83166

>  <r_i_glide_evdw>  (250) 
-13.9714

>  <r_i_glide_ecoul>  (250) 
-2.19726

>  <r_i_glide_erotb>  (250) 
0

>  <r_i_glide_esite>  (250) 
-0.0368018

>  <r_i_glide_emodel>  (250) 
-19.8757

>  <r_i_glide_energy>  (250) 
-16.1687

>  <r_i_glide_einternal>  (250) 
0

>  <r_i_glide_intrahb_reward>  (250) 
-0

>  <i_i_glide_confnum>  (250) 
1

>  <i_i_glide_posenum>  (250) 
40

>  <r_i_glide_eff_state_penalty>  (250) 
0

>  <ligand_id>  (250) 
74

>  <original_smiles>  (250) 
C=C1C=C(C)C2CC13C1CCC3N2CCN1C

>  <smiles>  (250) 
[H]C([H])=C1C([H])=C(C([H])([H])[H])C2([H])C([H])([H])C13C1([H])N(C([H])([H])[H])C([H])([H])C([H])([H])[N+]2([H])C3([H])C([H])([H])C1([H])[H]

$$$$
74:1:0
     RDKit          3D

 40 43  0  0  1  0  0  0  0  0999 V2000
    2.6216   -4.6113   -0.0142 C   0  0  0  0  0  0  0  0  0  0  0  0
    3.3092   -3.5376   -0.4369 C   0  0  0  0  0  0  0  0  0  0  0  0
    3.2696   -3.0822   -1.8393 C   0  0  0  0  0  0  0  0  0  0  0  0
    3.9125   -1.9299   -2.1826 C   0  0  0  0  0  0  0  0  0  0  0  0
    3.9798   -1.4263   -3.6112 C   0  0  0  0  0  0  0  0  0  0  0  0
    4.5528   -1.0353   -1.0837 C   0  0  1  0  0  0  0  0  0  0  0  0
    3.7176   -1.2495    0.1598 C   0  0  0  0  0  0  0  0  0  0  0  0
    4.2128   -2.6817    0.4466 C   0  0  1  0  0  0  0  0  0  0  0  0
    4.4940   -2.9898    1.9240 C   0  0  1  0  0  0  0  0  0  0  0  0
    5.5862   -4.0693    1.9070 C   0  0  0  0  0  0  0  0  0  0  0  0
    6.5369   -3.6260    0.7983 C   0  0  0  0  0  0  0  0  0  0  0  0
    5.6126   -2.8628   -0.1708 C   0  0  2  0  0  0  0  0  0  0  0  0
    5.8786   -1.5017   -0.5893 N   0  0  0  0  0  0  0  0  0  0  0  0
    6.4374   -0.7083    0.5245 C   0  0  0  0  0  0  0  0  0  0  0  0
    6.0529   -0.8504    2.0607 C   0  0  0  0  0  0  0  0  0  0  0  0
    5.0386   -1.8034    2.6683 N   0  0  1  0  0  0  0  0  0  0  0  0
    4.0184   -1.1176    3.5103 C   0  0  0  0  0  0  0  0  0  0  0  0
    2.6645   -4.9717    1.0049 H   0  0  0  0  0  0  0  0  0  0  0  0
    2.0159   -5.1682   -0.7125 H   0  0  0  0  0  0  0  0  0  0  0  0
    2.7976   -3.6882   -2.5975 H   0  0  0  0  0  0  0  0  0  0  0  0
    3.4915   -0.4542   -3.6952 H   0  0  0  0  0  0  0  0  0  0  0  0
    3.4773   -2.1129   -4.2949 H   0  0  0  0  0  0  0  0  0  0  0  0
    5.0074   -1.3228   -3.9375 H   0  0  0  0  0  0  0  0  0  0  0  0
    4.5574    0.0085   -1.3946 H   0  0  0  0  0  0  0  0  0  0  0  0
    3.8986   -0.4583    0.8801 H   0  0  0  0  0  0  0  0  0  0  0  0
    2.6431   -1.2109   -0.0140 H   0  0  0  0  0  0  0  0  0  0  0  0
    3.6035   -3.3694    2.4258 H   0  0  0  0  0  0  0  0  0  0  0  0
    6.0843   -4.2208    2.8646 H   0  0  0  0  0  0  0  0  0  0  0  0
    5.1274   -5.0174    1.6286 H   0  0  0  0  0  0  0  0  0  0  0  0
    7.3674   -3.0390    1.1851 H   0  0  0  0  0  0  0  0  0  0  0  0
    6.9826   -4.4923    0.3106 H   0  0  0  0  0  0  0  0  0  0  0  0
    5.6094   -3.4592   -1.0823 H   0  0  0  0  0  0  0  0  0  0  0  0
    7.5105   -0.8965    0.4846 H   0  0  0  0  0  0  0  0  0  0  0  0
    6.3430    0.3419    0.2629 H   0  0  0  0  0  0  0  0  0  0  0  0
    6.9936   -1.0564    2.5621 H   0  0  0  0  0  0  0  0  0  0  0  0
    5.8113    0.1462    2.4241 H   0  0  0  0  0  0  0  0  0  0  0  0
    3.2589   -0.5989    2.9265 H   0  0  0  0  0  0  0  0  0  0  0  0
    4.4860   -0.3862    4.1735 H   0  0  0  0  0  0  0  0  0  0  0  0
    3.5112   -1.8382    4.1532 H   0  0  0  0  0  0  0  0  0  0  0  0
    5.5991   -2.2512    3.3741 H   0  0  0  0  0  0  0  0  0  0  0  0
  1  2  2  0
  1 18  1  0
  1 19  1  0
  8  2  1  6
  2  3  1  0
  3  4  2  0
  3 20  1  0
  4  5  1  0
  4  6  1  0
  5 21  1  0
  5 22  1  0
  5 23  1  0
  6 13  1  0
  6  7  1  0
  6 24  1  6
  7  8  1  0
  7 25  1  0
  7 26  1  0
  8 12  1  0
  8  9  1  0
  9 16  1  0
  9 10  1  0
  9 27  1  1
 10 11  1  0
 10 28  1  0
 10 29  1  0
 11 12  1  0
 11 30  1  0
 11 31  1  0
 12 13  1  0
 12 32  1  6
 13 14  1  0
 14 15  1  0
 14 33  1  0
 14 34  1  0
 15 16  1  0
 15 35  1  0
 15 36  1  0
 16 17  1  0
 16 40  1  1
 17 37  1  0
 17 38  1  0
 17 39  1  0
M  CHG  1  16   1
M  END
>  <i_m_ct_stereo_status>  (251) 
1

>  <s_m_source_file>  (251) 
/var/tmp/pbs.5076255.sched01/tmplj_yfvzq/807e0r74np.sdf

>  <i_m_source_file_index>  (251) 
24

>  <i_lp_mmshare_version>  (251) 
48012

>  <i_f3d_flags>  (251) 
0

>  <s_epik_input>  (251) 
W0NIMl09QzFbQ0hdPUMoW0NIM10pW0NAQEhdKFtDSDJdMilOKFtDQEBIXTNbQ0gyXVtDSDJdW0NAQEhdNFtDQEBdMTIzKVtDSDJdW0NIMl1ONFtDSDNd

>  <s_epik_cmdline>  (251) 
J2VwaWtfcHl0aG9uJywgJy1waHQnLCAnMi4wJywgJy1waCcsICc3LjAnLCAnLXRuJywgJzgnLCAnLW1hJywgJzIwMCcsICctaW1hZScsICc8aW5maWxlLm1hZT4nLCAnLW9tYWUnLCAnPG91dGZpbGUubWFlPic=

>  <r_epik_Ionization_Penalty>  (251) 
0.0122863

>  <r_epik_Ionization_Penalty_Charging>  (251) 
0.0101266

>  <r_epik_Ionization_Penalty_Neutral>  (251) 
0.00215964

>  <r_epik_State_Penalty>  (251) 
0.541506

>  <r_epik_Charging_Adjusted_Penalty>  (251) 
0.551633

>  <i_epik_Tot_Q>  (251) 
1

>  <i_epik_Tot_abs_Q>  (251) 
1

>  <s_lp_Force_Field>  (251) 
OPLS3e

>  <r_lp_Energy>  (251) 
99.9539

>  <b_lp_Chiralities_Consistent>  (251) 
1

>  <s_lp_Variant>  (251) 
74:0-2

>  <s_i_glide_gridfile>  (251) 
pfpi4k_grid

>  <i_i_glide_lignum>  (251) 
24

>  <i_i_glide_rotatable_bonds>  (251) 
0

>  <r_i_docking_score>  (251) 
-3.73658

>  <r_i_glide_ligand_efficiency>  (251) 
-0.219799

>  <r_i_glide_ligand_efficiency_sa>  (251) 
-0.565164

>  <r_i_glide_ligand_efficiency_ln>  (251) 
-0.97479

>  <r_i_glide_gscore>  (251) 
-3.73658

>  <r_i_glide_lipo>  (251) 
-0.520952

>  <r_i_glide_hbond>  (251) 
-0.0229337

>  <r_i_glide_metal>  (251) 
-0

>  <r_i_glide_rewards>  (251) 
-1.83166

>  <r_i_glide_evdw>  (251) 
-16.0244

>  <r_i_glide_ecoul>  (251) 
-3.73208

>  <r_i_glide_erotb>  (251) 
0

>  <r_i_glide_esite>  (251) 
0

>  <r_i_glide_emodel>  (251) 
-24.0104

>  <r_i_glide_energy>  (251) 
-19.7565

>  <r_i_glide_einternal>  (251) 
0

>  <r_i_glide_intrahb_reward>  (251) 
-0

>  <i_i_glide_confnum>  (251) 
1

>  <i_i_glide_posenum>  (251) 
37

>  <r_i_glide_eff_state_penalty>  (251) 
0

>  <ligand_id>  (251) 
74

>  <original_smiles>  (251) 
C=C1C=C(C)C2CC13C1CCC3N2CCN1C

>  <smiles>  (251) 
[H]C([H])=C1C([H])=C(C([H])([H])[H])C2([H])N3C([H])([H])C([H])([H])[N+]([H])(C([H])([H])[H])C4([H])C([H])([H])C([H])([H])C3([H])C14C2([H])[H]

$$$$
74:1:1
     RDKit          3D

 40 43  0  0  1  0  0  0  0  0999 V2000
    1.6675   -4.2395   -1.1166 C   0  0  0  0  0  0  0  0  0  0  0  0
    2.6419   -3.3437   -1.3252 C   0  0  0  0  0  0  0  0  0  0  0  0
    2.7749   -2.6545   -2.6121 C   0  0  0  0  0  0  0  0  0  0  0  0
    3.7304   -1.6957   -2.7466 C   0  0  0  0  0  0  0  0  0  0  0  0
    3.9826   -0.9757   -4.0521 C   0  0  0  0  0  0  0  0  0  0  0  0
    4.5672   -1.2397   -1.5107 C   0  0  1  0  0  0  0  0  0  0  0  0
    3.6726   -1.4156   -0.3072 C   0  0  0  0  0  0  0  0  0  0  0  0
    3.7084   -2.9576   -0.3007 C   0  0  1  0  0  0  0  0  0  0  0  0
    3.8383   -3.5932    1.0913 C   0  0  1  0  0  0  0  0  0  0  0  0
    4.5576   -4.9226    0.8609 C   0  0  0  0  0  0  0  0  0  0  0  0
    5.6350   -4.5803   -0.1603 C   0  0  0  0  0  0  0  0  0  0  0  0
    5.0168   -3.4235   -0.9656 C   0  0  2  0  0  0  0  0  0  0  0  0
    5.6827   -2.1492   -1.1312 N   0  0  0  0  0  0  0  0  0  0  0  0
    6.4152   -1.7693    0.0972 C   0  0  0  0  0  0  0  0  0  0  0  0
    5.9605   -2.0702    1.5887 C   0  0  0  0  0  0  0  0  0  0  0  0
    4.6821   -2.7728    2.0275 N   0  0  1  0  0  0  0  0  0  0  0  0
    3.8890   -1.9857    3.0081 C   0  0  0  0  0  0  0  0  0  0  0  0
    1.5684   -4.7702   -0.1900 H   0  0  0  0  0  0  0  0  0  0  0  0
    0.9481   -4.4412   -1.9003 H   0  0  0  0  0  0  0  0  0  0  0  0
    2.1549   -2.9479   -3.4512 H   0  0  0  0  0  0  0  0  0  0  0  0
    3.7981    0.0922   -3.9409 H   0  0  0  0  0  0  0  0  0  0  0  0
    3.3199   -1.3473   -4.8332 H   0  0  0  0  0  0  0  0  0  0  0  0
    5.0106   -1.1208   -4.3737 H   0  0  0  0  0  0  0  0  0  0  0  0
    4.8747   -0.2038   -1.6244 H   0  0  0  0  0  0  0  0  0  0  0  0
    4.0555   -0.8626    0.5423 H   0  0  0  0  0  0  0  0  0  0  0  0
    2.6787   -1.0085   -0.4499 H   0  0  0  0  0  0  0  0  0  0  0  0
    2.8596   -3.7788    1.5380 H   0  0  0  0  0  0  0  0  0  0  0  0
    4.9662   -5.3897    1.7602 H   0  0  0  0  0  0  0  0  0  0  0  0
    3.8593   -5.6266    0.4159 H   0  0  0  0  0  0  0  0  0  0  0  0
    6.5942   -4.3505    0.2977 H   0  0  0  0  0  0  0  0  0  0  0  0
    5.8013   -5.4491   -0.7864 H   0  0  0  0  0  0  0  0  0  0  0  0
    4.8689   -3.8245   -1.9703 H   0  0  0  0  0  0  0  0  0  0  0  0
    7.3851   -2.2565   -0.0116 H   0  0  0  0  0  0  0  0  0  0  0  0
    6.6400   -0.7061    0.0417 H   0  0  0  0  0  0  0  0  0  0  0  0
    6.7477   -2.6703    2.0322 H   0  0  0  0  0  0  0  0  0  0  0  0
    6.0342   -1.1256    2.1280 H   0  0  0  0  0  0  0  0  0  0  0  0
    3.3335   -1.1708    2.5485 H   0  0  0  0  0  0  0  0  0  0  0  0
    4.5280   -1.5568    3.7790 H   0  0  0  0  0  0  0  0  0  0  0  0
    3.1746   -2.6288    3.5183 H   0  0  0  0  0  0  0  0  0  0  0  0
    5.0698   -3.4919    2.6291 H   0  0  0  0  0  0  0  0  0  0  0  0
  1  2  2  0
  1 18  1  0
  1 19  1  0
  8  2  1  6
  2  3  1  0
  3  4  2  0
  3 20  1  0
  4  5  1  0
  4  6  1  0
  5 21  1  0
  5 22  1  0
  5 23  1  0
  6 13  1  0
  6  7  1  0
  6 24  1  6
  7  8  1  0
  7 25  1  0
  7 26  1  0
  8 12  1  0
  8  9  1  0
  9 16  1  0
  9 10  1  0
  9 27  1  1
 10 11  1  0
 10 28  1  0
 10 29  1  0
 11 12  1  0
 11 30  1  0
 11 31  1  0
 12 13  1  0
 12 32  1  6
 13 14  1  0
 14 15  1  0
 14 33  1  0
 14 34  1  0
 15 16  1  0
 15 35  1  0
 15 36  1  0
 16 17  1  0
 16 40  1  1
 17 37  1  0
 17 38  1  0
 17 39  1  0
M  CHG  1  16   1
M  END
>  <i_m_ct_stereo_status>  (252) 
1

>  <s_m_source_file>  (252) 
/var/tmp/pbs.5076255.sched01/tmplj_yfvzq/807e0r74np.sdf

>  <i_m_source_file_index>  (252) 
24

>  <i_lp_mmshare_version>  (252) 
48012

>  <i_f3d_flags>  (252) 
0

>  <s_epik_input>  (252) 
W0NIMl09QzFbQ0hdPUMoW0NIM10pW0NAQEhdKFtDSDJdMilOKFtDQEBIXTNbQ0gyXVtDSDJdW0NAQEhdNFtDQEBdMTIzKVtDSDJdW0NIMl1ONFtDSDNd

>  <s_epik_cmdline>  (252) 
J2VwaWtfcHl0aG9uJywgJy1waHQnLCAnMi4wJywgJy1waCcsICc3LjAnLCAnLXRuJywgJzgnLCAnLW1hJywgJzIwMCcsICctaW1hZScsICc8aW5maWxlLm1hZT4nLCAnLW9tYWUnLCAnPG91dGZpbGUubWFlPic=

>  <r_epik_Ionization_Penalty>  (252) 
0.0122863

>  <r_epik_Ionization_Penalty_Charging>  (252) 
0.0101266

>  <r_epik_Ionization_Penalty_Neutral>  (252) 
0.00215964

>  <r_epik_State_Penalty>  (252) 
0.541506

>  <r_epik_Charging_Adjusted_Penalty>  (252) 
0.551633

>  <i_epik_Tot_Q>  (252) 
1

>  <i_epik_Tot_abs_Q>  (252) 
1

>  <s_lp_Force_Field>  (252) 
OPLS3e

>  <r_lp_Energy>  (252) 
99.9539

>  <b_lp_Chiralities_Consistent>  (252) 
1

>  <s_lp_Variant>  (252) 
74:0-2

>  <s_i_glide_gridfile>  (252) 
pfpi4k_grid

>  <i_i_glide_lignum>  (252) 
24

>  <i_i_glide_rotatable_bonds>  (252) 
0

>  <r_i_docking_score>  (252) 
-3.39728

>  <r_i_glide_ligand_efficiency>  (252) 
-0.19984

>  <r_i_glide_ligand_efficiency_sa>  (252) 
-0.513845

>  <r_i_glide_ligand_efficiency_ln>  (252) 
-0.886275

>  <r_i_glide_gscore>  (252) 
-3.39728

>  <r_i_glide_lipo>  (252) 
-0.480955

>  <r_i_glide_hbond>  (252) 
0

>  <r_i_glide_metal>  (252) 
-0

>  <r_i_glide_rewards>  (252) 
-1.83166

>  <r_i_glide_evdw>  (252) 
-13.2927

>  <r_i_glide_ecoul>  (252) 
-2.8002

>  <r_i_glide_erotb>  (252) 
0

>  <r_i_glide_esite>  (252) 
0

>  <r_i_glide_emodel>  (252) 
-19.9063

>  <r_i_glide_energy>  (252) 
-16.0929

>  <r_i_glide_einternal>  (252) 
0

>  <r_i_glide_intrahb_reward>  (252) 
-0

>  <i_i_glide_confnum>  (252) 
2

>  <i_i_glide_posenum>  (252) 
3

>  <r_i_glide_eff_state_penalty>  (252) 
0

>  <ligand_id>  (252) 
74

>  <original_smiles>  (252) 
C=C1C=C(C)C2CC13C1CCC3N2CCN1C

>  <smiles>  (252) 
[H]C([H])=C1C([H])=C(C([H])([H])[H])C2([H])N3C([H])([H])C([H])([H])[N+]([H])(C([H])([H])[H])C4([H])C([H])([H])C([H])([H])C3([H])C14C2([H])[H]

$$$$
74:1:2
     RDKit          3D

 40 43  0  0  1  0  0  0  0  0999 V2000
    4.9662   -4.1672   -3.8061 C   0  0  0  0  0  0  0  0  0  0  0  0
    4.5067   -3.0700   -3.2490 C   0  0  0  0  0  0  0  0  0  0  0  0
    4.2100   -1.8843   -4.0608 C   0  0  0  0  0  0  0  0  0  0  0  0
    3.6286   -0.8205   -3.4746 C   0  0  0  0  0  0  0  0  0  0  0  0
    3.3376    0.4464   -4.2481 C   0  0  0  0  0  0  0  0  0  0  0  0
    3.1487   -0.9251   -2.0123 C   0  0  1  0  0  0  0  0  0  0  0  0
    2.7949   -2.3731   -1.7707 C   0  0  0  0  0  0  0  0  0  0  0  0
    4.2306   -2.8918   -1.7589 C   0  0  1  0  0  0  0  0  0  0  0  0
    4.5401   -3.9371   -0.6710 C   0  0  1  0  0  0  0  0  0  0  0  0
    6.0338   -3.7764   -0.3755 C   0  0  0  0  0  0  0  0  0  0  0  0
    6.2713   -2.2728   -0.3855 C   0  0  0  0  0  0  0  0  0  0  0  0
    5.1942   -1.7654   -1.3618 C   0  0  2  0  0  0  0  0  0  0  0  0
    4.2236   -0.7650   -0.9869 N   0  0  0  0  0  0  0  0  0  0  0  0
    3.8033   -0.9048    0.4236 C   0  0  0  0  0  0  0  0  0  0  0  0
    3.6186   -2.2905    1.1921 C   0  0  0  0  0  0  0  0  0  0  0  0
    3.8108   -3.6761    0.6138 N   0  0  1  0  0  0  0  0  0  0  0  0
    2.6443   -4.5594    0.8020 C   0  0  0  0  0  0  0  0  0  0  0  0
    5.1537   -5.0168   -3.1797 H   0  0  0  0  0  0  0  0  0  0  0  0
    5.1571   -4.2528   -4.8714 H   0  0  0  0  0  0  0  0  0  0  0  0
    4.4955   -1.8097   -5.0941 H   0  0  0  0  0  0  0  0  0  0  0  0
    2.2631    0.6219   -4.2859 H   0  0  0  0  0  0  0  0  0  0  0  0
    3.6810    0.3772   -5.2775 H   0  0  0  0  0  0  0  0  0  0  0  0
    3.8304    1.2962   -3.7777 H   0  0  0  0  0  0  0  0  0  0  0  0
    2.2911   -0.2618   -1.9453 H   0  0  0  0  0  0  0  0  0  0  0  0
    2.2291   -2.4981   -0.8590 H   0  0  0  0  0  0  0  0  0  0  0  0
    2.1653   -2.7955   -2.5562 H   0  0  0  0  0  0  0  0  0  0  0  0
    4.3429   -4.9478   -1.0245 H   0  0  0  0  0  0  0  0  0  0  0  0
    6.3833   -4.2640    0.5372 H   0  0  0  0  0  0  0  0  0  0  0  0
    6.5721   -4.2114   -1.2015 H   0  0  0  0  0  0  0  0  0  0  0  0
    6.2198   -1.8420    0.6106 H   0  0  0  0  0  0  0  0  0  0  0  0
    7.2749   -2.0508   -0.7568 H   0  0  0  0  0  0  0  0  0  0  0  0
    5.7474   -1.3466   -2.2013 H   0  0  0  0  0  0  0  0  0  0  0  0
    4.5545   -0.3565    0.9896 H   0  0  0  0  0  0  0  0  0  0  0  0
    2.8986   -0.3190    0.5561 H   0  0  0  0  0  0  0  0  0  0  0  0
    4.2809   -2.2438    2.0569 H   0  0  0  0  0  0  0  0  0  0  0  0
    2.6302   -2.2388    1.6533 H   0  0  0  0  0  0  0  0  0  0  0  0
    1.8388   -4.3475    0.0986 H   0  0  0  0  0  0  0  0  0  0  0  0
    2.2315   -4.4789    1.8058 H   0  0  0  0  0  0  0  0  0  0  0  0
    2.9135   -5.6054    0.6617 H   0  0  0  0  0  0  0  0  0  0  0  0
    4.4531   -4.0717    1.2934 H   0  0  0  0  0  0  0  0  0  0  0  0
  1  2  2  0
  1 18  1  0
  1 19  1  0
  8  2  1  6
  2  3  1  0
  3  4  2  0
  3 20  1  0
  4  5  1  0
  4  6  1  0
  5 21  1  0
  5 22  1  0
  5 23  1  0
  6 13  1  0
  6  7  1  0
  6 24  1  1
  7  8  1  0
  7 25  1  0
  7 26  1  0
  8 12  1  0
  8  9  1  0
  9 16  1  0
  9 10  1  0
  9 27  1  6
 10 11  1  0
 10 28  1  0
 10 29  1  0
 11 12  1  0
 11 30  1  0
 11 31  1  0
 12 13  1  0
 12 32  1  6
 13 14  1  0
 14 15  1  0
 14 33  1  0
 14 34  1  0
 15 16  1  0
 15 35  1  0
 15 36  1  0
 16 17  1  0
 16 40  1  1
 17 37  1  0
 17 38  1  0
 17 39  1  0
M  CHG  1  16   1
M  END
>  <i_m_ct_stereo_status>  (253) 
1

>  <s_m_source_file>  (253) 
/var/tmp/pbs.5076255.sched01/tmplj_yfvzq/807e0r74np.sdf

>  <i_m_source_file_index>  (253) 
24

>  <i_lp_mmshare_version>  (253) 
48012

>  <i_f3d_flags>  (253) 
0

>  <s_epik_input>  (253) 
W0NIMl09QzFbQ0hdPUMoW0NIM10pW0NAQEhdKFtDSDJdMilOKFtDQEBIXTNbQ0gyXVtDSDJdW0NAQEhdNFtDQEBdMTIzKVtDSDJdW0NIMl1ONFtDSDNd

>  <s_epik_cmdline>  (253) 
J2VwaWtfcHl0aG9uJywgJy1waHQnLCAnMi4wJywgJy1waCcsICc3LjAnLCAnLXRuJywgJzgnLCAnLW1hJywgJzIwMCcsICctaW1hZScsICc8aW5maWxlLm1hZT4nLCAnLW9tYWUnLCAnPG91dGZpbGUubWFlPic=

>  <r_epik_Ionization_Penalty>  (253) 
0.0122863

>  <r_epik_Ionization_Penalty_Charging>  (253) 
0.0101266

>  <r_epik_Ionization_Penalty_Neutral>  (253) 
0.00215964

>  <r_epik_State_Penalty>  (253) 
0.541506

>  <r_epik_Charging_Adjusted_Penalty>  (253) 
0.551633

>  <i_epik_Tot_Q>  (253) 
1

>  <i_epik_Tot_abs_Q>  (253) 
1

>  <s_lp_Force_Field>  (253) 
OPLS3e

>  <r_lp_Energy>  (253) 
99.9539

>  <b_lp_Chiralities_Consistent>  (253) 
1

>  <s_lp_Variant>  (253) 
74:0-2

>  <s_i_glide_gridfile>  (253) 
pfpi4k_grid

>  <i_i_glide_lignum>  (253) 
24

>  <i_i_glide_rotatable_bonds>  (253) 
0

>  <r_i_docking_score>  (253) 
-2.9096

>  <r_i_glide_ligand_efficiency>  (253) 
-0.171153

>  <r_i_glide_ligand_efficiency_sa>  (253) 
-0.440082

>  <r_i_glide_ligand_efficiency_ln>  (253) 
-0.75905

>  <r_i_glide_gscore>  (253) 
-2.9096

>  <r_i_glide_lipo>  (253) 
-0.407834

>  <r_i_glide_hbond>  (253) 
0

>  <r_i_glide_metal>  (253) 
-0

>  <r_i_glide_rewards>  (253) 
-1.83166

>  <r_i_glide_evdw>  (253) 
-12.3724

>  <r_i_glide_ecoul>  (253) 
-0.343222

>  <r_i_glide_erotb>  (253) 
0

>  <r_i_glide_esite>  (253) 
0

>  <r_i_glide_emodel>  (253) 
-15.8026

>  <r_i_glide_energy>  (253) 
-12.7156

>  <r_i_glide_einternal>  (253) 
0

>  <r_i_glide_intrahb_reward>  (253) 
-0

>  <i_i_glide_confnum>  (253) 
2

>  <i_i_glide_posenum>  (253) 
25

>  <r_i_glide_eff_state_penalty>  (253) 
0

>  <ligand_id>  (253) 
74

>  <original_smiles>  (253) 
C=C1C=C(C)C2CC13C1CCC3N2CCN1C

>  <smiles>  (253) 
[H]C([H])=C1C([H])=C(C([H])([H])[H])C2([H])N3C([H])([H])C([H])([H])[N+]([H])(C([H])([H])[H])C4([H])C([H])([H])C([H])([H])C3([H])C14C2([H])[H]

$$$$
75:0:0
     RDKit          3D

 67 73  0  0  1  0  0  0  0  0999 V2000
    5.7595   -0.5146    2.2754 C   0  0  0  0  0  0  0  0  0  0  0  0
    4.7761   -1.5405    2.1065 O   0  0  0  0  0  0  0  0  0  0  0  0
    5.1041   -2.6134    1.2596 C   0  0  2  0  0  0  0  0  0  0  0  0
    5.0410   -2.0839   -0.2276 C   0  0  0  0  0  0  0  0  0  0  0  0
    3.6424   -2.0543   -0.7902 C   0  0  1  0  0  0  0  0  0  0  0  0
    3.2275   -2.8442   -2.0098 C   0  0  1  0  0  0  0  0  0  0  0  0
    4.2020   -3.5848   -2.9017 C   0  0  0  0  0  0  0  0  0  0  0  0
    2.8294   -3.3060   -0.6261 C   0  0  1  0  0  0  0  0  0  0  0  0
    3.4912   -4.3721    0.2250 C   0  0  0  0  0  0  0  0  0  0  0  0
    4.0420   -3.7917    1.5579 C   0  0  2  0  0  0  0  0  0  0  0  0
    2.9056   -3.1757    2.1302 O   0  0  0  0  0  0  0  0  0  0  0  0
    4.5766   -4.8792    2.6048 C   0  0  1  0  0  0  0  0  0  0  0  0
    3.5758   -5.7167    3.5503 C   0  0  1  0  0  0  0  0  0  0  0  0
    2.3491   -5.0802    4.2783 C   0  0  1  0  0  0  0  0  0  0  0  0
    2.6232   -3.7881    4.7768 O   0  0  0  0  0  0  0  0  0  0  0  0
    1.0115   -5.1387    3.5028 C   0  0  0  0  0  0  0  0  0  0  0  0
    0.7597   -6.5300    2.9671 C   0  0  0  0  0  0  0  0  0  0  0  0
   -0.3839   -7.2256    3.0078 C   0  0  0  0  0  0  0  0  0  0  0  0
   -0.2374   -8.5721    2.3588 C   0  0  0  0  0  0  0  0  0  0  0  0
    1.2951   -8.7205    2.2077 C   0  0  0  0  0  0  0  0  0  0  0  0
    1.8808   -7.2872    2.3156 C   0  0  2  0  0  0  0  0  0  0  0  0
    3.1771   -7.1766    3.1509 C   0  0  1  0  0  0  0  0  0  0  0  0
    4.3503   -8.0114    2.6292 C   0  0  0  0  0  0  0  0  0  0  0  0
    5.2033   -7.2631    1.6157 C   0  0  1  0  0  0  0  0  0  0  0  0
    4.4717   -7.2182    0.4102 O   0  0  0  0  0  0  0  0  0  0  0  0
    5.7278   -5.8676    2.0908 C   0  0  2  0  0  0  0  0  0  0  0  0
    6.6855   -6.1708    3.2844 C   0  0  0  0  0  0  0  0  0  0  0  0
    6.5865   -5.3232    0.9400 C   0  0  2  0  0  0  0  0  0  0  0  0
    7.8841   -4.8294    1.3579 O   0  0  0  0  0  0  0  0  0  0  0  0
    7.0455   -3.8897    0.7081 C   0  0  2  0  0  0  0  0  0  0  0  0
    6.4040   -3.0126    1.6001 O   0  0  0  0  0  0  0  0  0  0  0  0
    5.3293    0.3068    2.8489 H   0  0  0  0  0  0  0  0  0  0  0  0
    6.1242   -0.0843    1.3410 H   0  0  0  0  0  0  0  0  0  0  0  0
    6.6205   -0.8752    2.8326 H   0  0  0  0  0  0  0  0  0  0  0  0
    5.5006   -1.1079   -0.3562 H   0  0  0  0  0  0  0  0  0  0  0  0
    5.6109   -2.7295   -0.8875 H   0  0  0  0  0  0  0  0  0  0  0  0
    3.0962   -1.1395   -0.5755 H   0  0  0  0  0  0  0  0  0  0  0  0
    2.4305   -2.3749   -2.5720 H   0  0  0  0  0  0  0  0  0  0  0  0
    4.8797   -4.2170   -2.3325 H   0  0  0  0  0  0  0  0  0  0  0  0
    4.7828   -2.8761   -3.4908 H   0  0  0  0  0  0  0  0  0  0  0  0
    3.6470   -4.2310   -3.5881 H   0  0  0  0  0  0  0  0  0  0  0  0
    1.7882   -3.1502   -0.3915 H   0  0  0  0  0  0  0  0  0  0  0  0
    2.7542   -5.1511    0.4114 H   0  0  0  0  0  0  0  0  0  0  0  0
    4.2966   -4.8282   -0.3404 H   0  0  0  0  0  0  0  0  0  0  0  0
    2.6785   -2.4534    1.5695 H   0  0  0  0  0  0  0  0  0  0  0  0
    5.0710   -4.2301    3.3304 H   0  0  0  0  0  0  0  0  0  0  0  0
    4.2207   -5.8851    4.4158 H   0  0  0  0  0  0  0  0  0  0  0  0
    2.1757   -5.6855    5.1684 H   0  0  0  0  0  0  0  0  0  0  0  0
    2.8083   -3.2426    4.0238 H   0  0  0  0  0  0  0  0  0  0  0  0
    0.1848   -4.8362    4.1442 H   0  0  0  0  0  0  0  0  0  0  0  0
    1.0001   -4.4699    2.6499 H   0  0  0  0  0  0  0  0  0  0  0  0
   -1.3214   -6.8929    3.4178 H   0  0  0  0  0  0  0  0  0  0  0  0
   -0.6793   -9.3678    2.9629 H   0  0  0  0  0  0  0  0  0  0  0  0
   -0.7452   -8.5394    1.3941 H   0  0  0  0  0  0  0  0  0  0  0  0
    1.6515   -9.3336    3.0377 H   0  0  0  0  0  0  0  0  0  0  0  0
    1.5936   -9.2291    1.2899 H   0  0  0  0  0  0  0  0  0  0  0  0
    2.0049   -6.8805    1.3190 H   0  0  0  0  0  0  0  0  0  0  0  0
    2.9118   -7.6628    4.0905 H   0  0  0  0  0  0  0  0  0  0  0  0
    4.9700   -8.3075    3.4739 H   0  0  0  0  0  0  0  0  0  0  0  0
    4.0029   -8.9543    2.2087 H   0  0  0  0  0  0  0  0  0  0  0  0
    6.0684   -7.8968    1.3986 H   0  0  0  0  0  0  0  0  0  0  0  0
    4.2468   -8.0994    0.1692 H   0  0  0  0  0  0  0  0  0  0  0  0
    7.4948   -6.8432    2.9901 H   0  0  0  0  0  0  0  0  0  0  0  0
    6.1953   -6.6302    4.1339 H   0  0  0  0  0  0  0  0  0  0  0  0
    7.1391   -5.2610    3.6648 H   0  0  0  0  0  0  0  0  0  0  0  0
    6.6029   -5.8982    0.0256 H   0  0  0  0  0  0  0  0  0  0  0  0
    7.4625   -3.5083   -0.2256 H   0  0  0  0  0  0  0  0  0  0  0  0
  1  2  1  0
  1 32  1  0
  1 33  1  0
  1 34  1  0
  3  2  1  1
  3 10  1  0
  3 31  1  0
  3  4  1  0
  4  5  1  0
  4 35  1  0
  4 36  1  0
  5  8  1  0
  5  6  1  0
  5 37  1  6
  6  7  1  0
  6  8  1  0
  6 38  1  6
  7 39  1  0
  7 40  1  0
  7 41  1  0
  8  9  1  0
  8 42  1  6
  9 10  1  0
  9 43  1  0
  9 44  1  0
 10 11  1  1
 10 12  1  0
 11 45  1  0
 12 26  1  0
 12 13  1  0
 12 46  1  1
 13 22  1  0
 13 14  1  0
 13 47  1  1
 14 15  1  0
 14 16  1  0
 14 48  1  1
 15 49  1  0
 16 17  1  0
 16 50  1  0
 16 51  1  0
 17 21  1  0
 17 18  2  0
 18 19  1  0
 18 52  1  0
 19 20  1  0
 19 53  1  0
 19 54  1  0
 20 21  1  0
 20 55  1  0
 20 56  1  0
 21 22  1  0
 21 57  1  6
 22 23  1  0
 22 58  1  1
 23 24  1  0
 23 59  1  0
 23 60  1  0
 24 25  1  0
 24 26  1  0
 24 61  1  6
 25 62  1  0
 26 27  1  1
 26 28  1  0
 27 63  1  0
 27 64  1  0
 27 65  1  0
 28 30  1  0
 28 29  1  0
 28 66  1  6
 29 30  1  0
 30 31  1  0
 30 67  1  6
M  END
>  <i_m_ct_stereo_status>  (254) 
1

>  <s_m_source_file>  (254) 
/var/tmp/pbs.5076255.sched01/tmplj_yfvzq/807e0r74np.sdf

>  <i_m_source_file_index>  (254) 
25

>  <i_lp_mmshare_version>  (254) 
48012

>  <i_f3d_flags>  (254) 
0

>  <s_epik_input>  (254) 
W0NIM11bQ0BASF0xW0NASF0oW0NIMl0yKVtDQEBIXTFbQ0gyXVtDQF0oW09IXSkoW0NAXTIzT1tDSDNdKVtDQEhdNFtDQEBIXTVbQ0BASF0oW0NAQEhdNkMoW0NIMl1bQ0BASF01W09IXSk9W0NIXVtDSDJdW0NIMl02KVtDSDJdW0NAQEhdKFtPSF0pW0NAQF00KFtDSDNdKVtDQEhdN1tDQEhdKE83KU8z

>  <s_epik_cmdline>  (254) 
J2VwaWtfcHl0aG9uJywgJy1waHQnLCAnMi4wJywgJy1waCcsICc3LjAnLCAnLXRuJywgJzgnLCAnLW1hJywgJzIwMCcsICctaW1hZScsICc8aW5maWxlLm1hZT4nLCAnLW9tYWUnLCAnPG91dGZpbGUubWFlPic=

>  <r_lp_tautomer_probability>  (254) 
1

>  <r_epik_Ionization_Penalty>  (254) 
6.76371e-07

>  <r_epik_Ionization_Penalty_Charging>  (254) 
0

>  <r_epik_Ionization_Penalty_Neutral>  (254) 
6.76371e-07

>  <r_epik_State_Penalty>  (254) 
-0

>  <r_epik_Charging_Adjusted_Penalty>  (254) 
0

>  <i_epik_Tot_Q>  (254) 
0

>  <i_epik_Tot_abs_Q>  (254) 
0

>  <s_epik_Chemistry_Notes>  (254) 
This compound contains an acetal/aminal-like group ( X-CH(R)-Y where X, Y are N, S, or O) that may be acid/base labile, releasing an aldehyde.

>  <s_lp_Force_Field>  (254) 
OPLS3e

>  <r_lp_Energy>  (254) 
84.0212

>  <b_lp_Chiralities_Consistent>  (254) 
1

>  <s_lp_Variant>  (254) 
75:0-1

>  <s_i_glide_gridfile>  (254) 
pfpi4k_grid

>  <i_i_glide_lignum>  (254) 
25

>  <i_i_glide_rotatable_bonds>  (254) 
4

>  <r_i_docking_score>  (254) 
-2.58382

>  <r_i_glide_ligand_efficiency>  (254) 
-0.083349

>  <r_i_glide_ligand_efficiency_sa>  (254) 
-0.261831

>  <r_i_glide_ligand_efficiency_ln>  (254) 
-0.582731

>  <r_i_glide_gscore>  (254) 
-2.58382

>  <r_i_glide_lipo>  (254) 
-0.27366

>  <r_i_glide_hbond>  (254) 
0

>  <r_i_glide_metal>  (254) 
-0

>  <r_i_glide_rewards>  (254) 
-1.17072

>  <r_i_glide_evdw>  (254) 
-23.5957

>  <r_i_glide_ecoul>  (254) 
0.26899

>  <r_i_glide_erotb>  (254) 
0

>  <r_i_glide_esite>  (254) 
0

>  <r_i_glide_emodel>  (254) 
-31.185

>  <r_i_glide_energy>  (254) 
-23.3268

>  <r_i_glide_einternal>  (254) 
1.88089

>  <r_i_glide_intrahb_reward>  (254) 
-0.5

>  <i_i_glide_confnum>  (254) 
2

>  <i_i_glide_posenum>  (254) 
24

>  <r_i_glide_eff_state_penalty>  (254) 
0

>  <ligand_id>  (254) 
75

>  <original_smiles>  (254) 
COC12CC3C(C)C3CC1(O)C1C3C(O)CC4=CCCC4C3CC(O)C1(C)C1OC1O2

>  <smiles>  (254) 
[H]OC1([H])C([H])([H])C2=C([H])C([H])([H])C([H])([H])C2([H])C2([H])C([H])([H])C([H])(O[H])C3(C([H])([H])[H])C4([H])OC4([H])OC4(OC([H])([H])[H])C([H])([H])C5([H])C([H])(C([H])([H])[H])C5([H])C([H])([H])C4(O[H])C3([H])C12[H]

$$$$
75:0:1
     RDKit          3D

 67 73  0  0  1  0  0  0  0  0999 V2000
    8.7307   -2.1684    0.1672 C   0  0  0  0  0  0  0  0  0  0  0  0
    7.3978   -1.7655    0.4932 O   0  0  0  0  0  0  0  0  0  0  0  0
    6.3797   -2.7292    0.3491 C   0  0  2  0  0  0  0  0  0  0  0  0
    6.0880   -2.8555   -1.2016 C   0  0  0  0  0  0  0  0  0  0  0  0
    5.1656   -1.7739   -1.7198 C   0  0  1  0  0  0  0  0  0  0  0  0
    3.8283   -2.0665   -2.3614 C   0  0  1  0  0  0  0  0  0  0  0  0
    3.3529   -3.4506   -2.7166 C   0  0  0  0  0  0  0  0  0  0  0  0
    3.9009   -1.5526   -0.9422 C   0  0  1  0  0  0  0  0  0  0  0  0
    3.8049   -2.3437    0.3423 C   0  0  0  0  0  0  0  0  0  0  0  0
    5.1001   -2.2167    1.1878 C   0  0  2  0  0  0  0  0  0  0  0  0
    5.2525   -0.8243    1.3603 O   0  0  0  0  0  0  0  0  0  0  0  0
    4.9963   -2.8470    2.6590 C   0  0  1  0  0  0  0  0  0  0  0  0
    4.2934   -2.0626    3.8776 C   0  0  1  0  0  0  0  0  0  0  0  0
    4.4791   -0.5315    4.1400 C   0  0  1  0  0  0  0  0  0  0  0  0
    5.8060   -0.0956    3.9300 O   0  0  0  0  0  0  0  0  0  0  0  0
    3.4250    0.3994    3.4844 C   0  0  0  0  0  0  0  0  0  0  0  0
    2.0257   -0.1117    3.7434 C   0  0  0  0  0  0  0  0  0  0  0  0
    0.9548    0.5927    4.1027 C   0  0  0  0  0  0  0  0  0  0  0  0
   -0.2677   -0.2747    4.2498 C   0  0  0  0  0  0  0  0  0  0  0  0
    0.3224   -1.7031    4.2379 C   0  0  0  0  0  0  0  0  0  0  0  0
    1.7341   -1.5824    3.6009 C   0  0  2  0  0  0  0  0  0  0  0  0
    2.8287   -2.4364    4.2809 C   0  0  1  0  0  0  0  0  0  0  0  0
    2.5521   -3.9436    4.2837 C   0  0  0  0  0  0  0  0  0  0  0  0
    3.0844   -4.6520    3.0497 C   0  0  1  0  0  0  0  0  0  0  0  0
    2.2166   -4.3559    1.9714 O   0  0  0  0  0  0  0  0  0  0  0  0
    4.5972   -4.3927    2.7545 C   0  0  2  0  0  0  0  0  0  0  0  0
    5.3847   -5.0291    3.9462 C   0  0  0  0  0  0  0  0  0  0  0  0
    4.9324   -5.2327    1.5068 C   0  0  2  0  0  0  0  0  0  0  0  0
    6.1343   -6.0215    1.6496 O   0  0  0  0  0  0  0  0  0  0  0  0
    6.1292   -5.0908    0.5969 C   0  0  2  0  0  0  0  0  0  0  0  0
    6.8683   -3.9336    0.8823 O   0  0  0  0  0  0  0  0  0  0  0  0
    9.3840   -1.2953    0.2317 H   0  0  0  0  0  0  0  0  0  0  0  0
    8.8562   -2.5811   -0.8362 H   0  0  0  0  0  0  0  0  0  0  0  0
    9.1142   -2.8983    0.8840 H   0  0  0  0  0  0  0  0  0  0  0  0
    6.9939   -2.8833   -1.8009 H   0  0  0  0  0  0  0  0  0  0  0  0
    5.5994   -3.7963   -1.4195 H   0  0  0  0  0  0  0  0  0  0  0  0
    5.6671   -0.8574   -2.0056 H   0  0  0  0  0  0  0  0  0  0  0  0
    3.5329   -1.3288   -3.0992 H   0  0  0  0  0  0  0  0  0  0  0  0
    3.4935   -4.1352   -1.8838 H   0  0  0  0  0  0  0  0  0  0  0  0
    3.9081   -3.8310   -3.5758 H   0  0  0  0  0  0  0  0  0  0  0  0
    2.2905   -3.4286   -2.9640 H   0  0  0  0  0  0  0  0  0  0  0  0
    3.6032   -0.5300   -0.8177 H   0  0  0  0  0  0  0  0  0  0  0  0
    2.9388   -1.9644    0.8792 H   0  0  0  0  0  0  0  0  0  0  0  0
    3.6145   -3.3819    0.1071 H   0  0  0  0  0  0  0  0  0  0  0  0
    4.4390   -0.4756    1.6878 H   0  0  0  0  0  0  0  0  0  0  0  0
    6.0469   -2.8064    2.9507 H   0  0  0  0  0  0  0  0  0  0  0  0
    4.8653   -2.4586    4.7195 H   0  0  0  0  0  0  0  0  0  0  0  0
    4.3282   -0.3946    5.2118 H   0  0  0  0  0  0  0  0  0  0  0  0
    6.0434   -0.2791    3.0284 H   0  0  0  0  0  0  0  0  0  0  0  0
    3.5193    1.4147    3.8741 H   0  0  0  0  0  0  0  0  0  0  0  0
    3.5231    0.4920    2.4087 H   0  0  0  0  0  0  0  0  0  0  0  0
    0.9216    1.6621    4.2436 H   0  0  0  0  0  0  0  0  0  0  0  0
   -0.8172   -0.0539    5.1666 H   0  0  0  0  0  0  0  0  0  0  0  0
   -0.9235   -0.1033    3.3934 H   0  0  0  0  0  0  0  0  0  0  0  0
    0.4093   -2.0409    5.2721 H   0  0  0  0  0  0  0  0  0  0  0  0
   -0.3103   -2.4249    3.7172 H   0  0  0  0  0  0  0  0  0  0  0  0
    1.6555   -1.7829    2.5392 H   0  0  0  0  0  0  0  0  0  0  0  0
    2.7456   -2.1537    5.3303 H   0  0  0  0  0  0  0  0  0  0  0  0
    3.0122   -4.3767    5.1716 H   0  0  0  0  0  0  0  0  0  0  0  0
    1.4900   -4.1497    4.4031 H   0  0  0  0  0  0  0  0  0  0  0  0
    2.9519   -5.7242    3.2146 H   0  0  0  0  0  0  0  0  0  0  0  0
    2.3124   -3.4398    1.7626 H   0  0  0  0  0  0  0  0  0  0  0  0
    5.1443   -6.0872    4.0666 H   0  0  0  0  0  0  0  0  0  0  0  0
    5.1815   -4.5592    4.9009 H   0  0  0  0  0  0  0  0  0  0  0  0
    6.4631   -4.9667    3.8052 H   0  0  0  0  0  0  0  0  0  0  0  0
    4.1076   -5.7337    1.0076 H   0  0  0  0  0  0  0  0  0  0  0  0
    6.1929   -5.5439   -0.3994 H   0  0  0  0  0  0  0  0  0  0  0  0
  1  2  1  0
  1 32  1  0
  1 33  1  0
  1 34  1  0
  3  2  1  6
  3 10  1  0
  3 31  1  0
  3  4  1  0
  4  5  1  0
  4 35  1  0
  4 36  1  0
  5  8  1  0
  5  6  1  0
  5 37  1  6
  6  7  1  0
  6  8  1  0
  6 38  1  6
  7 39  1  0
  7 40  1  0
  7 41  1  0
  8  9  1  0
  8 42  1  1
  9 10  1  0
  9 43  1  0
  9 44  1  0
 10 11  1  1
 10 12  1  0
 11 45  1  0
 12 26  1  0
 12 13  1  0
 12 46  1  1
 13 22  1  0
 13 14  1  0
 13 47  1  1
 14 15  1  0
 14 16  1  0
 14 48  1  1
 15 49  1  0
 16 17  1  0
 16 50  1  0
 16 51  1  0
 17 21  1  0
 17 18  2  0
 18 19  1  0
 18 52  1  0
 19 20  1  0
 19 53  1  0
 19 54  1  0
 20 21  1  0
 20 55  1  0
 20 56  1  0
 21 22  1  0
 21 57  1  6
 22 23  1  0
 22 58  1  1
 23 24  1  0
 23 59  1  0
 23 60  1  0
 24 25  1  0
 24 26  1  0
 24 61  1  1
 25 62  1  0
 26 27  1  1
 26 28  1  0
 27 63  1  0
 27 64  1  0
 27 65  1  0
 28 30  1  0
 28 29  1  0
 28 66  1  6
 29 30  1  0
 30 31  1  0
 30 67  1  6
M  END
>  <i_m_ct_stereo_status>  (255) 
1

>  <s_m_source_file>  (255) 
/var/tmp/pbs.5076255.sched01/tmplj_yfvzq/807e0r74np.sdf

>  <i_m_source_file_index>  (255) 
25

>  <i_lp_mmshare_version>  (255) 
48012

>  <i_f3d_flags>  (255) 
0

>  <s_epik_input>  (255) 
W0NIM11bQ0BASF0xW0NASF0oW0NIMl0yKVtDQEBIXTFbQ0gyXVtDQF0oW09IXSkoW0NAXTIzT1tDSDNdKVtDQEhdNFtDQEBIXTVbQ0BASF0oW0NAQEhdNkMoW0NIMl1bQ0BASF01W09IXSk9W0NIXVtDSDJdW0NIMl02KVtDSDJdW0NAQEhdKFtPSF0pW0NAQF00KFtDSDNdKVtDQEhdN1tDQEhdKE83KU8z

>  <s_epik_cmdline>  (255) 
J2VwaWtfcHl0aG9uJywgJy1waHQnLCAnMi4wJywgJy1waCcsICc3LjAnLCAnLXRuJywgJzgnLCAnLW1hJywgJzIwMCcsICctaW1hZScsICc8aW5maWxlLm1hZT4nLCAnLW9tYWUnLCAnPG91dGZpbGUubWFlPic=

>  <r_lp_tautomer_probability>  (255) 
1

>  <r_epik_Ionization_Penalty>  (255) 
6.76371e-07

>  <r_epik_Ionization_Penalty_Charging>  (255) 
0

>  <r_epik_Ionization_Penalty_Neutral>  (255) 
6.76371e-07

>  <r_epik_State_Penalty>  (255) 
-0

>  <r_epik_Charging_Adjusted_Penalty>  (255) 
0

>  <i_epik_Tot_Q>  (255) 
0

>  <i_epik_Tot_abs_Q>  (255) 
0

>  <s_epik_Chemistry_Notes>  (255) 
This compound contains an acetal/aminal-like group ( X-CH(R)-Y where X, Y are N, S, or O) that may be acid/base labile, releasing an aldehyde.

>  <s_lp_Force_Field>  (255) 
OPLS3e

>  <r_lp_Energy>  (255) 
84.0212

>  <b_lp_Chiralities_Consistent>  (255) 
1

>  <s_lp_Variant>  (255) 
75:0-1

>  <s_i_glide_gridfile>  (255) 
pfpi4k_grid

>  <i_i_glide_lignum>  (255) 
25

>  <i_i_glide_rotatable_bonds>  (255) 
4

>  <r_i_docking_score>  (255) 
-2.38756

>  <r_i_glide_ligand_efficiency>  (255) 
-0.0770182

>  <r_i_glide_ligand_efficiency_sa>  (255) 
-0.241943

>  <r_i_glide_ligand_efficiency_ln>  (255) 
-0.538469

>  <r_i_glide_gscore>  (255) 
-2.38756

>  <r_i_glide_lipo>  (255) 
-0.20382

>  <r_i_glide_hbond>  (255) 
0

>  <r_i_glide_metal>  (255) 
-0

>  <r_i_glide_rewards>  (255) 
-0.730073

>  <r_i_glide_evdw>  (255) 
-22.9041

>  <r_i_glide_ecoul>  (255) 
-2.05643

>  <r_i_glide_erotb>  (255) 
0

>  <r_i_glide_esite>  (255) 
0

>  <r_i_glide_emodel>  (255) 
-27.6831

>  <r_i_glide_energy>  (255) 
-24.9605

>  <r_i_glide_einternal>  (255) 
1.67639

>  <r_i_glide_intrahb_reward>  (255) 
-0

>  <i_i_glide_confnum>  (255) 
1

>  <i_i_glide_posenum>  (255) 
17

>  <r_i_glide_eff_state_penalty>  (255) 
0

>  <ligand_id>  (255) 
75

>  <original_smiles>  (255) 
COC12CC3C(C)C3CC1(O)C1C3C(O)CC4=CCCC4C3CC(O)C1(C)C1OC1O2

>  <smiles>  (255) 
[H]OC1([H])C([H])([H])C2=C([H])C([H])([H])C([H])([H])C2([H])C2([H])C([H])([H])C([H])(O[H])C3(C([H])([H])[H])C4([H])OC4([H])OC4(OC([H])([H])[H])C([H])([H])C5([H])C([H])(C([H])([H])[H])C5([H])C([H])([H])C4(O[H])C3([H])C12[H]

$$$$
75:0:2
     RDKit          3D

 67 73  0  0  1  0  0  0  0  0999 V2000
    8.5770   -1.9750    0.1949 C   0  0  0  0  0  0  0  0  0  0  0  0
    7.2358   -1.6294    0.5565 O   0  0  0  0  0  0  0  0  0  0  0  0
    6.2472   -2.6242    0.4213 C   0  0  2  0  0  0  0  0  0  0  0  0
    5.9435   -2.7662   -1.1267 C   0  0  0  0  0  0  0  0  0  0  0  0
    4.9812   -1.7166   -1.6347 C   0  0  1  0  0  0  0  0  0  0  0  0
    3.6529   -2.0559   -2.2652 C   0  0  1  0  0  0  0  0  0  0  0  0
    3.2184   -3.4466   -2.6113 C   0  0  0  0  0  0  0  0  0  0  0  0
    3.7167   -1.5485   -0.8453 C   0  0  1  0  0  0  0  0  0  0  0  0
    3.6599   -2.3395    0.4395 C   0  0  0  0  0  0  0  0  0  0  0  0
    4.9546   -2.1521    1.2693 C   0  0  2  0  0  0  0  0  0  0  0  0
    5.0494   -0.7465    1.3866 O   0  0  0  0  0  0  0  0  0  0  0  0
    4.8876   -2.7746    2.7492 C   0  0  1  0  0  0  0  0  0  0  0  0
    4.1672   -2.0140    3.9744 C   0  0  1  0  0  0  0  0  0  0  0  0
    4.3021   -0.4772    4.2382 C   0  0  1  0  0  0  0  0  0  0  0  0
    5.6082    0.0257    4.0515 O   0  0  0  0  0  0  0  0  0  0  0  0
    3.2160    0.4141    3.5849 C   0  0  0  0  0  0  0  0  0  0  0  0
    1.8348   -0.1417    3.8550 C   0  0  0  0  0  0  0  0  0  0  0  0
    0.7440    0.5265    4.2227 C   0  0  0  0  0  0  0  0  0  0  0  0
   -0.4466   -0.3796    4.3818 C   0  0  0  0  0  0  0  0  0  0  0  0
    0.1906   -1.7877    4.3677 C   0  0  0  0  0  0  0  0  0  0  0  0
    1.5911   -1.6225    3.7178 C   0  0  2  0  0  0  0  0  0  0  0  0
    2.7200   -2.4380    4.3898 C   0  0  1  0  0  0  0  0  0  0  0  0
    2.4969   -3.9539    4.3988 C   0  0  0  0  0  0  0  0  0  0  0  0
    3.0493   -4.6495    3.1617 C   0  0  1  0  0  0  0  0  0  0  0  0
    2.1826   -4.3865    2.0833 O   0  0  0  0  0  0  0  0  0  0  0  0
    4.5495   -4.3367    2.8518 C   0  0  2  0  0  0  0  0  0  0  0  0
    5.3587   -4.9430    4.0407 C   0  0  0  0  0  0  0  0  0  0  0  0
    4.9029   -5.1675    1.5959 C   0  0  2  0  0  0  0  0  0  0  0  0
    6.1232   -5.9225    1.7304 O   0  0  0  0  0  0  0  0  0  0  0  0
    6.0891   -4.9913    0.6761 C   0  0  2  0  0  0  0  0  0  0  0  0
    6.7832   -3.8066    0.9527 O   0  0  0  0  0  0  0  0  0  0  0  0
    9.1879   -1.0763    0.2583 H   0  0  0  0  0  0  0  0  0  0  0  0
    8.6986   -2.3659   -0.8193 H   0  0  0  0  0  0  0  0  0  0  0  0
    9.0014   -2.7047    0.8845 H   0  0  0  0  0  0  0  0  0  0  0  0
    6.8442   -2.7673   -1.7339 H   0  0  0  0  0  0  0  0  0  0  0  0
    5.4828   -3.7240   -1.3295 H   0  0  0  0  0  0  0  0  0  0  0  0
    5.4476   -0.7835   -1.9220 H   0  0  0  0  0  0  0  0  0  0  0  0
    3.3215   -1.3271   -2.9956 H   0  0  0  0  0  0  0  0  0  0  0  0
    3.3841   -4.1311   -1.7761 H   0  0  0  0  0  0  0  0  0  0  0  0
    3.7806   -3.8182   -3.4725 H   0  0  0  0  0  0  0  0  0  0  0  0
    2.1542   -3.4651   -2.8498 H   0  0  0  0  0  0  0  0  0  0  0  0
    3.3884   -0.5392   -0.7072 H   0  0  0  0  0  0  0  0  0  0  0  0
    2.7905   -1.9793    0.9823 H   0  0  0  0  0  0  0  0  0  0  0  0
    3.5007   -3.3832    0.2107 H   0  0  0  0  0  0  0  0  0  0  0  0
    4.2512   -0.4122    1.7613 H   0  0  0  0  0  0  0  0  0  0  0  0
    5.9382   -2.6953    3.0365 H   0  0  0  0  0  0  0  0  0  0  0  0
    4.7573   -2.3941    4.8114 H   0  0  0  0  0  0  0  0  0  0  0  0
    4.1417   -0.3511    5.3110 H   0  0  0  0  0  0  0  0  0  0  0  0
    6.2014   -0.4646    4.6001 H   0  0  0  0  0  0  0  0  0  0  0  0
    3.2809    1.4343    3.9688 H   0  0  0  0  0  0  0  0  0  0  0  0
    3.3138    0.5017    2.5092 H   0  0  0  0  0  0  0  0  0  0  0  0
    0.6782    1.5950    4.3610 H   0  0  0  0  0  0  0  0  0  0  0  0
   -0.9961   -0.1756    5.3020 H   0  0  0  0  0  0  0  0  0  0  0  0
   -1.1151   -0.2296    3.5321 H   0  0  0  0  0  0  0  0  0  0  0  0
    0.2977   -2.1191    5.4029 H   0  0  0  0  0  0  0  0  0  0  0  0
   -0.4250   -2.5316    3.8596 H   0  0  0  0  0  0  0  0  0  0  0  0
    1.5119   -1.8290    2.6567 H   0  0  0  0  0  0  0  0  0  0  0  0
    2.6359   -2.1552    5.4403 H   0  0  0  0  0  0  0  0  0  0  0  0
    2.9741   -4.3665    5.2858 H   0  0  0  0  0  0  0  0  0  0  0  0
    1.4424   -4.1946    4.5260 H   0  0  0  0  0  0  0  0  0  0  0  0
    2.9505   -5.7226    3.3339 H   0  0  0  0  0  0  0  0  0  0  0  0
    2.2260   -3.4629    1.8894 H   0  0  0  0  0  0  0  0  0  0  0  0
    5.1560   -6.0095    4.1660 H   0  0  0  0  0  0  0  0  0  0  0  0
    5.1461   -4.4798    4.9977 H   0  0  0  0  0  0  0  0  0  0  0  0
    6.4323   -4.8423    3.8922 H   0  0  0  0  0  0  0  0  0  0  0  0
    4.0893   -5.6987    1.1106 H   0  0  0  0  0  0  0  0  0  0  0  0
    6.1710   -5.4457   -0.3257 H   0  0  0  0  0  0  0  0  0  0  0  0
  1  2  1  0
  1 32  1  0
  1 33  1  0
  1 34  1  0
  3  2  1  6
  3 10  1  0
  3 31  1  0
  3  4  1  0
  4  5  1  0
  4 35  1  0
  4 36  1  0
  5  8  1  0
  5  6  1  0
  5 37  1  6
  6  7  1  0
  6  8  1  0
  6 38  1  6
  7 39  1  0
  7 40  1  0
  7 41  1  0
  8  9  1  0
  8 42  1  1
  9 10  1  0
  9 43  1  0
  9 44  1  0
 10 11  1  1
 10 12  1  0
 11 45  1  0
 12 26  1  0
 12 13  1  0
 12 46  1  1
 13 22  1  0
 13 14  1  0
 13 47  1  1
 14 15  1  0
 14 16  1  0
 14 48  1  1
 15 49  1  0
 16 17  1  0
 16 50  1  0
 16 51  1  0
 17 21  1  0
 17 18  2  0
 18 19  1  0
 18 52  1  0
 19 20  1  0
 19 53  1  0
 19 54  1  0
 20 21  1  0
 20 55  1  0
 20 56  1  0
 21 22  1  0
 21 57  1  6
 22 23  1  0
 22 58  1  1
 23 24  1  0
 23 59  1  0
 23 60  1  0
 24 25  1  0
 24 26  1  0
 24 61  1  1
 25 62  1  0
 26 27  1  1
 26 28  1  0
 27 63  1  0
 27 64  1  0
 27 65  1  0
 28 30  1  0
 28 29  1  0
 28 66  1  6
 29 30  1  0
 30 31  1  0
 30 67  1  6
M  END
>  <i_m_ct_stereo_status>  (256) 
1

>  <s_m_source_file>  (256) 
/var/tmp/pbs.5076255.sched01/tmplj_yfvzq/807e0r74np.sdf

>  <i_m_source_file_index>  (256) 
25

>  <i_lp_mmshare_version>  (256) 
48012

>  <i_f3d_flags>  (256) 
0

>  <s_epik_input>  (256) 
W0NIM11bQ0BASF0xW0NASF0oW0NIMl0yKVtDQEBIXTFbQ0gyXVtDQF0oW09IXSkoW0NAXTIzT1tDSDNdKVtDQEhdNFtDQEBIXTVbQ0BASF0oW0NAQEhdNkMoW0NIMl1bQ0BASF01W09IXSk9W0NIXVtDSDJdW0NIMl02KVtDSDJdW0NAQEhdKFtPSF0pW0NAQF00KFtDSDNdKVtDQEhdN1tDQEhdKE83KU8z

>  <s_epik_cmdline>  (256) 
J2VwaWtfcHl0aG9uJywgJy1waHQnLCAnMi4wJywgJy1waCcsICc3LjAnLCAnLXRuJywgJzgnLCAnLW1hJywgJzIwMCcsICctaW1hZScsICc8aW5maWxlLm1hZT4nLCAnLW9tYWUnLCAnPG91dGZpbGUubWFlPic=

>  <r_lp_tautomer_probability>  (256) 
1

>  <r_epik_Ionization_Penalty>  (256) 
6.76371e-07

>  <r_epik_Ionization_Penalty_Charging>  (256) 
0

>  <r_epik_Ionization_Penalty_Neutral>  (256) 
6.76371e-07

>  <r_epik_State_Penalty>  (256) 
-0

>  <r_epik_Charging_Adjusted_Penalty>  (256) 
0

>  <i_epik_Tot_Q>  (256) 
0

>  <i_epik_Tot_abs_Q>  (256) 
0

>  <s_epik_Chemistry_Notes>  (256) 
This compound contains an acetal/aminal-like group ( X-CH(R)-Y where X, Y are N, S, or O) that may be acid/base labile, releasing an aldehyde.

>  <s_lp_Force_Field>  (256) 
OPLS3e

>  <r_lp_Energy>  (256) 
84.0212

>  <b_lp_Chiralities_Consistent>  (256) 
1

>  <s_lp_Variant>  (256) 
75:0-1

>  <s_i_glide_gridfile>  (256) 
pfpi4k_grid

>  <i_i_glide_lignum>  (256) 
25

>  <i_i_glide_rotatable_bonds>  (256) 
4

>  <r_i_docking_score>  (256) 
-2.2103

>  <r_i_glide_ligand_efficiency>  (256) 
-0.0713002

>  <r_i_glide_ligand_efficiency_sa>  (256) 
-0.223981

>  <r_i_glide_ligand_efficiency_ln>  (256) 
-0.498492

>  <r_i_glide_gscore>  (256) 
-2.2103

>  <r_i_glide_lipo>  (256) 
-0.166515

>  <r_i_glide_hbond>  (256) 
0

>  <r_i_glide_metal>  (256) 
-0

>  <r_i_glide_rewards>  (256) 
-0.711825

>  <r_i_glide_evdw>  (256) 
-22.8766

>  <r_i_glide_ecoul>  (256) 
-1.25424

>  <r_i_glide_erotb>  (256) 
0

>  <r_i_glide_esite>  (256) 
0

>  <r_i_glide_emodel>  (256) 
-26.3234

>  <r_i_glide_energy>  (256) 
-24.1308

>  <r_i_glide_einternal>  (256) 
2.08851

>  <r_i_glide_intrahb_reward>  (256) 
-0

>  <i_i_glide_confnum>  (256) 
1

>  <i_i_glide_posenum>  (256) 
9

>  <r_i_glide_eff_state_penalty>  (256) 
0

>  <ligand_id>  (256) 
75

>  <original_smiles>  (256) 
COC12CC3C(C)C3CC1(O)C1C3C(O)CC4=CCCC4C3CC(O)C1(C)C1OC1O2

>  <smiles>  (256) 
[H]OC1([H])C([H])([H])C2=C([H])C([H])([H])C([H])([H])C2([H])C2([H])C([H])([H])C([H])(O[H])C3(C([H])([H])[H])C4([H])OC4([H])OC4(OC([H])([H])[H])C([H])([H])C5([H])C([H])(C([H])([H])[H])C5([H])C([H])([H])C4(O[H])C3([H])C12[H]

$$$$
76:0:0
     RDKit          3D

 53 57  0  0  1  0  0  0  0  0999 V2000
    1.7042   -3.4992    4.0357 C   0  0  0  0  0  0  0  0  0  0  0  0
    2.6840   -3.5466    3.0814 C   0  0  0  0  0  0  0  0  0  0  0  0
    2.6858   -4.5310    2.0052 C   0  0  0  0  0  0  0  0  0  0  0  0
    1.8208   -5.3601    1.7298 O   0  0  0  0  0  0  0  0  0  0  0  0
    4.0249   -4.4093    1.2624 C   0  0  2  0  0  0  0  0  0  0  0  0
    4.5234   -5.7916    0.7587 C   0  0  0  0  0  0  0  0  0  0  0  0
    4.8973   -3.8645    2.4072 C   0  0  0  0  0  0  0  0  0  0  0  0
    3.9837   -2.7723    3.0062 C   0  0  2  0  0  0  0  0  0  0  0  0
    4.5432   -2.2143    4.3350 C   0  0  0  0  0  0  0  0  0  0  0  0
    4.6767   -0.7051    4.1468 C   0  0  0  0  0  0  0  0  0  0  0  0
    4.8310   -0.5189    2.6444 C   0  0  0  0  0  0  0  0  0  0  0  0
    3.8889   -1.5538    2.0078 C   0  0  2  0  0  0  0  0  0  0  0  0
    2.4527   -0.9575    1.9663 C   0  0  0  0  0  0  0  0  0  0  0  0
    4.3621   -1.9318    0.5509 C   0  0  2  0  0  0  0  0  0  0  0  0
    4.0916   -0.8075   -0.4718 C   0  0  0  0  0  0  0  0  0  0  0  0
    4.7935   -1.0245   -1.8137 C   0  0  2  0  0  0  0  0  0  0  0  0
    4.5034    0.0677   -2.7250 O   0  0  0  0  0  0  0  0  0  0  0  0
    3.7959   -0.8162   -3.6208 C   0  0  0  0  0  0  0  0  0  0  0  0
    2.4231   -0.3244   -3.7138 C   0  0  0  0  0  0  0  0  0  0  0  0
    4.2665   -0.7198   -5.0117 C   0  0  0  0  0  0  0  0  0  0  0  0
    4.2209   -2.0312   -2.7916 C   0  0  2  0  0  0  0  0  0  0  0  0
    3.1430   -2.9721   -2.3194 C   0  0  0  0  0  0  0  0  0  0  0  0
    2.1337   -3.1800   -2.9848 O   0  0  0  0  0  0  0  0  0  0  0  0
    3.3067   -3.7033   -1.0395 C   0  0  0  0  0  0  0  0  0  0  0  0
    3.8571   -3.3432    0.1443 C   0  0  0  0  0  0  0  0  0  0  0  0
    1.7395   -2.8123    4.8529 H   0  0  0  0  0  0  0  0  0  0  0  0
    0.8676   -4.1596    4.0052 H   0  0  0  0  0  0  0  0  0  0  0  0
    3.8170   -6.2849    0.0964 H   0  0  0  0  0  0  0  0  0  0  0  0
    4.6828   -6.4805    1.5879 H   0  0  0  0  0  0  0  0  0  0  0  0
    5.4658   -5.7043    0.2234 H   0  0  0  0  0  0  0  0  0  0  0  0
    5.0798   -4.6438    3.1499 H   0  0  0  0  0  0  0  0  0  0  0  0
    5.8818   -3.5171    2.0908 H   0  0  0  0  0  0  0  0  0  0  0  0
    3.9447   -2.4599    5.2091 H   0  0  0  0  0  0  0  0  0  0  0  0
    5.5298   -2.6334    4.5187 H   0  0  0  0  0  0  0  0  0  0  0  0
    3.7683   -0.2078    4.4865 H   0  0  0  0  0  0  0  0  0  0  0  0
    5.5158   -0.2857    4.7000 H   0  0  0  0  0  0  0  0  0  0  0  0
    4.5963    0.4972    2.3360 H   0  0  0  0  0  0  0  0  0  0  0  0
    5.8675   -0.7132    2.3642 H   0  0  0  0  0  0  0  0  0  0  0  0
    2.4280    0.0231    1.4871 H   0  0  0  0  0  0  0  0  0  0  0  0
    2.0497   -0.8246    2.9688 H   0  0  0  0  0  0  0  0  0  0  0  0
    1.7656   -1.6004    1.4115 H   0  0  0  0  0  0  0  0  0  0  0  0
    5.4470   -2.0408    0.5614 H   0  0  0  0  0  0  0  0  0  0  0  0
    3.0166   -0.6742   -0.6011 H   0  0  0  0  0  0  0  0  0  0  0  0
    4.4513    0.1180   -0.0478 H   0  0  0  0  0  0  0  0  0  0  0  0
    5.8771   -1.1740   -1.7096 H   0  0  0  0  0  0  0  0  0  0  0  0
    1.8441   -1.0247   -4.3305 H   0  0  0  0  0  0  0  0  0  0  0  0
    2.3815    0.6531   -4.1906 H   0  0  0  0  0  0  0  0  0  0  0  0
    2.1330   -0.2796   -2.6719 H   0  0  0  0  0  0  0  0  0  0  0  0
    3.6506   -1.3928   -5.5994 H   0  0  0  0  0  0  0  0  0  0  0  0
    5.2893   -1.0388   -5.0289 H   0  0  0  0  0  0  0  0  0  0  0  0
    4.2224    0.3102   -5.4014 H   0  0  0  0  0  0  0  0  0  0  0  0
    5.0261   -2.5923   -3.2814 H   0  0  0  0  0  0  0  0  0  0  0  0
    2.9149   -4.7103   -1.0988 H   0  0  0  0  0  0  0  0  0  0  0  0
  1  2  2  0
  1 26  1  0
  1 27  1  0
  2  8  1  0
  2  3  1  0
  3  4  2  0
  3  5  1  0
  5 25  1  0
  5  6  1  6
  5  7  1  0
  6 28  1  0
  6 29  1  0
  6 30  1  0
  7  8  1  0
  7 31  1  0
  7 32  1  0
  8 12  1  0
  8  9  1  1
  9 10  1  0
  9 33  1  0
  9 34  1  0
 10 11  1  0
 10 35  1  0
 10 36  1  0
 11 12  1  0
 11 37  1  0
 11 38  1  0
 12 13  1  6
 12 14  1  0
 13 39  1  0
 13 40  1  0
 13 41  1  0
 14 25  1  0
 14 15  1  0
 14 42  1  1
 15 16  1  0
 15 43  1  0
 15 44  1  0
 16 21  1  0
 16 17  1  0
 16 45  1  1
 17 18  1  0
 18 19  1  0
 18 20  1  0
 18 21  1  0
 19 46  1  0
 19 47  1  0
 19 48  1  0
 20 49  1  0
 20 50  1  0
 20 51  1  0
 21 22  1  0
 21 52  1  6
 22 23  2  0
 22 24  1  0
 24 25  2  0
 24 53  1  0
M  END
>  <i_m_ct_stereo_status>  (257) 
1

>  <s_m_source_file>  (257) 
/var/tmp/pbs.5076255.sched01/tmplj_yfvzq/807e0r74np.sdf

>  <i_m_source_file_index>  (257) 
26

>  <i_lp_mmshare_version>  (257) 
48012

>  <i_f3d_flags>  (257) 
0

>  <s_epik_input>  (257) 
W0NIMl0xW0NIMl1bQ0gyXVtDQEBdKFtDQEBdMTIzKShbQ0gzXSlbQ0BIXTRDKFtDQEBdKFtDSDNdKShbQ0gyXTMpQyg9TylDMj1bQ0gyXSk9W0NIXUMoPU8pW0NAQEhdNVtDQEhdKFtDSDJdNClPQzUoW0NIM10pW0NIM10=

>  <s_epik_cmdline>  (257) 
J2VwaWtfcHl0aG9uJywgJy1waHQnLCAnMi4wJywgJy1waCcsICc3LjAnLCAnLXRuJywgJzgnLCAnLW1hJywgJzIwMCcsICctaW1hZScsICc8aW5maWxlLm1hZT4nLCAnLW9tYWUnLCAnPG91dGZpbGUubWFlPic=

>  <r_lp_tautomer_probability>  (257) 
1

>  <r_epik_Ionization_Penalty>  (257) 
3.71915e-13

>  <r_epik_Ionization_Penalty_Charging>  (257) 
0

>  <r_epik_Ionization_Penalty_Neutral>  (257) 
3.71915e-13

>  <r_epik_State_Penalty>  (257) 
-0

>  <r_epik_Charging_Adjusted_Penalty>  (257) 
0

>  <i_epik_Tot_Q>  (257) 
0

>  <i_epik_Tot_abs_Q>  (257) 
0

>  <s_lp_Force_Field>  (257) 
OPLS3e

>  <r_lp_Energy>  (257) 
36.7917

>  <b_lp_Chiralities_Consistent>  (257) 
1

>  <s_lp_Variant>  (257) 
76:0-1

>  <s_i_glide_gridfile>  (257) 
pfpi4k_grid

>  <i_i_glide_lignum>  (257) 
26

>  <i_i_glide_rotatable_bonds>  (257) 
0

>  <r_i_docking_score>  (257) 
-2.12212

>  <r_i_glide_ligand_efficiency>  (257) 
-0.0848848

>  <r_i_glide_ligand_efficiency_sa>  (257) 
-0.248205

>  <r_i_glide_ligand_efficiency_ln>  (257) 
-0.503006

>  <r_i_glide_gscore>  (257) 
-2.12212

>  <r_i_glide_lipo>  (257) 
-0.792043

>  <r_i_glide_hbond>  (257) 
-0.0371462

>  <r_i_glide_metal>  (257) 
-0

>  <r_i_glide_rewards>  (257) 
-1.0878

>  <r_i_glide_evdw>  (257) 
-4.8185

>  <r_i_glide_ecoul>  (257) 
0.49474

>  <r_i_glide_erotb>  (257) 
0

>  <r_i_glide_esite>  (257) 
-0.0384152

>  <r_i_glide_emodel>  (257) 
-6.88053

>  <r_i_glide_energy>  (257) 
-4.32376

>  <r_i_glide_einternal>  (257) 
0

>  <r_i_glide_intrahb_reward>  (257) 
-0

>  <i_i_glide_confnum>  (257) 
2

>  <i_i_glide_posenum>  (257) 
20

>  <r_i_glide_eff_state_penalty>  (257) 
0

>  <ligand_id>  (257) 
76

>  <original_smiles>  (257) 
C=C1C(=O)C2(C)CC13CCCC3(C)C1CC3OC(C)(C)C3C(=O)C=C12

>  <smiles>  (257) 
[H]C([H])=C1C(=O)C2(C([H])([H])[H])C3=C([H])C(=O)C4([H])C([H])(OC4(C([H])([H])[H])C([H])([H])[H])C([H])([H])C3([H])C3(C([H])([H])[H])C([H])([H])C([H])([H])C([H])([H])C13C2([H])[H]

$$$$
77:0:0
     RDKit          3D

 69 73  0  0  1  0  0  0  0  0999 V2000
   -2.1583   -9.1098    2.6703 C   0  0  0  0  0  0  0  0  0  0  0  0
   -0.9406   -8.6918    2.3007 C   0  0  0  0  0  0  0  0  0  0  0  0
    0.3095   -8.6023    3.1738 C   0  0  1  0  0  0  0  0  0  0  0  0
   -0.0117   -8.8391    4.5387 O   0  0  0  0  0  0  0  0  0  0  0  0
    1.3695   -9.6263    2.7298 C   0  0  0  0  0  0  0  0  0  0  0  0
    2.7197   -8.9390    2.9520 C   0  0  0  0  0  0  0  0  0  0  0  0
    3.7907   -9.4609    2.6509 O   0  0  0  0  0  0  0  0  0  0  0  0
    2.5357   -7.5145    3.5140 C   0  0  2  0  0  0  0  0  0  0  0  0
    2.4941   -7.6458    4.9212 O   0  0  0  0  0  0  0  0  0  0  0  0
    1.0936   -7.2701    3.0192 C   0  0  2  0  0  0  0  0  0  0  0  0
    0.5372   -6.0116    3.6285 C   0  0  0  0  0  0  0  0  0  0  0  0
    1.3354   -4.9424    3.7609 C   0  0  0  0  0  0  0  0  0  0  0  0
    2.8055   -4.9005    3.3100 C   0  0  1  0  0  0  0  0  0  0  0  0
    3.5613   -3.6169    3.8326 C   0  0  2  0  0  0  0  0  0  0  0  0
    4.6640   -3.1345    2.8557 C   0  0  0  0  0  0  0  0  0  0  0  0
    5.4195   -1.9180    3.3318 C   0  0  0  0  0  0  0  0  0  0  0  0
    5.2794   -1.3418    4.5377 C   0  0  0  0  0  0  0  0  0  0  0  0
    6.0434   -0.1287    4.8071 C   0  0  0  0  0  0  0  0  0  0  0  0
    6.0105    0.5010    5.9951 C   0  0  0  0  0  0  0  0  0  0  0  0
    6.7849    1.7810    6.2570 C   0  0  0  0  0  0  0  0  0  0  0  0
    5.1810   -0.0253    7.1520 C   0  0  0  0  0  0  0  0  0  0  0  0
    4.8697   -1.5301    7.0018 C   0  0  0  0  0  0  0  0  0  0  0  0
    4.3281   -1.9158    5.5920 C   0  0  1  0  0  0  0  0  0  0  0  0
    3.1270   -1.1672    5.5055 O   0  0  0  0  0  0  0  0  0  0  0  0
    3.9744   -3.4672    5.3488 C   0  0  1  0  0  0  0  0  0  0  0  0
    2.7926   -3.8615    6.2807 C   0  0  0  0  0  0  0  0  0  0  0  0
    5.1898   -4.4156    5.6468 C   0  0  1  0  0  0  0  0  0  0  0  0
    5.5498   -4.3886    7.0180 O   0  0  0  0  0  0  0  0  0  0  0  0
    4.9941   -5.9213    5.3692 C   0  0  0  0  0  0  0  0  0  0  0  0
    4.9293   -6.3664    3.8918 C   0  0  1  0  0  0  0  0  0  0  0  0
    5.5355   -7.6403    3.8452 O   0  0  0  0  0  0  0  0  0  0  0  0
    3.5385   -6.3201    3.1373 C   0  0  1  0  0  0  0  0  0  0  0  0
    3.9081   -6.4302    1.6213 C   0  0  0  0  0  0  0  0  0  0  0  0
   -2.3721   -9.4270    3.6786 H   0  0  0  0  0  0  0  0  0  0  0  0
   -2.9631   -9.1522    1.9497 H   0  0  0  0  0  0  0  0  0  0  0  0
   -0.8094   -8.3796    1.2740 H   0  0  0  0  0  0  0  0  0  0  0  0
   -0.5376   -9.6305    4.6068 H   0  0  0  0  0  0  0  0  0  0  0  0
    1.3027  -10.5643    3.2778 H   0  0  0  0  0  0  0  0  0  0  0  0
    1.2715   -9.8642    1.6709 H   0  0  0  0  0  0  0  0  0  0  0  0
    1.8224   -8.2907    5.1190 H   0  0  0  0  0  0  0  0  0  0  0  0
    1.1195   -7.0584    1.9501 H   0  0  0  0  0  0  0  0  0  0  0  0
   -0.5012   -6.0137    3.9428 H   0  0  0  0  0  0  0  0  0  0  0  0
    0.9268   -4.0261    4.1635 H   0  0  0  0  0  0  0  0  0  0  0  0
    2.6036   -4.5932    2.2828 H   0  0  0  0  0  0  0  0  0  0  0  0
    2.7995   -2.8504    3.6940 H   0  0  0  0  0  0  0  0  0  0  0  0
    5.4187   -3.8826    2.6460 H   0  0  0  0  0  0  0  0  0  0  0  0
    4.2140   -2.8780    1.8951 H   0  0  0  0  0  0  0  0  0  0  0  0
    6.1115   -1.5025    2.6148 H   0  0  0  0  0  0  0  0  0  0  0  0
    6.6586    0.2882    4.0269 H   0  0  0  0  0  0  0  0  0  0  0  0
    6.1031    2.5831    6.5551 H   0  0  0  0  0  0  0  0  0  0  0  0
    7.3256    2.0997    5.3632 H   0  0  0  0  0  0  0  0  0  0  0  0
    7.5225    1.6395    7.0503 H   0  0  0  0  0  0  0  0  0  0  0  0
    5.7238    0.1308    8.0847 H   0  0  0  0  0  0  0  0  0  0  0  0
    4.2626    0.5628    7.2142 H   0  0  0  0  0  0  0  0  0  0  0  0
    5.8184   -2.0264    7.1843 H   0  0  0  0  0  0  0  0  0  0  0  0
    4.1916   -1.8456    7.7919 H   0  0  0  0  0  0  0  0  0  0  0  0
    2.8131   -1.2389    4.6149 H   0  0  0  0  0  0  0  0  0  0  0  0
    3.0345   -3.7104    7.3332 H   0  0  0  0  0  0  0  0  0  0  0  0
    2.5101   -4.9086    6.1709 H   0  0  0  0  0  0  0  0  0  0  0  0
    1.9000   -3.2694    6.0719 H   0  0  0  0  0  0  0  0  0  0  0  0
    6.0620   -4.0829    5.0821 H   0  0  0  0  0  0  0  0  0  0  0  0
    6.3084   -4.9446    7.1353 H   0  0  0  0  0  0  0  0  0  0  0  0
    5.8767   -6.4099    5.7857 H   0  0  0  0  0  0  0  0  0  0  0  0
    4.1885   -6.3255    5.9683 H   0  0  0  0  0  0  0  0  0  0  0  0
    5.6638   -5.7685    3.3641 H   0  0  0  0  0  0  0  0  0  0  0  0
    5.5176   -7.9747    2.9582 H   0  0  0  0  0  0  0  0  0  0  0  0
    4.5304   -5.5913    1.3013 H   0  0  0  0  0  0  0  0  0  0  0  0
    3.0223   -6.4245    0.9829 H   0  0  0  0  0  0  0  0  0  0  0  0
    4.4686   -7.3354    1.3841 H   0  0  0  0  0  0  0  0  0  0  0  0
  1  2  2  0
  1 34  1  0
  1 35  1  0
  2  3  1  0
  2 36  1  0
  3 10  1  0
  3  4  1  1
  3  5  1  0
  4 37  1  0
  5  6  1  0
  5 38  1  0
  5 39  1  0
  6  7  2  0
  6  8  1  0
  8 32  1  0
  8  9  1  1
  8 10  1  0
  9 40  1  0
 10 11  1  0
 10 41  1  6
 11 12  2  0
 11 42  1  0
 12 13  1  0
 12 43  1  0
 13 32  1  0
 13 14  1  0
 13 44  1  6
 14 25  1  0
 14 15  1  0
 14 45  1  1
 15 16  1  0
 15 46  1  0
 15 47  1  0
 16 17  2  0
 16 48  1  0
 17 23  1  0
 17 18  1  0
 18 19  2  0
 18 49  1  0
 19 20  1  0
 19 21  1  0
 20 50  1  0
 20 51  1  0
 20 52  1  0
 21 22  1  0
 21 53  1  0
 21 54  1  0
 22 23  1  0
 22 55  1  0
 22 56  1  0
 23 24  1  6
 23 25  1  0
 24 57  1  0
 25 26  1  1
 25 27  1  0
 26 58  1  0
 26 59  1  0
 26 60  1  0
 27 28  1  0
 27 29  1  0
 27 61  1  6
 28 62  1  0
 29 30  1  0
 29 63  1  0
 29 64  1  0
 30 31  1  0
 30 32  1  0
 30 65  1  6
 31 66  1  0
 32 33  1  6
 33 67  1  0
 33 68  1  0
 33 69  1  0
M  END
>  <i_m_ct_stereo_status>  (258) 
1

>  <s_m_source_file>  (258) 
/var/tmp/pbs.5076255.sched01/tmplj_yfvzq/807e0r74np.sdf

>  <i_m_source_file_index>  (258) 
27

>  <i_lp_mmshare_version>  (258) 
48012

>  <i_f3d_flags>  (258) 
0

>  <s_epik_input>  (258) 
Tz1DMVtDSDJdW0NAXShbT0hdKShbQ0hdPVtDSDJdKVtDQEhdKFtDQEBdMTJbT0hdKVtDSF09W0NIXVtDQEhdM1tDQEhdNFtDQEBdKFtDSDNdKShbQ0BASF0oW09IXSlbQ0gyXVtDQEBIXShbT0hdKVtDQEBdMjNbQ0gzXSlbQ0BdNShbT0hdKUMoPVtDSF1bQ0gyXTQpW0NIXT1DKFtDSDNdKVtDSDJdW0NIMl01

>  <s_epik_cmdline>  (258) 
J2VwaWtfcHl0aG9uJywgJy1waHQnLCAnMi4wJywgJy1waCcsICc3LjAnLCAnLXRuJywgJzgnLCAnLW1hJywgJzIwMCcsICctaW1hZScsICc8aW5maWxlLm1hZT4nLCAnLW9tYWUnLCAnPG91dGZpbGUubWFlPic=

>  <r_lp_tautomer_probability>  (258) 
1

>  <r_epik_Ionization_Penalty>  (258) 
5.40614e-07

>  <r_epik_Ionization_Penalty_Charging>  (258) 
0

>  <r_epik_Ionization_Penalty_Neutral>  (258) 
5.40614e-07

>  <r_epik_State_Penalty>  (258) 
-0

>  <r_epik_Charging_Adjusted_Penalty>  (258) 
0

>  <i_epik_Tot_Q>  (258) 
0

>  <i_epik_Tot_abs_Q>  (258) 
0

>  <s_lp_Force_Field>  (258) 
OPLS3e

>  <r_lp_Energy>  (258) 
67.5546

>  <b_lp_Chiralities_Consistent>  (258) 
1

>  <s_lp_Variant>  (258) 
77:0-1

>  <s_i_glide_gridfile>  (258) 
pfpi4k_grid

>  <i_i_glide_lignum>  (258) 
27

>  <i_i_glide_rotatable_bonds>  (258) 
6

>  <r_i_docking_score>  (258) 
-2.80841

>  <r_i_glide_ligand_efficiency>  (258) 
-0.0851032

>  <r_i_glide_ligand_efficiency_sa>  (258) 
-0.272971

>  <r_i_glide_ligand_efficiency_ln>  (258) 
-0.624575

>  <r_i_glide_gscore>  (258) 
-2.80841

>  <r_i_glide_lipo>  (258) 
-0.55494

>  <r_i_glide_hbond>  (258) 
0

>  <r_i_glide_metal>  (258) 
-0

>  <r_i_glide_rewards>  (258) 
-0.796106

>  <r_i_glide_evdw>  (258) 
-22.6902

>  <r_i_glide_ecoul>  (258) 
-2.74655

>  <r_i_glide_erotb>  (258) 
0.0964133

>  <r_i_glide_esite>  (258) 
-0.00728224

>  <r_i_glide_emodel>  (258) 
-34.3716

>  <r_i_glide_energy>  (258) 
-25.4367

>  <r_i_glide_einternal>  (258) 
3.55204

>  <r_i_glide_intrahb_reward>  (258) 
-0.5

>  <i_i_glide_confnum>  (258) 
3

>  <i_i_glide_posenum>  (258) 
29

>  <r_i_glide_eff_state_penalty>  (258) 
0

>  <ligand_id>  (258) 
77

>  <original_smiles>  (258) 
C=CC1(O)CC(=O)C2(O)C1C=CC1C3CC=C4C=C(C)CCC4(O)C3(C)C(O)CC(O)C12C

>  <smiles>  (258) 
[H]OC1([H])C([H])([H])C([H])(O[H])C2(C([H])([H])[H])C3(O[H])C(=C([H])C([H])([H])C2([H])C2([H])C([H])=C([H])C4([H])C(O[H])(C([H])=C([H])[H])C([H])([H])C(=O)C4(O[H])C12C([H])([H])[H])C([H])=C(C([H])([H])[H])C([H])([H])C3([H])[H]

$$$$
77:0:1
     RDKit          3D

 69 73  0  0  1  0  0  0  0  0999 V2000
   -1.6741   -9.0783    2.4243 C   0  0  0  0  0  0  0  0  0  0  0  0
   -0.3475   -9.1495    2.6280 C   0  0  0  0  0  0  0  0  0  0  0  0
    0.3538   -9.2317    3.9784 C   0  0  1  0  0  0  0  0  0  0  0  0
   -0.5770   -9.0486    5.0444 O   0  0  0  0  0  0  0  0  0  0  0  0
    1.0909  -10.5823    4.1232 C   0  0  0  0  0  0  0  0  0  0  0  0
    2.3637  -10.2701    4.9107 C   0  0  0  0  0  0  0  0  0  0  0  0
    3.1896  -11.1267    5.2015 O   0  0  0  0  0  0  0  0  0  0  0  0
    2.4604   -8.7760    5.2603 C   0  0  2  0  0  0  0  0  0  0  0  0
    1.8184   -8.6411    6.5114 O   0  0  0  0  0  0  0  0  0  0  0  0
    1.5302   -8.2289    4.1500 C   0  0  2  0  0  0  0  0  0  0  0  0
    1.2363   -6.7715    4.3690 C   0  0  0  0  0  0  0  0  0  0  0  0
    2.2166   -5.9672    4.8095 C   0  0  0  0  0  0  0  0  0  0  0  0
    3.6526   -6.4301    5.0911 C   0  0  1  0  0  0  0  0  0  0  0  0
    4.5007   -5.3297    5.8388 C   0  0  2  0  0  0  0  0  0  0  0  0
    6.0048   -5.3823    5.4682 C   0  0  0  0  0  0  0  0  0  0  0  0
    6.8543   -4.3701    6.1971 C   0  0  0  0  0  0  0  0  0  0  0  0
    6.4256   -3.5454    7.1608 C   0  0  0  0  0  0  0  0  0  0  0  0
    7.3607   -2.5598    7.6924 C   0  0  0  0  0  0  0  0  0  0  0  0
    7.0458   -1.7136    8.6849 C   0  0  0  0  0  0  0  0  0  0  0  0
    8.0154   -0.6605    9.1952 C   0  0  0  0  0  0  0  0  0  0  0  0
    5.6783   -1.7444    9.3498 C   0  0  0  0  0  0  0  0  0  0  0  0
    4.9689   -3.1019    9.1439 C   0  0  0  0  0  0  0  0  0  0  0  0
    4.9790   -3.5983    7.6675 C   0  0  1  0  0  0  0  0  0  0  0  0
    4.2653   -2.5756    6.9960 O   0  0  0  0  0  0  0  0  0  0  0  0
    4.2566   -5.0001    7.3638 C   0  0  1  0  0  0  0  0  0  0  0  0
    2.7364   -4.8572    7.6566 C   0  0  0  0  0  0  0  0  0  0  0  0
    4.8299   -6.1755    8.2346 C   0  0  1  0  0  0  0  0  0  0  0  0
    4.5831   -5.9782    9.6143 O   0  0  0  0  0  0  0  0  0  0  0  0
    4.2714   -7.5907    7.9757 C   0  0  0  0  0  0  0  0  0  0  0  0
    4.6922   -8.2900    6.6623 C   0  0  1  0  0  0  0  0  0  0  0  0
    4.7815   -9.6679    6.9532 O   0  0  0  0  0  0  0  0  0  0  0  0
    3.8652   -8.0018    5.3438 C   0  0  1  0  0  0  0  0  0  0  0  0
    4.7770   -8.5049    4.1794 C   0  0  0  0  0  0  0  0  0  0  0  0
   -2.3772   -9.0605    3.2414 H   0  0  0  0  0  0  0  0  0  0  0  0
   -2.0694   -9.0462    1.4242 H   0  0  0  0  0  0  0  0  0  0  0  0
    0.2965   -9.1600    1.7594 H   0  0  0  0  0  0  0  0  0  0  0  0
   -1.2111   -9.7740    5.0231 H   0  0  0  0  0  0  0  0  0  0  0  0
    0.4863  -11.3323    4.6278 H   0  0  0  0  0  0  0  0  0  0  0  0
    1.3778  -10.9868    3.1488 H   0  0  0  0  0  0  0  0  0  0  0  0
    0.9978   -9.1157    6.4522 H   0  0  0  0  0  0  0  0  0  0  0  0
    2.0787   -8.2501    3.2033 H   0  0  0  0  0  0  0  0  0  0  0  0
    0.2391   -6.4233    4.1417 H   0  0  0  0  0  0  0  0  0  0  0  0
    2.0141   -4.9158    4.9261 H   0  0  0  0  0  0  0  0  0  0  0  0
    4.0178   -6.2886    4.0735 H   0  0  0  0  0  0  0  0  0  0  0  0
    4.1856   -4.4254    5.3193 H   0  0  0  0  0  0  0  0  0  0  0  0
    6.4690   -6.3424    5.6565 H   0  0  0  0  0  0  0  0  0  0  0  0
    6.1264   -5.1946    4.4001 H   0  0  0  0  0  0  0  0  0  0  0  0
    7.8783   -4.3278    5.8594 H   0  0  0  0  0  0  0  0  0  0  0  0
    8.3570   -2.4947    7.2786 H   0  0  0  0  0  0  0  0  0  0  0  0
    7.5789    0.3377    9.1183 H   0  0  0  0  0  0  0  0  0  0  0  0
    8.9397   -0.6725    8.6140 H   0  0  0  0  0  0  0  0  0  0  0  0
    8.2728   -0.8484   10.2383 H   0  0  0  0  0  0  0  0  0  0  0  0
    5.7945   -1.5654   10.4189 H   0  0  0  0  0  0  0  0  0  0  0  0
    5.0804   -0.9242    8.9457 H   0  0  0  0  0  0  0  0  0  0  0  0
    5.5269   -3.7954    9.7692 H   0  0  0  0  0  0  0  0  0  0  0  0
    3.9578   -3.0537    9.5484 H   0  0  0  0  0  0  0  0  0  0  0  0
    4.2655   -2.7809    6.0741 H   0  0  0  0  0  0  0  0  0  0  0  0
    2.5425   -4.5663    8.6869 H   0  0  0  0  0  0  0  0  0  0  0  0
    2.1923   -5.7829    7.4763 H   0  0  0  0  0  0  0  0  0  0  0  0
    2.2779   -4.0967    7.0256 H   0  0  0  0  0  0  0  0  0  0  0  0
    5.9139   -6.2119    8.1245 H   0  0  0  0  0  0  0  0  0  0  0  0
    3.6497   -6.0129    9.7590 H   0  0  0  0  0  0  0  0  0  0  0  0
    4.6869   -8.2015    8.7790 H   0  0  0  0  0  0  0  0  0  0  0  0
    3.2037   -7.6226    8.1602 H   0  0  0  0  0  0  0  0  0  0  0  0
    5.7353   -8.0401    6.5080 H   0  0  0  0  0  0  0  0  0  0  0  0
    3.9054  -10.0264    7.0236 H   0  0  0  0  0  0  0  0  0  0  0  0
    5.7185   -7.9526    4.1422 H   0  0  0  0  0  0  0  0  0  0  0  0
    4.3054   -8.3796    3.2023 H   0  0  0  0  0  0  0  0  0  0  0  0
    5.0433   -9.5590    4.2786 H   0  0  0  0  0  0  0  0  0  0  0  0
  1  2  2  0
  1 34  1  0
  1 35  1  0
  2  3  1  0
  2 36  1  0
  3 10  1  0
  3  4  1  1
  3  5  1  0
  4 37  1  0
  5  6  1  0
  5 38  1  0
  5 39  1  0
  6  7  2  0
  6  8  1  0
  8 32  1  0
  8  9  1  1
  8 10  1  0
  9 40  1  0
 10 11  1  0
 10 41  1  6
 11 12  2  0
 11 42  1  0
 12 13  1  0
 12 43  1  0
 13 32  1  0
 13 14  1  0
 13 44  1  6
 14 25  1  0
 14 15  1  0
 14 45  1  6
 15 16  1  0
 15 46  1  0
 15 47  1  0
 16 17  2  0
 16 48  1  0
 17 23  1  0
 17 18  1  0
 18 19  2  0
 18 49  1  0
 19 20  1  0
 19 21  1  0
 20 50  1  0
 20 51  1  0
 20 52  1  0
 21 22  1  0
 21 53  1  0
 21 54  1  0
 22 23  1  0
 22 55  1  0
 22 56  1  0
 23 24  1  6
 23 25  1  0
 24 57  1  0
 25 26  1  6
 25 27  1  0
 26 58  1  0
 26 59  1  0
 26 60  1  0
 27 28  1  0
 27 29  1  0
 27 61  1  1
 28 62  1  0
 29 30  1  0
 29 63  1  0
 29 64  1  0
 30 31  1  0
 30 32  1  0
 30 65  1  6
 31 66  1  0
 32 33  1  6
 33 67  1  0
 33 68  1  0
 33 69  1  0
M  END
>  <i_m_ct_stereo_status>  (259) 
1

>  <s_m_source_file>  (259) 
/var/tmp/pbs.5076255.sched01/tmplj_yfvzq/807e0r74np.sdf

>  <i_m_source_file_index>  (259) 
27

>  <i_lp_mmshare_version>  (259) 
48012

>  <i_f3d_flags>  (259) 
0

>  <s_epik_input>  (259) 
Tz1DMVtDSDJdW0NAXShbT0hdKShbQ0hdPVtDSDJdKVtDQEhdKFtDQEBdMTJbT0hdKVtDSF09W0NIXVtDQEhdM1tDQEhdNFtDQEBdKFtDSDNdKShbQ0BASF0oW09IXSlbQ0gyXVtDQEBIXShbT0hdKVtDQEBdMjNbQ0gzXSlbQ0BdNShbT0hdKUMoPVtDSF1bQ0gyXTQpW0NIXT1DKFtDSDNdKVtDSDJdW0NIMl01

>  <s_epik_cmdline>  (259) 
J2VwaWtfcHl0aG9uJywgJy1waHQnLCAnMi4wJywgJy1waCcsICc3LjAnLCAnLXRuJywgJzgnLCAnLW1hJywgJzIwMCcsICctaW1hZScsICc8aW5maWxlLm1hZT4nLCAnLW9tYWUnLCAnPG91dGZpbGUubWFlPic=

>  <r_lp_tautomer_probability>  (259) 
1

>  <r_epik_Ionization_Penalty>  (259) 
5.40614e-07

>  <r_epik_Ionization_Penalty_Charging>  (259) 
0

>  <r_epik_Ionization_Penalty_Neutral>  (259) 
5.40614e-07

>  <r_epik_State_Penalty>  (259) 
-0

>  <r_epik_Charging_Adjusted_Penalty>  (259) 
0

>  <i_epik_Tot_Q>  (259) 
0

>  <i_epik_Tot_abs_Q>  (259) 
0

>  <s_lp_Force_Field>  (259) 
OPLS3e

>  <r_lp_Energy>  (259) 
67.5546

>  <b_lp_Chiralities_Consistent>  (259) 
1

>  <s_lp_Variant>  (259) 
77:0-1

>  <s_i_glide_gridfile>  (259) 
pfpi4k_grid

>  <i_i_glide_lignum>  (259) 
27

>  <i_i_glide_rotatable_bonds>  (259) 
6

>  <r_i_docking_score>  (259) 
-2.79635

>  <r_i_glide_ligand_efficiency>  (259) 
-0.0847379

>  <r_i_glide_ligand_efficiency_sa>  (259) 
-0.2718

>  <r_i_glide_ligand_efficiency_ln>  (259) 
-0.621894

>  <r_i_glide_gscore>  (259) 
-2.79635

>  <r_i_glide_lipo>  (259) 
-0.394611

>  <r_i_glide_hbond>  (259) 
0

>  <r_i_glide_metal>  (259) 
-0

>  <r_i_glide_rewards>  (259) 
-0.796106

>  <r_i_glide_evdw>  (259) 
-17.2619

>  <r_i_glide_ecoul>  (259) 
-5.35242

>  <r_i_glide_erotb>  (259) 
0.0964133

>  <r_i_glide_esite>  (259) 
-0.0360873

>  <r_i_glide_emodel>  (259) 
-31.5748

>  <r_i_glide_energy>  (259) 
-22.6144

>  <r_i_glide_einternal>  (259) 
3.0742

>  <r_i_glide_intrahb_reward>  (259) 
-0.5

>  <i_i_glide_confnum>  (259) 
3

>  <i_i_glide_posenum>  (259) 
23

>  <r_i_glide_eff_state_penalty>  (259) 
0

>  <ligand_id>  (259) 
77

>  <original_smiles>  (259) 
C=CC1(O)CC(=O)C2(O)C1C=CC1C3CC=C4C=C(C)CCC4(O)C3(C)C(O)CC(O)C12C

>  <smiles>  (259) 
[H]OC1([H])C([H])([H])C([H])(O[H])C2(C([H])([H])[H])C3(O[H])C(=C([H])C([H])([H])C2([H])C2([H])C([H])=C([H])C4([H])C(O[H])(C([H])=C([H])[H])C([H])([H])C(=O)C4(O[H])C12C([H])([H])[H])C([H])=C(C([H])([H])[H])C([H])([H])C3([H])[H]

$$$$
77:0:2
     RDKit          3D

 69 73  0  0  1  0  0  0  0  0999 V2000
    0.8546  -11.8364    3.5840 C   0  0  0  0  0  0  0  0  0  0  0  0
    1.8976  -11.8403    4.4288 C   0  0  0  0  0  0  0  0  0  0  0  0
    2.9083  -10.7261    4.6451 C   0  0  1  0  0  0  0  0  0  0  0  0
    3.0299  -10.4953    6.0430 O   0  0  0  0  0  0  0  0  0  0  0  0
    4.2828  -11.1297    4.0736 C   0  0  0  0  0  0  0  0  0  0  0  0
    4.9172   -9.8260    3.5859 C   0  0  0  0  0  0  0  0  0  0  0  0
    6.0381   -9.7833    3.0809 O   0  0  0  0  0  0  0  0  0  0  0  0
    3.9867   -8.6210    3.8250 C   0  0  2  0  0  0  0  0  0  0  0  0
    4.3052   -8.1472    5.1179 O   0  0  0  0  0  0  0  0  0  0  0  0
    2.6510   -9.3893    3.9013 C   0  0  2  0  0  0  0  0  0  0  0  0
    1.5444   -8.4876    4.3774 C   0  0  0  0  0  0  0  0  0  0  0  0
    1.4973   -7.2257    3.9358 C   0  0  0  0  0  0  0  0  0  0  0  0
    2.5008   -6.6273    2.9361 C   0  0  1  0  0  0  0  0  0  0  0  0
    2.3487   -5.0632    2.7959 C   0  0  2  0  0  0  0  0  0  0  0  0
    2.7126   -4.5547    1.3747 C   0  0  0  0  0  0  0  0  0  0  0  0
    2.6151   -3.0550    1.2122 C   0  0  0  0  0  0  0  0  0  0  0  0
    2.3493   -2.1896    2.2045 C   0  0  0  0  0  0  0  0  0  0  0  0
    2.1971   -0.7817    1.8598 C   0  0  0  0  0  0  0  0  0  0  0  0
    1.9681    0.1769    2.7760 C   0  0  0  0  0  0  0  0  0  0  0  0
    1.7672    1.6317    2.3908 C   0  0  0  0  0  0  0  0  0  0  0  0
    1.8782   -0.1464    4.2573 C   0  0  0  0  0  0  0  0  0  0  0  0
    2.5698   -1.4864    4.5954 C   0  0  0  0  0  0  0  0  0  0  0  0
    2.1636   -2.6591    3.6520 C   0  0  1  0  0  0  0  0  0  0  0  0
    0.7664   -2.7575    3.8738 O   0  0  0  0  0  0  0  0  0  0  0  0
    2.8302   -4.0917    3.9431 C   0  0  1  0  0  0  0  0  0  0  0  0
    2.3460   -4.5978    5.3327 C   0  0  0  0  0  0  0  0  0  0  0  0
    4.3996   -4.0352    3.9404 C   0  0  1  0  0  0  0  0  0  0  0  0
    4.9036   -3.2317    4.9944 O   0  0  0  0  0  0  0  0  0  0  0  0
    5.1583   -5.3670    4.1271 C   0  0  0  0  0  0  0  0  0  0  0  0
    5.1349   -6.3649    2.9470 C   0  0  1  0  0  0  0  0  0  0  0  0
    6.3820   -7.0227    2.9533 O   0  0  0  0  0  0  0  0  0  0  0  0
    3.9215   -7.3733    2.8161 C   0  0  1  0  0  0  0  0  0  0  0  0
    4.0017   -7.9131    1.3493 C   0  0  0  0  0  0  0  0  0  0  0  0
    0.6139  -11.0002    2.9467 H   0  0  0  0  0  0  0  0  0  0  0  0
    0.2172  -12.7062    3.5255 H   0  0  0  0  0  0  0  0  0  0  0  0
    2.0611  -12.7256    5.0257 H   0  0  0  0  0  0  0  0  0  0  0  0
    2.5218  -11.1597    6.5065 H   0  0  0  0  0  0  0  0  0  0  0  0
    4.9137  -11.6152    4.8159 H   0  0  0  0  0  0  0  0  0  0  0  0
    4.1768  -11.8085    3.2244 H   0  0  0  0  0  0  0  0  0  0  0  0
    4.1301   -8.8628    5.7195 H   0  0  0  0  0  0  0  0  0  0  0  0
    2.3689   -9.6483    2.8814 H   0  0  0  0  0  0  0  0  0  0  0  0
    0.8065   -8.9051    5.0532 H   0  0  0  0  0  0  0  0  0  0  0  0
    0.6770   -6.5947    4.2438 H   0  0  0  0  0  0  0  0  0  0  0  0
    1.9715   -6.9521    2.0394 H   0  0  0  0  0  0  0  0  0  0  0  0
    1.2644   -4.9438    2.8023 H   0  0  0  0  0  0  0  0  0  0  0  0
    3.7125   -4.8255    1.0611 H   0  0  0  0  0  0  0  0  0  0  0  0
    2.0426   -5.0079    0.6433 H   0  0  0  0  0  0  0  0  0  0  0  0
    2.7428   -2.6903    0.2025 H   0  0  0  0  0  0  0  0  0  0  0  0
    2.2541   -0.4860    0.8239 H   0  0  0  0  0  0  0  0  0  0  0  0
    0.8044    1.9991    2.7504 H   0  0  0  0  0  0  0  0  0  0  0  0
    1.7826    1.7495    1.3066 H   0  0  0  0  0  0  0  0  0  0  0  0
    2.5581    2.2582    2.8078 H   0  0  0  0  0  0  0  0  0  0  0  0
    2.3523    0.6527    4.8277 H   0  0  0  0  0  0  0  0  0  0  0  0
    0.8245   -0.1570    4.5449 H   0  0  0  0  0  0  0  0  0  0  0  0
    3.6310   -1.2778    4.4869 H   0  0  0  0  0  0  0  0  0  0  0  0
    2.4037   -1.7294    5.6444 H   0  0  0  0  0  0  0  0  0  0  0  0
    0.3815   -1.9506    3.5639 H   0  0  0  0  0  0  0  0  0  0  0  0
    2.6045   -3.9115    6.1377 H   0  0  0  0  0  0  0  0  0  0  0  0
    2.7746   -5.5646    5.5929 H   0  0  0  0  0  0  0  0  0  0  0  0
    1.2630   -4.7181    5.3617 H   0  0  0  0  0  0  0  0  0  0  0  0
    4.7430   -3.5754    3.0160 H   0  0  0  0  0  0  0  0  0  0  0  0
    4.6621   -3.6342    5.8158 H   0  0  0  0  0  0  0  0  0  0  0  0
    6.2028   -5.0764    4.2484 H   0  0  0  0  0  0  0  0  0  0  0  0
    4.9123   -5.8240    5.0796 H   0  0  0  0  0  0  0  0  0  0  0  0
    5.2231   -5.7704    2.0437 H   0  0  0  0  0  0  0  0  0  0  0  0
    6.4023   -7.6272    3.6821 H   0  0  0  0  0  0  0  0  0  0  0  0
    3.8802   -7.1112    0.6181 H   0  0  0  0  0  0  0  0  0  0  0  0
    3.2220   -8.6465    1.1360 H   0  0  0  0  0  0  0  0  0  0  0  0
    4.9582   -8.3889    1.1267 H   0  0  0  0  0  0  0  0  0  0  0  0
  1  2  2  0
  1 34  1  0
  1 35  1  0
  2  3  1  0
  2 36  1  0
  3 10  1  0
  3  4  1  1
  3  5  1  0
  4 37  1  0
  5  6  1  0
  5 38  1  0
  5 39  1  0
  6  7  2  0
  6  8  1  0
  8 32  1  0
  8  9  1  1
  8 10  1  0
  9 40  1  0
 10 11  1  0
 10 41  1  6
 11 12  2  0
 11 42  1  0
 12 13  1  0
 12 43  1  0
 13 32  1  0
 13 14  1  0
 13 44  1  6
 14 25  1  0
 14 15  1  0
 14 45  1  6
 15 16  1  0
 15 46  1  0
 15 47  1  0
 16 17  2  0
 16 48  1  0
 17 23  1  0
 17 18  1  0
 18 19  2  0
 18 49  1  0
 19 20  1  0
 19 21  1  0
 20 50  1  0
 20 51  1  0
 20 52  1  0
 21 22  1  0
 21 53  1  0
 21 54  1  0
 22 23  1  0
 22 55  1  0
 22 56  1  0
 23 24  1  6
 23 25  1  0
 24 57  1  0
 25 26  1  1
 25 27  1  0
 26 58  1  0
 26 59  1  0
 26 60  1  0
 27 28  1  0
 27 29  1  0
 27 61  1  6
 28 62  1  0
 29 30  1  0
 29 63  1  0
 29 64  1  0
 30 31  1  0
 30 32  1  0
 30 65  1  6
 31 66  1  0
 32 33  1  6
 33 67  1  0
 33 68  1  0
 33 69  1  0
M  END
>  <i_m_ct_stereo_status>  (260) 
1

>  <s_m_source_file>  (260) 
/var/tmp/pbs.5076255.sched01/tmplj_yfvzq/807e0r74np.sdf

>  <i_m_source_file_index>  (260) 
27

>  <i_lp_mmshare_version>  (260) 
48012

>  <i_f3d_flags>  (260) 
0

>  <s_epik_input>  (260) 
Tz1DMVtDSDJdW0NAXShbT0hdKShbQ0hdPVtDSDJdKVtDQEhdKFtDQEBdMTJbT0hdKVtDSF09W0NIXVtDQEhdM1tDQEhdNFtDQEBdKFtDSDNdKShbQ0BASF0oW09IXSlbQ0gyXVtDQEBIXShbT0hdKVtDQEBdMjNbQ0gzXSlbQ0BdNShbT0hdKUMoPVtDSF1bQ0gyXTQpW0NIXT1DKFtDSDNdKVtDSDJdW0NIMl01

>  <s_epik_cmdline>  (260) 
J2VwaWtfcHl0aG9uJywgJy1waHQnLCAnMi4wJywgJy1waCcsICc3LjAnLCAnLXRuJywgJzgnLCAnLW1hJywgJzIwMCcsICctaW1hZScsICc8aW5maWxlLm1hZT4nLCAnLW9tYWUnLCAnPG91dGZpbGUubWFlPic=

>  <r_lp_tautomer_probability>  (260) 
1

>  <r_epik_Ionization_Penalty>  (260) 
5.40614e-07

>  <r_epik_Ionization_Penalty_Charging>  (260) 
0

>  <r_epik_Ionization_Penalty_Neutral>  (260) 
5.40614e-07

>  <r_epik_State_Penalty>  (260) 
-0

>  <r_epik_Charging_Adjusted_Penalty>  (260) 
0

>  <i_epik_Tot_Q>  (260) 
0

>  <i_epik_Tot_abs_Q>  (260) 
0

>  <s_lp_Force_Field>  (260) 
OPLS3e

>  <r_lp_Energy>  (260) 
67.5546

>  <b_lp_Chiralities_Consistent>  (260) 
1

>  <s_lp_Variant>  (260) 
77:0-1

>  <s_i_glide_gridfile>  (260) 
pfpi4k_grid

>  <i_i_glide_lignum>  (260) 
27

>  <i_i_glide_rotatable_bonds>  (260) 
6

>  <r_i_docking_score>  (260) 
-2.50997

>  <r_i_glide_ligand_efficiency>  (260) 
-0.0760596

>  <r_i_glide_ligand_efficiency_sa>  (260) 
-0.243964

>  <r_i_glide_ligand_efficiency_ln>  (260) 
-0.558204

>  <r_i_glide_gscore>  (260) 
-2.50997

>  <r_i_glide_lipo>  (260) 
-0.0367115

>  <r_i_glide_hbond>  (260) 
0

>  <r_i_glide_metal>  (260) 
-0

>  <r_i_glide_rewards>  (260) 
-0.796106

>  <r_i_glide_evdw>  (260) 
-24.6728

>  <r_i_glide_ecoul>  (260) 
-3.54386

>  <r_i_glide_erotb>  (260) 
0.0964133

>  <r_i_glide_esite>  (260) 
-0.00834278

>  <r_i_glide_emodel>  (260) 
-36.8746

>  <r_i_glide_energy>  (260) 
-28.2167

>  <r_i_glide_einternal>  (260) 
2.89644

>  <r_i_glide_intrahb_reward>  (260) 
-0.5

>  <i_i_glide_confnum>  (260) 
5

>  <i_i_glide_posenum>  (260) 
12

>  <r_i_glide_eff_state_penalty>  (260) 
0

>  <ligand_id>  (260) 
77

>  <original_smiles>  (260) 
C=CC1(O)CC(=O)C2(O)C1C=CC1C3CC=C4C=C(C)CCC4(O)C3(C)C(O)CC(O)C12C

>  <smiles>  (260) 
[H]OC1([H])C([H])([H])C([H])(O[H])C2(C([H])([H])[H])C3(O[H])C(=C([H])C([H])([H])C2([H])C2([H])C([H])=C([H])C4([H])C(O[H])(C([H])=C([H])[H])C([H])([H])C(=O)C4(O[H])C12C([H])([H])[H])C([H])=C(C([H])([H])[H])C([H])([H])C3([H])[H]

$$$$
78:0:0
     RDKit          3D

 79 87  0  0  1  0  0  0  0  0999 V2000
    2.1988    4.6527    2.9955 C   0  0  0  0  0  0  0  0  0  0  0  0
    1.4092    3.3989    3.3189 C   0  0  0  0  0  0  0  0  0  0  0  0
    0.0887    3.2616    3.3593 C   0  0  0  0  0  0  0  0  0  0  0  0
   -0.3307    1.8525    3.6510 C   0  0  2  0  0  0  0  0  0  0  0  0
   -1.5407    1.7552    4.5742 C   0  0  0  0  0  0  0  0  0  0  0  0
   -1.5331    0.4347    5.3394 C   0  0  1  0  0  0  0  0  0  0  0  0
   -1.5838   -0.6822    4.4804 O   0  0  0  0  0  0  0  0  0  0  0  0
   -0.2975    0.3413    6.2502 C   0  0  2  0  0  0  0  0  0  0  0  0
   -0.4438    1.2690    7.4471 C   0  0  0  0  0  0  0  0  0  0  0  0
   -1.4387    1.3014    8.1687 O   0  0  0  0  0  0  0  0  0  0  0  0
    0.6491    1.9849    7.6045 O   0  0  0  0  0  0  0  0  0  0  0  0
    1.5594    1.8653    6.5338 C   0  0  1  0  0  0  0  0  0  0  0  0
    3.0259    1.9996    7.0230 C   0  0  0  0  0  0  0  0  0  0  0  0
    3.4884    0.9207    7.9990 C   0  0  0  0  0  0  0  0  0  0  0  0
    3.6783    1.1969    9.1825 O   0  0  0  0  0  0  0  0  0  0  0  0
    3.7144   -0.5124    7.4838 C   0  0  2  0  0  0  0  0  0  0  0  0
    4.3343   -0.4976    6.1981 O   0  0  0  0  0  0  0  0  0  0  0  0
    3.3879   -0.5417    5.1663 C   0  0  1  0  0  0  0  0  0  0  0  0
    3.5754   -1.6359    4.3117 O   0  0  0  0  0  0  0  0  0  0  0  0
    3.8983   -1.3266    2.9530 C   0  0  2  0  0  0  0  0  0  0  0  0
    3.2806   -2.4311    2.0494 C   0  0  0  0  0  0  0  0  0  0  0  0
    3.9699   -2.5166    0.6640 C   0  0  1  0  0  0  0  0  0  0  0  0
    3.5455   -3.6531   -0.1031 O   0  0  0  0  0  0  0  0  0  0  0  0
    4.6998   -4.3392   -0.6144 C   0  0  0  0  0  0  0  0  0  0  0  0
    5.7995   -3.2805   -0.5679 C   0  0  1  0  0  0  0  0  0  0  0  0
    5.5201   -2.3104   -1.7038 C   0  0  0  0  0  0  0  0  0  0  0  0
    4.6292   -1.3281   -1.5074 C   0  0  0  0  0  0  0  0  0  0  0  0
    4.0032   -1.1701   -0.1312 C   0  0  2  0  0  0  0  0  0  0  0  0
    4.9612   -0.4141    0.5985 O   0  0  0  0  0  0  0  0  0  0  0  0
    5.8373   -1.3099    1.2919 C   0  0  1  0  0  0  0  0  0  0  0  0
    5.4317   -1.1985    2.7810 C   0  0  1  0  0  0  0  0  0  0  0  0
    5.8728    0.0463    3.2790 O   0  0  0  0  0  0  0  0  0  0  0  0
    5.4525   -2.7234    0.8248 C   0  0  1  0  0  0  0  0  0  0  0  0
    1.9901   -0.6820    5.8308 C   0  0  1  0  0  0  0  0  0  0  0  0
    2.4134   -1.2786    7.2210 C   0  0  0  0  0  0  0  0  0  0  0  0
    2.7520   -2.7886    7.0707 C   0  0  0  0  0  0  0  0  0  0  0  0
    1.4262   -1.2586    8.4188 C   0  0  0  0  0  0  0  0  0  0  0  0
    1.1102    0.6503    5.6462 C   0  0  1  0  0  0  0  0  0  0  0  0
    0.9849    1.1187    4.1019 C   0  0  1  0  0  0  0  0  0  0  0  0
    0.9790   -0.0409    3.2855 O   0  0  0  0  0  0  0  0  0  0  0  0
    2.1066    2.1013    3.6013 C   0  0  0  0  0  0  0  0  0  0  0  0
    2.8269    4.4921    2.1177 H   0  0  0  0  0  0  0  0  0  0  0  0
    2.8371    4.9232    3.8367 H   0  0  0  0  0  0  0  0  0  0  0  0
    1.5330    5.4926    2.7837 H   0  0  0  0  0  0  0  0  0  0  0  0
   -0.6242    4.0378    3.1286 H   0  0  0  0  0  0  0  0  0  0  0  0
   -0.6590    1.4770    2.6784 H   0  0  0  0  0  0  0  0  0  0  0  0
   -1.5483    2.5902    5.2764 H   0  0  0  0  0  0  0  0  0  0  0  0
   -2.4631    1.8460    3.9950 H   0  0  0  0  0  0  0  0  0  0  0  0
   -2.4399    0.3827    5.9422 H   0  0  0  0  0  0  0  0  0  0  0  0
   -0.8051   -0.6582    3.9309 H   0  0  0  0  0  0  0  0  0  0  0  0
   -0.3124   -0.6673    6.6471 H   0  0  0  0  0  0  0  0  0  0  0  0
    1.3541    2.7743    5.9724 H   0  0  0  0  0  0  0  0  0  0  0  0
    3.7312    2.0242    6.1949 H   0  0  0  0  0  0  0  0  0  0  0  0
    3.1319    2.9611    7.5255 H   0  0  0  0  0  0  0  0  0  0  0  0
    4.3514   -1.0316    8.1988 H   0  0  0  0  0  0  0  0  0  0  0  0
    3.5451    0.3827    4.6320 H   0  0  0  0  0  0  0  0  0  0  0  0
    3.4350   -0.3919    2.6327 H   0  0  0  0  0  0  0  0  0  0  0  0
    3.3600   -3.4039    2.5394 H   0  0  0  0  0  0  0  0  0  0  0  0
    2.2152   -2.2382    1.9202 H   0  0  0  0  0  0  0  0  0  0  0  0
    4.9395   -5.1791    0.0416 H   0  0  0  0  0  0  0  0  0  0  0  0
    4.5394   -4.7278   -1.6189 H   0  0  0  0  0  0  0  0  0  0  0  0
    6.8066   -3.6882   -0.6401 H   0  0  0  0  0  0  0  0  0  0  0  0
    5.9940   -2.4812   -2.6607 H   0  0  0  0  0  0  0  0  0  0  0  0
    4.3639   -0.6177   -2.2758 H   0  0  0  0  0  0  0  0  0  0  0  0
    3.0278   -0.6863   -0.1985 H   0  0  0  0  0  0  0  0  0  0  0  0
    6.8882   -1.0847    1.1164 H   0  0  0  0  0  0  0  0  0  0  0  0
    5.9259   -1.9899    3.3420 H   0  0  0  0  0  0  0  0  0  0  0  0
    6.7774    0.1696    3.0218 H   0  0  0  0  0  0  0  0  0  0  0  0
    5.6898   -3.4755    1.5811 H   0  0  0  0  0  0  0  0  0  0  0  0
    1.4513   -1.4749    5.3046 H   0  0  0  0  0  0  0  0  0  0  0  0
    1.8873   -3.3601    6.7315 H   0  0  0  0  0  0  0  0  0  0  0  0
    3.0804   -3.2241    8.0168 H   0  0  0  0  0  0  0  0  0  0  0  0
    3.5630   -2.9766    6.3673 H   0  0  0  0  0  0  0  0  0  0  0  0
    0.4976   -1.7779    8.1913 H   0  0  0  0  0  0  0  0  0  0  0  0
    1.1920   -0.2683    8.7916 H   0  0  0  0  0  0  0  0  0  0  0  0
    1.8554   -1.7769    9.2774 H   0  0  0  0  0  0  0  0  0  0  0  0
    1.0364    0.2364    2.3811 H   0  0  0  0  0  0  0  0  0  0  0  0
    2.5919    1.7689    2.6837 H   0  0  0  0  0  0  0  0  0  0  0  0
    2.8867    2.3345    4.3161 H   0  0  0  0  0  0  0  0  0  0  0  0
  1  2  1  0
  1 42  1  0
  1 43  1  0
  1 44  1  0
  2 41  1  0
  2  3  2  0
  3  4  1  0
  3 45  1  0
  4 39  1  0
  4  5  1  0
  4 46  1  6
  5  6  1  0
  5 47  1  0
  5 48  1  0
  6  7  1  0
  6  8  1  0
  6 49  1  1
  7 50  1  0
  8 38  1  0
  8  9  1  0
  8 51  1  1
  9 10  2  0
  9 11  1  0
 11 12  1  0
 12 38  1  0
 12 13  1  0
 12 52  1  6
 13 14  1  0
 13 53  1  0
 13 54  1  0
 14 15  2  0
 14 16  1  0
 16 35  1  0
 16 17  1  0
 16 55  1  1
 17 18  1  0
 18 19  1  0
 18 34  1  0
 18 56  1  6
 19 20  1  0
 20 31  1  0
 20 21  1  0
 20 57  1  6
 21 22  1  0
 21 58  1  0
 21 59  1  0
 22 28  1  0
 22 33  1  0
 22 23  1  6
 23 24  1  0
 24 25  1  0
 24 60  1  0
 24 61  1  0
 25 33  1  0
 25 26  1  0
 25 62  1  1
 26 27  2  0
 26 63  1  0
 27 28  1  0
 27 64  1  0
 28 29  1  0
 28 65  1  6
 29 30  1  0
 30 31  1  0
 30 33  1  0
 30 66  1  1
 31 32  1  0
 31 67  1  1
 32 68  1  0
 33 69  1  1
 34 35  1  0
 34 38  1  0
 34 70  1  6
 35 36  1  0
 35 37  1  0
 36 71  1  0
 36 72  1  0
 36 73  1  0
 37 74  1  0
 37 75  1  0
 37 76  1  0
 38 39  1  6
 39 40  1  6
 39 41  1  0
 40 77  1  0
 41 78  1  0
 41 79  1  0
M  END
>  <i_m_ct_stereo_status>  (261) 
1

>  <s_m_source_file>  (261) 
/var/tmp/pbs.5076255.sched01/tmplj_yfvzq/807e0r74np.sdf

>  <i_m_source_file_index>  (261) 
28

>  <i_lp_mmshare_version>  (261) 
48012

>  <i_f3d_flags>  (261) 
0

>  <s_epik_input>  (261) 
W0NIM11DKD1bQ0hdMSlbQ0gyXVtDQF0yKFtPSF0pW0NASF0xW0NIMl1bQ0BASF0oW09IXSlbQ0BASF0oW0NAQF0yMzQpQyg9TylPW0NASF0zW0NIMl1DKD1PKVtDQEBIXTVPW0NASF0oW0NASF00QzUoW0NIM10pW0NIM10pT1tDQEhdKFtDSDJdNilbQ0BIXShbT0hdKVtDQEhdKE83KVtDQEBIXThbQ0BASF0oW0NIMl1POSlbQ0hdPVtDSF1bQ0BIXTdbQ0BdNjg5

>  <s_epik_cmdline>  (261) 
J2VwaWtfcHl0aG9uJywgJy1waHQnLCAnMi4wJywgJy1waCcsICc3LjAnLCAnLXRuJywgJzgnLCAnLW1hJywgJzIwMCcsICctaW1hZScsICc8aW5maWxlLm1hZT4nLCAnLW9tYWUnLCAnPG91dGZpbGUubWFlPic=

>  <r_lp_tautomer_probability>  (261) 
1

>  <r_epik_Ionization_Penalty>  (261) 
2.50749e-07

>  <r_epik_Ionization_Penalty_Charging>  (261) 
0

>  <r_epik_Ionization_Penalty_Neutral>  (261) 
2.50749e-07

>  <r_epik_State_Penalty>  (261) 
-0

>  <r_epik_Charging_Adjusted_Penalty>  (261) 
0

>  <i_epik_Tot_Q>  (261) 
0

>  <i_epik_Tot_abs_Q>  (261) 
0

>  <s_epik_Chemistry_Notes>  (261) 
This compound has an ester and may undergo hydrolysis at high or low pH. This compound contains an acetal/aminal-like group ( X-CH(R)-Y where X, Y are N, S, or O) that may be acid/base labile, releasing an aldehyde.

>  <s_lp_Force_Field>  (261) 
OPLS3e

>  <r_lp_Energy>  (261) 
62.8914

>  <b_lp_Chiralities_Consistent>  (261) 
1

>  <s_lp_Variant>  (261) 
78:0-1

>  <s_i_glide_gridfile>  (261) 
pfpi4k_grid

>  <i_i_glide_lignum>  (261) 
28

>  <i_i_glide_rotatable_bonds>  (261) 
5

>  <r_i_docking_score>  (261) 
-3.17307

>  <r_i_glide_ligand_efficiency>  (261) 
-0.077392

>  <r_i_glide_ligand_efficiency_sa>  (261) 
-0.266865

>  <r_i_glide_ligand_efficiency_ln>  (261) 
-0.673178

>  <r_i_glide_gscore>  (261) 
-3.17307

>  <r_i_glide_lipo>  (261) 
-0.389256

>  <r_i_glide_hbond>  (261) 
-0.0442923

>  <r_i_glide_metal>  (261) 
-0

>  <r_i_glide_rewards>  (261) 
-0.5

>  <r_i_glide_evdw>  (261) 
-34.1489

>  <r_i_glide_ecoul>  (261) 
-3.62242

>  <r_i_glide_erotb>  (261) 
0.0376101

>  <r_i_glide_esite>  (261) 
-0.0263286

>  <r_i_glide_emodel>  (261) 
-48.6059

>  <r_i_glide_energy>  (261) 
-37.7713

>  <r_i_glide_einternal>  (261) 
6.41871

>  <r_i_glide_intrahb_reward>  (261) 
-0.5

>  <i_i_glide_confnum>  (261) 
2

>  <i_i_glide_posenum>  (261) 
7

>  <r_i_glide_eff_state_penalty>  (261) 
0

>  <ligand_id>  (261) 
78

>  <original_smiles>  (261) 
CC1=CC2CC(O)C3C(=O)OC4CC(=O)C5OC(OC6CC78OCC9C=CC7OC(C6O)C98)C(C5(C)C)C43C2(O)C1

>  <smiles>  (261) 
[H]OC1([H])C([H])(OC2([H])OC3([H])C(=O)C([H])([H])C4([H])OC(=O)C5([H])C([H])(O[H])C([H])([H])C6([H])C([H])=C(C([H])([H])[H])C([H])([H])C6(O[H])C45C2([H])C3(C([H])([H])[H])C([H])([H])[H])C([H])([H])C23OC([H])([H])C4([H])C([H])=C([H])C2([H])OC1([H])C43[H]

$$$$
78:0:1
     RDKit          3D

 79 87  0  0  1  0  0  0  0  0999 V2000
    2.1948    4.5869    2.9814 C   0  0  0  0  0  0  0  0  0  0  0  0
    1.3680    3.3579    3.3061 C   0  0  0  0  0  0  0  0  0  0  0  0
    0.0446    3.2665    3.3777 C   0  0  0  0  0  0  0  0  0  0  0  0
   -0.4177    1.8677    3.6572 C   0  0  2  0  0  0  0  0  0  0  0  0
   -1.6076    1.8009    4.6099 C   0  0  0  0  0  0  0  0  0  0  0  0
   -1.6302    0.4674    5.3552 C   0  0  1  0  0  0  0  0  0  0  0  0
   -1.7387   -0.6376    4.4808 O   0  0  0  0  0  0  0  0  0  0  0  0
   -0.3768    0.3183    6.2319 C   0  0  2  0  0  0  0  0  0  0  0  0
   -0.4575    1.2332    7.4455 C   0  0  0  0  0  0  0  0  0  0  0  0
   -1.4313    1.2894    8.1932 O   0  0  0  0  0  0  0  0  0  0  0  0
    0.6651    1.9041    7.5854 O   0  0  0  0  0  0  0  0  0  0  0  0
    1.5426    1.7674    6.4909 C   0  0  1  0  0  0  0  0  0  0  0  0
    3.0245    1.8403    6.9437 C   0  0  0  0  0  0  0  0  0  0  0  0
    3.4709    0.7287    7.8896 C   0  0  0  0  0  0  0  0  0  0  0  0
    3.7008    0.9762    9.0724 O   0  0  0  0  0  0  0  0  0  0  0  0
    3.6327   -0.7008    7.3426 C   0  0  2  0  0  0  0  0  0  0  0  0
    4.2180   -0.6783    6.0381 O   0  0  0  0  0  0  0  0  0  0  0  0
    3.2371   -0.6814    5.0387 C   0  0  1  0  0  0  0  0  0  0  0  0
    3.3694   -1.7637    4.1590 O   0  0  0  0  0  0  0  0  0  0  0  0
    3.8171   -1.4548    2.8361 C   0  0  2  0  0  0  0  0  0  0  0  0
    3.2186   -2.5129    1.8678 C   0  0  0  0  0  0  0  0  0  0  0  0
    4.0103   -2.6148    0.5397 C   0  0  1  0  0  0  0  0  0  0  0  0
    3.5898   -3.7170   -0.2776 O   0  0  0  0  0  0  0  0  0  0  0  0
    4.7427   -4.4538   -0.7143 C   0  0  0  0  0  0  0  0  0  0  0  0
    5.8893   -3.4542   -0.5617 C   0  0  1  0  0  0  0  0  0  0  0  0
    5.7514   -2.4561   -1.6979 C   0  0  0  0  0  0  0  0  0  0  0  0
    4.8976   -1.4329   -1.5536 C   0  0  0  0  0  0  0  0  0  0  0  0
    4.1738   -1.2626   -0.2280 C   0  0  2  0  0  0  0  0  0  0  0  0
    5.1056   -0.5661    0.5875 O   0  0  0  0  0  0  0  0  0  0  0  0
    5.8819   -1.5130    1.3305 C   0  0  1  0  0  0  0  0  0  0  0  0
    5.3678   -1.3994    2.7845 C   0  0  1  0  0  0  0  0  0  0  0  0
    5.8167   -0.1844    3.3380 O   0  0  0  0  0  0  0  0  0  0  0  0
    5.4644   -2.8988    0.8105 C   0  0  1  0  0  0  0  0  0  0  0  0
    1.8567   -0.7856    5.7397 C   0  0  1  0  0  0  0  0  0  0  0  0
    2.2964   -1.4163    7.1076 C   0  0  0  0  0  0  0  0  0  0  0  0
    2.5732   -2.9350    6.9257 C   0  0  0  0  0  0  0  0  0  0  0  0
    1.3401   -1.3786    8.3306 C   0  0  0  0  0  0  0  0  0  0  0  0
    1.0261    0.5834    5.5966 C   0  0  1  0  0  0  0  0  0  0  0  0
    0.8829    1.0809    4.0627 C   0  0  1  0  0  0  0  0  0  0  0  0
    0.8386   -0.0637    3.2258 O   0  0  0  0  0  0  0  0  0  0  0  0
    2.0253    2.0335    3.5505 C   0  0  0  0  0  0  0  0  0  0  0  0
    2.7941    4.4161    2.0854 H   0  0  0  0  0  0  0  0  0  0  0  0
    2.8650    4.8196    3.8091 H   0  0  0  0  0  0  0  0  0  0  0  0
    1.5566    5.4536    2.7987 H   0  0  0  0  0  0  0  0  0  0  0  0
   -0.6435    4.0722    3.1778 H   0  0  0  0  0  0  0  0  0  0  0  0
   -0.7819    1.5177    2.6882 H   0  0  0  0  0  0  0  0  0  0  0  0
   -1.5668    2.6247    5.3244 H   0  0  0  0  0  0  0  0  0  0  0  0
   -2.5408    1.9375    4.0573 H   0  0  0  0  0  0  0  0  0  0  0  0
   -2.5230    0.4424    5.9816 H   0  0  0  0  0  0  0  0  0  0  0  0
   -0.9807   -0.6195    3.9061 H   0  0  0  0  0  0  0  0  0  0  0  0
   -0.4206   -0.6933    6.6156 H   0  0  0  0  0  0  0  0  0  0  0  0
    1.3564    2.6920    5.9485 H   0  0  0  0  0  0  0  0  0  0  0  0
    3.7087    1.8534    6.0980 H   0  0  0  0  0  0  0  0  0  0  0  0
    3.1784    2.7888    7.4588 H   0  0  0  0  0  0  0  0  0  0  0  0
    4.2687   -1.2551    8.0317 H   0  0  0  0  0  0  0  0  0  0  0  0
    3.3923    0.2460    4.5139 H   0  0  0  0  0  0  0  0  0  0  0  0
    3.4101   -0.4986    2.4999 H   0  0  0  0  0  0  0  0  0  0  0  0
    3.2102   -3.4952    2.3444 H   0  0  0  0  0  0  0  0  0  0  0  0
    2.1771   -2.2640    1.6583 H   0  0  0  0  0  0  0  0  0  0  0  0
    4.8913   -5.3136   -0.0580 H   0  0  0  0  0  0  0  0  0  0  0  0
    4.6256   -4.8221   -1.7335 H   0  0  0  0  0  0  0  0  0  0  0  0
    6.8799   -3.9060   -0.5603 H   0  0  0  0  0  0  0  0  0  0  0  0
    6.2948   -2.6403   -2.6156 H   0  0  0  0  0  0  0  0  0  0  0  0
    4.7278   -0.6986   -2.3268 H   0  0  0  0  0  0  0  0  0  0  0  0
    3.2331   -0.7285   -0.3613 H   0  0  0  0  0  0  0  0  0  0  0  0
    6.9529   -1.3353    1.2463 H   0  0  0  0  0  0  0  0  0  0  0  0
    5.7914   -2.2078    3.3800 H   0  0  0  0  0  0  0  0  0  0  0  0
    5.5267   -0.1497    4.2371 H   0  0  0  0  0  0  0  0  0  0  0  0
    5.6038   -3.6722    1.5703 H   0  0  0  0  0  0  0  0  0  0  0  0
    1.2753   -1.5495    5.2164 H   0  0  0  0  0  0  0  0  0  0  0  0
    1.6785   -3.4677    6.6013 H   0  0  0  0  0  0  0  0  0  0  0  0
    2.9084   -3.3980    7.8564 H   0  0  0  0  0  0  0  0  0  0  0  0
    3.3574   -3.1418    6.1977 H   0  0  0  0  0  0  0  0  0  0  0  0
    0.3872   -1.8593    8.1193 H   0  0  0  0  0  0  0  0  0  0  0  0
    1.1519   -0.3866    8.7244 H   0  0  0  0  0  0  0  0  0  0  0  0
    1.7701   -1.9264    9.1702 H   0  0  0  0  0  0  0  0  0  0  0  0
    0.9012    0.2258    2.3250 H   0  0  0  0  0  0  0  0  0  0  0  0
    2.4735    1.6976    2.6151 H   0  0  0  0  0  0  0  0  0  0  0  0
    2.8311    2.2281    4.2478 H   0  0  0  0  0  0  0  0  0  0  0  0
  1  2  1  0
  1 42  1  0
  1 43  1  0
  1 44  1  0
  2 41  1  0
  2  3  2  0
  3  4  1  0
  3 45  1  0
  4 39  1  0
  4  5  1  0
  4 46  1  6
  5  6  1  0
  5 47  1  0
  5 48  1  0
  6  7  1  0
  6  8  1  0
  6 49  1  1
  7 50  1  0
  8 38  1  0
  8  9  1  0
  8 51  1  1
  9 10  2  0
  9 11  1  0
 11 12  1  0
 12 38  1  0
 12 13  1  0
 12 52  1  6
 13 14  1  0
 13 53  1  0
 13 54  1  0
 14 15  2  0
 14 16  1  0
 16 35  1  0
 16 17  1  0
 16 55  1  1
 17 18  1  0
 18 19  1  0
 18 34  1  0
 18 56  1  6
 19 20  1  0
 20 31  1  0
 20 21  1  0
 20 57  1  6
 21 22  1  0
 21 58  1  0
 21 59  1  0
 22 28  1  0
 22 33  1  0
 22 23  1  6
 23 24  1  0
 24 25  1  0
 24 60  1  0
 24 61  1  0
 25 33  1  0
 25 26  1  0
 25 62  1  1
 26 27  2  0
 26 63  1  0
 27 28  1  0
 27 64  1  0
 28 29  1  0
 28 65  1  6
 29 30  1  0
 30 31  1  0
 30 33  1  0
 30 66  1  1
 31 32  1  0
 31 67  1  1
 32 68  1  0
 33 69  1  1
 34 35  1  0
 34 38  1  0
 34 70  1  6
 35 36  1  0
 35 37  1  0
 36 71  1  0
 36 72  1  0
 36 73  1  0
 37 74  1  0
 37 75  1  0
 37 76  1  0
 38 39  1  6
 39 40  1  6
 39 41  1  0
 40 77  1  0
 41 78  1  0
 41 79  1  0
M  END
>  <i_m_ct_stereo_status>  (262) 
1

>  <s_m_source_file>  (262) 
/var/tmp/pbs.5076255.sched01/tmplj_yfvzq/807e0r74np.sdf

>  <i_m_source_file_index>  (262) 
28

>  <i_lp_mmshare_version>  (262) 
48012

>  <i_f3d_flags>  (262) 
0

>  <s_epik_input>  (262) 
W0NIM11DKD1bQ0hdMSlbQ0gyXVtDQF0yKFtPSF0pW0NASF0xW0NIMl1bQ0BASF0oW09IXSlbQ0BASF0oW0NAQF0yMzQpQyg9TylPW0NASF0zW0NIMl1DKD1PKVtDQEBIXTVPW0NASF0oW0NASF00QzUoW0NIM10pW0NIM10pT1tDQEhdKFtDSDJdNilbQ0BIXShbT0hdKVtDQEhdKE83KVtDQEBIXThbQ0BASF0oW0NIMl1POSlbQ0hdPVtDSF1bQ0BIXTdbQ0BdNjg5

>  <s_epik_cmdline>  (262) 
J2VwaWtfcHl0aG9uJywgJy1waHQnLCAnMi4wJywgJy1waCcsICc3LjAnLCAnLXRuJywgJzgnLCAnLW1hJywgJzIwMCcsICctaW1hZScsICc8aW5maWxlLm1hZT4nLCAnLW9tYWUnLCAnPG91dGZpbGUubWFlPic=

>  <r_lp_tautomer_probability>  (262) 
1

>  <r_epik_Ionization_Penalty>  (262) 
2.50749e-07

>  <r_epik_Ionization_Penalty_Charging>  (262) 
0

>  <r_epik_Ionization_Penalty_Neutral>  (262) 
2.50749e-07

>  <r_epik_State_Penalty>  (262) 
-0

>  <r_epik_Charging_Adjusted_Penalty>  (262) 
0

>  <i_epik_Tot_Q>  (262) 
0

>  <i_epik_Tot_abs_Q>  (262) 
0

>  <s_epik_Chemistry_Notes>  (262) 
This compound has an ester and may undergo hydrolysis at high or low pH. This compound contains an acetal/aminal-like group ( X-CH(R)-Y where X, Y are N, S, or O) that may be acid/base labile, releasing an aldehyde.

>  <s_lp_Force_Field>  (262) 
OPLS3e

>  <r_lp_Energy>  (262) 
62.8914

>  <b_lp_Chiralities_Consistent>  (262) 
1

>  <s_lp_Variant>  (262) 
78:0-1

>  <s_i_glide_gridfile>  (262) 
pfpi4k_grid

>  <i_i_glide_lignum>  (262) 
28

>  <i_i_glide_rotatable_bonds>  (262) 
5

>  <r_i_docking_score>  (262) 
-2.95136

>  <r_i_glide_ligand_efficiency>  (262) 
-0.0719845

>  <r_i_glide_ligand_efficiency_sa>  (262) 
-0.248218

>  <r_i_glide_ligand_efficiency_ln>  (262) 
-0.626142

>  <r_i_glide_gscore>  (262) 
-2.95136

>  <r_i_glide_lipo>  (262) 
-0.393229

>  <r_i_glide_hbond>  (262) 
-0.0439178

>  <r_i_glide_metal>  (262) 
-0

>  <r_i_glide_rewards>  (262) 
-0.5

>  <r_i_glide_evdw>  (262) 
-35.4971

>  <r_i_glide_ecoul>  (262) 
-1.65881

>  <r_i_glide_erotb>  (262) 
0.0376101

>  <r_i_glide_esite>  (262) 
-0.0281499

>  <r_i_glide_emodel>  (262) 
-47.2479

>  <r_i_glide_energy>  (262) 
-37.1559

>  <r_i_glide_einternal>  (262) 
6.75086

>  <r_i_glide_intrahb_reward>  (262) 
-0.5

>  <i_i_glide_confnum>  (262) 
2

>  <i_i_glide_posenum>  (262) 
33

>  <r_i_glide_eff_state_penalty>  (262) 
0

>  <ligand_id>  (262) 
78

>  <original_smiles>  (262) 
CC1=CC2CC(O)C3C(=O)OC4CC(=O)C5OC(OC6CC78OCC9C=CC7OC(C6O)C98)C(C5(C)C)C43C2(O)C1

>  <smiles>  (262) 
[H]OC1([H])C([H])(OC2([H])OC3([H])C(=O)C([H])([H])C4([H])OC(=O)C5([H])C([H])(O[H])C([H])([H])C6([H])C([H])=C(C([H])([H])[H])C([H])([H])C6(O[H])C45C2([H])C3(C([H])([H])[H])C([H])([H])[H])C([H])([H])C23OC([H])([H])C4([H])C([H])=C([H])C2([H])OC1([H])C43[H]

$$$$
78:0:2
     RDKit          3D

 79 87  0  0  1  0  0  0  0  0999 V2000
    2.4039    4.3706    3.0028 C   0  0  0  0  0  0  0  0  0  0  0  0
    1.4282    3.2516    3.2950 C   0  0  0  0  0  0  0  0  0  0  0  0
    0.1612    3.3613    3.6806 C   0  0  0  0  0  0  0  0  0  0  0  0
   -0.5084    2.0227    3.8081 C   0  0  2  0  0  0  0  0  0  0  0  0
   -1.4464    1.9350    5.0093 C   0  0  0  0  0  0  0  0  0  0  0  0
   -1.6006    0.4908    5.4791 C   0  0  1  0  0  0  0  0  0  0  0  0
   -2.1767   -0.3654    4.5066 O   0  0  0  0  0  0  0  0  0  0  0  0
   -0.2433   -0.0686    5.9496 C   0  0  2  0  0  0  0  0  0  0  0  0
    0.1446    0.5280    7.2947 C   0  0  0  0  0  0  0  0  0  0  0  0
   -0.5961    0.5408    8.2761 O   0  0  0  0  0  0  0  0  0  0  0  0
    1.3802    0.9664    7.2587 O   0  0  0  0  0  0  0  0  0  0  0  0
    1.9527    0.9480    5.9700 C   0  0  1  0  0  0  0  0  0  0  0  0
    3.4777    0.6689    6.0306 C   0  0  0  0  0  0  0  0  0  0  0  0
    3.8681   -0.6858    6.6162 C   0  0  0  0  0  0  0  0  0  0  0  0
    4.4110   -0.7557    7.7172 O   0  0  0  0  0  0  0  0  0  0  0  0
    3.5940   -1.9521    5.7932 C   0  0  2  0  0  0  0  0  0  0  0  0
    3.8945   -1.6913    4.4280 O   0  0  0  0  0  0  0  0  0  0  0  0
    2.7537   -1.3465    3.6923 C   0  0  1  0  0  0  0  0  0  0  0  0
    2.4951   -2.2536    2.6598 O   0  0  0  0  0  0  0  0  0  0  0  0
    3.5745   -2.5239    1.7602 C   0  0  2  0  0  0  0  0  0  0  0  0
    3.7848   -1.3419    0.7629 C   0  0  0  0  0  0  0  0  0  0  0  0
    4.4949   -1.7873   -0.5426 C   0  0  1  0  0  0  0  0  0  0  0  0
    4.5458   -0.7673   -1.5514 O   0  0  0  0  0  0  0  0  0  0  0  0
    4.0826   -1.3092   -2.7988 C   0  0  0  0  0  0  0  0  0  0  0  0
    4.2994   -2.8158   -2.6294 C   0  0  1  0  0  0  0  0  0  0  0  0
    5.7954   -3.0615   -2.7112 C   0  0  0  0  0  0  0  0  0  0  0  0
    6.5497   -2.8589   -1.6230 C   0  0  0  0  0  0  0  0  0  0  0  0
    5.8609   -2.5079   -0.3164 C   0  0  2  0  0  0  0  0  0  0  0  0
    5.4586   -3.7635    0.2076 O   0  0  0  0  0  0  0  0  0  0  0  0
    4.1230   -4.0452   -0.2282 C   0  0  1  0  0  0  0  0  0  0  0  0
    3.2560   -3.8675    1.0398 C   0  0  1  0  0  0  0  0  0  0  0  0
    3.4997   -4.9634    1.9004 O   0  0  0  0  0  0  0  0  0  0  0  0
    3.7422   -2.9151   -1.1984 C   0  0  1  0  0  0  0  0  0  0  0  0
    1.5505   -1.3717    4.6899 C   0  0  1  0  0  0  0  0  0  0  0  0
    2.1174   -2.3668    5.7658 C   0  0  0  0  0  0  0  0  0  0  0  0
    2.0121   -3.8270    5.2436 C   0  0  0  0  0  0  0  0  0  0  0  0
    1.4831   -2.4615    7.1811 C   0  0  0  0  0  0  0  0  0  0  0  0
    1.0157    0.1068    5.0314 C   0  0  1  0  0  0  0  0  0  0  0  0
    0.6589    0.9680    3.7095 C   0  0  1  0  0  0  0  0  0  0  0  0
    0.2621    0.0762    2.6836 O   0  0  0  0  0  0  0  0  0  0  0  0
    1.8345    1.8192    3.1136 C   0  0  0  0  0  0  0  0  0  0  0  0
    2.7406    4.3090    1.9674 H   0  0  0  0  0  0  0  0  0  0  0  0
    3.2779    4.2835    3.6487 H   0  0  0  0  0  0  0  0  0  0  0  0
    1.9498    5.3520    3.1528 H   0  0  0  0  0  0  0  0  0  0  0  0
   -0.3601    4.2926    3.8378 H   0  0  0  0  0  0  0  0  0  0  0  0
   -1.1393    1.9603    2.9208 H   0  0  0  0  0  0  0  0  0  0  0  0
   -1.0687    2.5485    5.8300 H   0  0  0  0  0  0  0  0  0  0  0  0
   -2.4239    2.3563    4.7596 H   0  0  0  0  0  0  0  0  0  0  0  0
   -2.3091    0.4939    6.3098 H   0  0  0  0  0  0  0  0  0  0  0  0
   -2.7894    0.1283    3.9610 H   0  0  0  0  0  0  0  0  0  0  0  0
   -0.4199   -1.1203    6.1357 H   0  0  0  0  0  0  0  0  0  0  0  0
    1.8597    1.9923    5.6775 H   0  0  0  0  0  0  0  0  0  0  0  0
    3.9455    0.7600    5.0519 H   0  0  0  0  0  0  0  0  0  0  0  0
    3.9464    1.4358    6.6476 H   0  0  0  0  0  0  0  0  0  0  0  0
    4.2267   -2.7544    6.1717 H   0  0  0  0  0  0  0  0  0  0  0  0
    2.9500   -0.3869    3.2372 H   0  0  0  0  0  0  0  0  0  0  0  0
    4.5049   -2.6737    2.3133 H   0  0  0  0  0  0  0  0  0  0  0  0
    2.8195   -0.9085    0.4991 H   0  0  0  0  0  0  0  0  0  0  0  0
    4.3540   -0.5475    1.2448 H   0  0  0  0  0  0  0  0  0  0  0  0
    3.0196   -1.0871   -2.9222 H   0  0  0  0  0  0  0  0  0  0  0  0
    4.6175   -0.8772   -3.6469 H   0  0  0  0  0  0  0  0  0  0  0  0
    3.7615   -3.4305   -3.3498 H   0  0  0  0  0  0  0  0  0  0  0  0
    6.2288   -3.3476   -3.6585 H   0  0  0  0  0  0  0  0  0  0  0  0
    7.6204   -2.9990   -1.6295 H   0  0  0  0  0  0  0  0  0  0  0  0
    6.5346   -1.9631    0.3449 H   0  0  0  0  0  0  0  0  0  0  0  0
    4.0292   -5.0341   -0.6766 H   0  0  0  0  0  0  0  0  0  0  0  0
    2.2073   -3.8979    0.7496 H   0  0  0  0  0  0  0  0  0  0  0  0
    3.4122   -5.7644    1.4046 H   0  0  0  0  0  0  0  0  0  0  0  0
    2.6620   -2.7482   -1.2184 H   0  0  0  0  0  0  0  0  0  0  0  0
    0.7159   -1.8816    4.2018 H   0  0  0  0  0  0  0  0  0  0  0  0
    0.9759   -4.1182    5.0678 H   0  0  0  0  0  0  0  0  0  0  0  0
    2.4373   -4.5426    5.9503 H   0  0  0  0  0  0  0  0  0  0  0  0
    2.5567   -3.9860    4.3154 H   0  0  0  0  0  0  0  0  0  0  0  0
    0.4259   -2.7179    7.1444 H   0  0  0  0  0  0  0  0  0  0  0  0
    1.6085   -1.5738    7.7901 H   0  0  0  0  0  0  0  0  0  0  0  0
    1.9617   -3.2526    7.7617 H   0  0  0  0  0  0  0  0  0  0  0  0
    0.2100    0.5502    1.8638 H   0  0  0  0  0  0  0  0  0  0  0  0
    1.9800    1.6399    2.0476 H   0  0  0  0  0  0  0  0  0  0  0  0
    2.7951    1.6990    3.5969 H   0  0  0  0  0  0  0  0  0  0  0  0
  1  2  1  0
  1 42  1  0
  1 43  1  0
  1 44  1  0
  2 41  1  0
  2  3  2  0
  3  4  1  0
  3 45  1  0
  4 39  1  0
  4  5  1  0
  4 46  1  6
  5  6  1  0
  5 47  1  0
  5 48  1  0
  6  7  1  0
  6  8  1  0
  6 49  1  1
  7 50  1  0
  8 38  1  0
  8  9  1  0
  8 51  1  1
  9 10  2  0
  9 11  1  0
 11 12  1  0
 12 38  1  0
 12 13  1  0
 12 52  1  6
 13 14  1  0
 13 53  1  0
 13 54  1  0
 14 15  2  0
 14 16  1  0
 16 35  1  0
 16 17  1  0
 16 55  1  1
 17 18  1  0
 18 19  1  0
 18 34  1  0
 18 56  1  6
 19 20  1  0
 20 31  1  0
 20 21  1  0
 20 57  1  1
 21 22  1  0
 21 58  1  0
 21 59  1  0
 22 28  1  0
 22 33  1  0
 22 23  1  6
 23 24  1  0
 24 25  1  0
 24 60  1  0
 24 61  1  0
 25 33  1  0
 25 26  1  0
 25 62  1  6
 26 27  2  0
 26 63  1  0
 27 28  1  0
 27 64  1  0
 28 29  1  0
 28 65  1  1
 29 30  1  0
 30 31  1  0
 30 33  1  0
 30 66  1  6
 31 32  1  0
 31 67  1  6
 32 68  1  0
 33 69  1  6
 34 35  1  0
 34 38  1  0
 34 70  1  6
 35 36  1  0
 35 37  1  0
 36 71  1  0
 36 72  1  0
 36 73  1  0
 37 74  1  0
 37 75  1  0
 37 76  1  0
 38 39  1  6
 39 40  1  6
 39 41  1  0
 40 77  1  0
 41 78  1  0
 41 79  1  0
M  END
>  <i_m_ct_stereo_status>  (263) 
1

>  <s_m_source_file>  (263) 
/var/tmp/pbs.5076255.sched01/tmplj_yfvzq/807e0r74np.sdf

>  <i_m_source_file_index>  (263) 
28

>  <i_lp_mmshare_version>  (263) 
48012

>  <i_f3d_flags>  (263) 
0

>  <s_epik_input>  (263) 
W0NIM11DKD1bQ0hdMSlbQ0gyXVtDQF0yKFtPSF0pW0NASF0xW0NIMl1bQ0BASF0oW09IXSlbQ0BASF0oW0NAQF0yMzQpQyg9TylPW0NASF0zW0NIMl1DKD1PKVtDQEBIXTVPW0NASF0oW0NASF00QzUoW0NIM10pW0NIM10pT1tDQEhdKFtDSDJdNilbQ0BIXShbT0hdKVtDQEhdKE83KVtDQEBIXThbQ0BASF0oW0NIMl1POSlbQ0hdPVtDSF1bQ0BIXTdbQ0BdNjg5

>  <s_epik_cmdline>  (263) 
J2VwaWtfcHl0aG9uJywgJy1waHQnLCAnMi4wJywgJy1waCcsICc3LjAnLCAnLXRuJywgJzgnLCAnLW1hJywgJzIwMCcsICctaW1hZScsICc8aW5maWxlLm1hZT4nLCAnLW9tYWUnLCAnPG91dGZpbGUubWFlPic=

>  <r_lp_tautomer_probability>  (263) 
1

>  <r_epik_Ionization_Penalty>  (263) 
2.50749e-07

>  <r_epik_Ionization_Penalty_Charging>  (263) 
0

>  <r_epik_Ionization_Penalty_Neutral>  (263) 
2.50749e-07

>  <r_epik_State_Penalty>  (263) 
-0

>  <r_epik_Charging_Adjusted_Penalty>  (263) 
0

>  <i_epik_Tot_Q>  (263) 
0

>  <i_epik_Tot_abs_Q>  (263) 
0

>  <s_epik_Chemistry_Notes>  (263) 
This compound has an ester and may undergo hydrolysis at high or low pH. This compound contains an acetal/aminal-like group ( X-CH(R)-Y where X, Y are N, S, or O) that may be acid/base labile, releasing an aldehyde.

>  <s_lp_Force_Field>  (263) 
OPLS3e

>  <r_lp_Energy>  (263) 
62.8914

>  <b_lp_Chiralities_Consistent>  (263) 
1

>  <s_lp_Variant>  (263) 
78:0-1

>  <s_i_glide_gridfile>  (263) 
pfpi4k_grid

>  <i_i_glide_lignum>  (263) 
28

>  <i_i_glide_rotatable_bonds>  (263) 
5

>  <r_i_docking_score>  (263) 
-2.82774

>  <r_i_glide_ligand_efficiency>  (263) 
-0.0689692

>  <r_i_glide_ligand_efficiency_sa>  (263) 
-0.237821

>  <r_i_glide_ligand_efficiency_ln>  (263) 
-0.599913

>  <r_i_glide_gscore>  (263) 
-2.82774

>  <r_i_glide_lipo>  (263) 
-0.236865

>  <r_i_glide_hbond>  (263) 
-0.0131774

>  <r_i_glide_metal>  (263) 
-0

>  <r_i_glide_rewards>  (263) 
0

>  <r_i_glide_evdw>  (263) 
-38.5016

>  <r_i_glide_ecoul>  (263) 
-4.4609

>  <r_i_glide_erotb>  (263) 
0.0376101

>  <r_i_glide_esite>  (263) 
-0.0210883

>  <r_i_glide_emodel>  (263) 
-50.001

>  <r_i_glide_energy>  (263) 
-42.9625

>  <r_i_glide_einternal>  (263) 
1.96896

>  <r_i_glide_intrahb_reward>  (263) 
-0

>  <i_i_glide_confnum>  (263) 
2

>  <i_i_glide_posenum>  (263) 
12

>  <r_i_glide_eff_state_penalty>  (263) 
0

>  <ligand_id>  (263) 
78

>  <original_smiles>  (263) 
CC1=CC2CC(O)C3C(=O)OC4CC(=O)C5OC(OC6CC78OCC9C=CC7OC(C6O)C98)C(C5(C)C)C43C2(O)C1

>  <smiles>  (263) 
[H]OC1([H])C([H])(OC2([H])OC3([H])C(=O)C([H])([H])C4([H])OC(=O)C5([H])C([H])(O[H])C([H])([H])C6([H])C([H])=C(C([H])([H])[H])C([H])([H])C6(O[H])C45C2([H])C3(C([H])([H])[H])C([H])([H])[H])C([H])([H])C23OC([H])([H])C4([H])C([H])=C([H])C2([H])OC1([H])C43[H]

$$$$
80:0:0
     RDKit          3D

 82 89  0  0  1  0  0  0  0  0999 V2000
    4.6929   -9.9571    2.4616 C   0  0  0  0  0  0  0  0  0  0  0  0
    4.2308   -8.8397    1.4992 C   0  0  0  0  0  0  0  0  0  0  0  0
    4.8690   -8.5868    0.4732 O   0  0  0  0  0  0  0  0  0  0  0  0
    3.1003   -8.1496    1.8169 O   0  0  0  0  0  0  0  0  0  0  0  0
    2.4019   -8.2128    3.0627 C   0  0  1  0  0  0  0  0  0  0  0  0
    1.9329   -9.6645    3.4689 C   0  0  0  0  0  0  0  0  0  0  0  0
    0.7280   -9.4481    4.4546 C   0  0  1  0  0  0  0  0  0  0  0  0
    0.6487  -10.5094    5.5650 C   0  0  0  0  0  0  0  0  0  0  0  0
    0.8882   -7.8935    4.6601 C   0  0  1  0  0  0  0  0  0  0  0  0
   -0.1108   -7.1197    5.4413 O   0  0  0  0  0  0  0  0  0  0  0  0
    0.5674   -5.9062    5.8584 C   0  0  2  0  0  0  0  0  0  0  0  0
    0.5560   -4.8900    4.7358 C   0  0  0  0  0  0  0  0  0  0  0  0
    0.6091   -3.4249    5.1183 C   0  0  2  0  0  0  0  0  0  0  0  0
    0.4344   -2.4746    3.9183 C   0  0  0  0  0  0  0  0  0  0  0  0
    1.3562   -1.2904    4.2122 C   0  0  1  0  0  0  0  0  0  0  0  0
    0.3996    0.0464    4.9946 S   0  0  0  0  0  0  0  0  0  0  0  0
    0.4301    1.3382    3.7238 C   0  0  0  0  0  0  0  0  0  0  0  0
   -0.2176    0.8836    2.4124 C   0  0  0  0  0  0  0  0  0  0  0  0
    0.2038    1.7366    1.2856 N   0  0  0  0  0  0  0  0  0  0  0  0
    2.3698   -1.9061    5.1379 C   0  0  0  0  0  0  0  0  0  0  0  0
    1.9783   -3.0959    5.6114 C   0  0  0  0  0  0  0  0  0  0  0  0
    2.7751   -4.0275    6.5172 C   0  0  2  0  0  0  0  0  0  0  0  0
    4.2348   -4.2752    6.0066 C   0  0  1  0  0  0  0  0  0  0  0  0
    5.1440   -4.0783    7.0841 O   0  0  0  0  0  0  0  0  0  0  0  0
    4.4708   -5.6570    5.4670 C   0  0  2  0  0  0  0  0  0  0  0  0
    5.2298   -5.8913    4.2818 O   0  0  0  0  0  0  0  0  0  0  0  0
    3.8103   -6.0448    4.1723 C   0  0  1  0  0  0  0  0  0  0  0  0
    3.1870   -7.4421    4.2379 C   0  0  1  0  0  0  0  0  0  0  0  0
    2.2646   -7.6686    5.4654 C   0  0  2  0  0  0  0  0  0  0  0  0
    3.0921   -8.7916    6.2396 C   0  0  0  0  0  0  0  0  0  0  0  0
    1.7073   -6.6685    6.5441 C   0  0  2  0  0  0  0  0  0  0  0  0
    1.1541   -7.5957    7.7019 C   0  0  0  0  0  0  0  0  0  0  0  0
    1.9992   -5.2574    7.1703 C   0  0  1  0  0  0  0  0  0  0  0  0
    2.3592   -5.1830    8.6758 C   0  0  0  0  0  0  0  0  0  0  0  0
    0.5013   -5.1450    7.1065 O   0  0  0  0  0  0  0  0  0  0  0  0
    1.0115   -7.5566    3.0364 C   0  0  0  0  0  0  0  0  0  0  0  0
    1.1239   -6.2240    2.2034 C   0  0  0  0  0  0  0  0  0  0  0  0
   -0.1481   -8.1945    2.1512 C   0  0  0  0  0  0  0  0  0  0  0  0
    4.8221   -9.5441    3.4695 H   0  0  0  0  0  0  0  0  0  0  0  0
    5.6586  -10.3990    2.1248 H   0  0  0  0  0  0  0  0  0  0  0  0
    3.9093  -10.7199    2.5216 H   0  0  0  0  0  0  0  0  0  0  0  0
    1.6115  -10.2656    2.6221 H   0  0  0  0  0  0  0  0  0  0  0  0
    2.7324  -10.2707    3.8692 H   0  0  0  0  0  0  0  0  0  0  0  0
   -0.2519   -9.6411    4.0019 H   0  0  0  0  0  0  0  0  0  0  0  0
    1.6121  -10.8499    5.9340 H   0  0  0  0  0  0  0  0  0  0  0  0
    0.2148  -11.4173    5.1470 H   0  0  0  0  0  0  0  0  0  0  0  0
    0.0032  -10.2223    6.3868 H   0  0  0  0  0  0  0  0  0  0  0  0
    1.4483   -5.0130    4.1641 H   0  0  0  0  0  0  0  0  0  0  0  0
   -0.3326   -5.0576    4.1495 H   0  0  0  0  0  0  0  0  0  0  0  0
   -0.1174   -3.1904    5.8950 H   0  0  0  0  0  0  0  0  0  0  0  0
    0.7863   -2.9616    3.0064 H   0  0  0  0  0  0  0  0  0  0  0  0
   -0.6040   -2.1925    3.7524 H   0  0  0  0  0  0  0  0  0  0  0  0
    1.8782   -0.9403    3.3185 H   0  0  0  0  0  0  0  0  0  0  0  0
   -0.0980    2.2141    4.1031 H   0  0  0  0  0  0  0  0  0  0  0  0
    1.4695    1.6408    3.5793 H   0  0  0  0  0  0  0  0  0  0  0  0
    0.0793   -0.1241    2.1321 H   0  0  0  0  0  0  0  0  0  0  0  0
   -1.3030    0.8667    2.4844 H   0  0  0  0  0  0  0  0  0  0  0  0
   -0.2131    1.3831    0.4267 H   0  0  0  0  0  0  0  0  0  0  0  0
    1.2114    1.7072    1.1960 H   0  0  0  0  0  0  0  0  0  0  0  0
    3.3194   -1.4380    5.3349 H   0  0  0  0  0  0  0  0  0  0  0  0
    2.9092   -3.2962    7.3129 H   0  0  0  0  0  0  0  0  0  0  0  0
    4.5051   -3.5544    5.2306 H   0  0  0  0  0  0  0  0  0  0  0  0
    5.0262   -4.7682    7.7202 H   0  0  0  0  0  0  0  0  0  0  0  0
    4.6577   -6.4128    6.2182 H   0  0  0  0  0  0  0  0  0  0  0  0
    3.4047   -5.2323    3.5861 H   0  0  0  0  0  0  0  0  0  0  0  0
    4.0998   -8.0390    4.3320 H   0  0  0  0  0  0  0  0  0  0  0  0
    3.9120   -8.3383    6.7969 H   0  0  0  0  0  0  0  0  0  0  0  0
    3.5965   -9.5338    5.6237 H   0  0  0  0  0  0  0  0  0  0  0  0
    2.5763   -9.3935    6.9799 H   0  0  0  0  0  0  0  0  0  0  0  0
    1.9423   -7.8845    8.3928 H   0  0  0  0  0  0  0  0  0  0  0  0
    0.6465   -8.4975    7.3697 H   0  0  0  0  0  0  0  0  0  0  0  0
    0.3950   -7.1147    8.3141 H   0  0  0  0  0  0  0  0  0  0  0  0
    3.3918   -5.4688    8.8438 H   0  0  0  0  0  0  0  0  0  0  0  0
    1.7432   -5.7916    9.3272 H   0  0  0  0  0  0  0  0  0  0  0  0
    2.2253   -4.1780    9.0682 H   0  0  0  0  0  0  0  0  0  0  0  0
    0.2156   -5.6320    2.2341 H   0  0  0  0  0  0  0  0  0  0  0  0
    1.2634   -6.4427    1.1415 H   0  0  0  0  0  0  0  0  0  0  0  0
    1.9798   -5.5941    2.3310 H   0  0  0  0  0  0  0  0  0  0  0  0
   -1.1114   -8.0242    2.6318 H   0  0  0  0  0  0  0  0  0  0  0  0
   -0.0808   -9.2603    1.9575 H   0  0  0  0  0  0  0  0  0  0  0  0
   -0.2555   -7.7977    1.1417 H   0  0  0  0  0  0  0  0  0  0  0  0
   -0.0535    2.7260    1.3791 H   0  0  0  0  0  0  0  0  0  0  0  0
  1  2  1  0
  1 39  1  0
  1 40  1  0
  1 41  1  0
  2  3  2  0
  2  4  1  0
  5  4  1  6
  5 28  1  0
  5 36  1  0
  5  6  1  0
  6  7  1  0
  6 42  1  0
  6 43  1  0
  7  8  1  0
  7  9  1  0
  7 44  1  6
  8 45  1  0
  8 46  1  0
  8 47  1  0
  9 29  1  0
  9 10  1  1
  9 36  1  0
 11 10  1  6
 11 31  1  0
 11 35  1  0
 11 12  1  0
 12 13  1  0
 12 48  1  0
 12 49  1  0
 13 21  1  0
 13 14  1  0
 13 50  1  1
 14 15  1  0
 14 51  1  0
 14 52  1  0
 15 16  1  0
 15 20  1  0
 15 53  1  6
 16 17  1  0
 17 18  1  0
 17 54  1  0
 17 55  1  0
 18 19  1  0
 18 56  1  0
 18 57  1  0
 19 58  1  0
 19 59  1  0
 19 82  1  0
 20 21  2  0
 20 60  1  0
 21 22  1  0
 22 33  1  0
 22 23  1  0
 22 61  1  1
 23 24  1  0
 23 25  1  0
 23 62  1  6
 24 63  1  0
 25 27  1  0
 25 26  1  0
 25 64  1  1
 26 27  1  0
 27 28  1  0
 27 65  1  6
 28 29  1  0
 28 66  1  1
 29 30  1  1
 29 31  1  0
 30 67  1  0
 30 68  1  0
 30 69  1  0
 31 32  1  1
 31 33  1  0
 32 70  1  0
 32 71  1  0
 32 72  1  0
 33 34  1  1
 33 35  1  0
 34 73  1  0
 34 74  1  0
 34 75  1  0
 36 37  1  0
 36 38  1  0
 37 76  1  0
 37 77  1  0
 37 78  1  0
 38 79  1  0
 38 80  1  0
 38 81  1  0
M  CHG  1  19   1
M  END
>  <i_m_ct_stereo_status>  (264) 
1

>  <s_m_source_file>  (264) 
/var/tmp/pbs.5076255.sched01/tmplj_yfvzq/807e0r74np.sdf

>  <i_m_source_file_index>  (264) 
30

>  <i_lp_mmshare_version>  (264) 
48012

>  <i_f3d_flags>  (264) 
0

>  <s_epik_input>  (264) 
W0NIM11DKD1PKU9bQ0BAXShDMShbQ0gzXSlbQ0gzXSkoW0NIMl1bQ0BIXTJbQ0gzXSlbQ0BIXShbQ0BAXTMoW0NAQF0xMjQpW0NIM10pW0NASF01W0NAQEhdKE81KVtDQEhdKFtPSF0pW0NASF02QzdbQ0BIXShbQ0gyXVtDQEBdOChPNClbQ0BdMyhbQ0gzXSlbQ0BAXTYoTzgpW0NIM10pW0NIMl1bQ0BIXShbQ0hdPTcpU1tDSDJdW0NIMl1bTkgyXQ==

>  <s_epik_cmdline>  (264) 
J2VwaWtfcHl0aG9uJywgJy1waHQnLCAnMi4wJywgJy1waCcsICc3LjAnLCAnLXRuJywgJzgnLCAnLW1hJywgJzIwMCcsICctaW1hZScsICc8aW5maWxlLm1hZT4nLCAnLW9tYWUnLCAnPG91dGZpbGUubWFlPic=

>  <r_epik_Ionization_Penalty>  (264) 
0.00341637

>  <r_epik_Ionization_Penalty_Charging>  (264) 
0.00341631

>  <r_epik_Ionization_Penalty_Neutral>  (264) 
6.34206e-08

>  <r_epik_State_Penalty>  (264) 
0.00241994

>  <r_epik_Charging_Adjusted_Penalty>  (264) 
0.00583625

>  <i_epik_Tot_Q>  (264) 
1

>  <i_epik_Tot_abs_Q>  (264) 
1

>  <s_epik_Chemistry_Notes>  (264) 
This compound has an ester and may undergo hydrolysis at high or low pH.

>  <s_lp_Force_Field>  (264) 
OPLS3e

>  <r_lp_Energy>  (264) 
220.672

>  <b_lp_Chiralities_Consistent>  (264) 
1

>  <s_lp_Variant>  (264) 
80:0-1

>  <s_i_glide_gridfile>  (264) 
pfpi4k_grid

>  <i_i_glide_lignum>  (264) 
30

>  <i_i_glide_rotatable_bonds>  (264) 
6

>  <r_i_docking_score>  (264) 
-3.06183

>  <r_i_glide_ligand_efficiency>  (264) 
-0.0805745

>  <r_i_glide_ligand_efficiency_sa>  (264) 
-0.270889

>  <r_i_glide_ligand_efficiency_ln>  (264) 
-0.660221

>  <r_i_glide_gscore>  (264) 
-3.06183

>  <r_i_glide_lipo>  (264) 
-0.0412188

>  <r_i_glide_hbond>  (264) 
-0.385386

>  <r_i_glide_metal>  (264) 
-0

>  <r_i_glide_rewards>  (264) 
0

>  <r_i_glide_evdw>  (264) 
-22.7633

>  <r_i_glide_ecoul>  (264) 
-10.568

>  <r_i_glide_erotb>  (264) 
0.207863

>  <r_i_glide_esite>  (264) 
-0.119722

>  <r_i_glide_emodel>  (264) 
-36.02

>  <r_i_glide_energy>  (264) 
-33.3313

>  <r_i_glide_einternal>  (264) 
9.12848

>  <r_i_glide_intrahb_reward>  (264) 
-0

>  <i_i_glide_confnum>  (264) 
2

>  <i_i_glide_posenum>  (264) 
8

>  <r_i_glide_eff_state_penalty>  (264) 
0

>  <ligand_id>  (264) 
80

>  <original_smiles>  (264) 
CC(=O)OC12CC(C)C3(OC45CC6CC(SCCN)C=C6C6C(O)C7OC7C1C3(C)C4(C)C6(C)O5)C2(C)C

>  <smiles>  (264) 
[H]OC1([H])C2([H])OC2([H])C2([H])C3(OC(=O)C([H])([H])[H])C([H])([H])C([H])(C([H])([H])[H])C4(OC56OC(C([H])([H])[H])(C1([H])C1=C([H])C([H])(SC([H])([H])C([H])([H])[N+]([H])([H])[H])C([H])([H])C1([H])C5([H])[H])C6(C([H])([H])[H])C24C([H])([H])[H])C3(C([H])([H])[H])C([H])([H])[H]

$$$$
80:0:1
     RDKit          3D

 82 89  0  0  1  0  0  0  0  0999 V2000
    4.9983   -8.5998    0.5077 C   0  0  0  0  0  0  0  0  0  0  0  0
    4.4611   -8.7675    1.9171 C   0  0  0  0  0  0  0  0  0  0  0  0
    5.0868   -9.4021    2.7640 O   0  0  0  0  0  0  0  0  0  0  0  0
    3.2717   -8.1545    2.0869 O   0  0  0  0  0  0  0  0  0  0  0  0
    2.5341   -8.2613    3.3070 C   0  0  1  0  0  0  0  0  0  0  0  0
    2.0957   -9.7445    3.6300 C   0  0  0  0  0  0  0  0  0  0  0  0
    0.8221   -9.5863    4.5301 C   0  0  1  0  0  0  0  0  0  0  0  0
    0.6188  -10.6774    5.5884 C   0  0  0  0  0  0  0  0  0  0  0  0
    0.8967   -8.0468    4.7948 C   0  0  1  0  0  0  0  0  0  0  0  0
   -0.1903   -7.3251    5.5017 O   0  0  0  0  0  0  0  0  0  0  0  0
    0.4014   -6.0938    6.0162 C   0  0  2  0  0  0  0  0  0  0  0  0
    0.4451   -5.0407    4.9413 C   0  0  0  0  0  0  0  0  0  0  0  0
    0.4225   -3.6001    5.3807 C   0  0  2  0  0  0  0  0  0  0  0  0
    0.3236   -2.5995    4.2036 C   0  0  0  0  0  0  0  0  0  0  0  0
    1.2275   -1.4201    4.6103 C   0  0  1  0  0  0  0  0  0  0  0  0
    0.2890   -0.0400    5.3447 S   0  0  0  0  0  0  0  0  0  0  0  0
   -0.4905    0.7462    3.9024 C   0  0  0  0  0  0  0  0  0  0  0  0
    0.5510    1.2842    2.8975 C   0  0  0  0  0  0  0  0  0  0  0  0
   -0.0939    1.7424    1.6695 N   0  0  0  0  0  0  0  0  0  0  0  0
    2.1427   -2.0425    5.6144 C   0  0  0  0  0  0  0  0  0  0  0  0
    1.7308   -3.2589    6.0104 C   0  0  0  0  0  0  0  0  0  0  0  0
    2.4661   -4.1944    6.9492 C   0  0  2  0  0  0  0  0  0  0  0  0
    3.9758   -4.3902    6.5660 C   0  0  1  0  0  0  0  0  0  0  0  0
    4.7674   -4.2063    7.7285 O   0  0  0  0  0  0  0  0  0  0  0  0
    4.2946   -5.7571    6.0102 C   0  0  2  0  0  0  0  0  0  0  0  0
    5.1902   -5.9299    4.9034 O   0  0  0  0  0  0  0  0  0  0  0  0
    3.7889   -6.1375    4.6412 C   0  0  1  0  0  0  0  0  0  0  0  0
    3.1897   -7.5420    4.5904 C   0  0  1  0  0  0  0  0  0  0  0  0
    2.1749   -7.8151    5.7345 C   0  0  2  0  0  0  0  0  0  0  0  0
    2.9326   -8.9466    6.5505 C   0  0  0  0  0  0  0  0  0  0  0  0
    1.4750   -6.8575    6.7737 C   0  0  2  0  0  0  0  0  0  0  0  0
    0.8378   -7.8235    7.8553 C   0  0  0  0  0  0  0  0  0  0  0  0
    1.6639   -5.4685    7.4787 C   0  0  1  0  0  0  0  0  0  0  0  0
    1.8844   -5.4214    9.0154 C   0  0  0  0  0  0  0  0  0  0  0  0
    0.1881   -5.3887    7.2771 O   0  0  0  0  0  0  0  0  0  0  0  0
    1.1388   -7.6441    3.2067 C   0  0  0  0  0  0  0  0  0  0  0  0
    1.2822   -6.2801    2.4368 C   0  0  0  0  0  0  0  0  0  0  0  0
    0.0737   -8.2746    2.2114 C   0  0  0  0  0  0  0  0  0  0  0  0
    4.3060   -9.0507   -0.2049 H   0  0  0  0  0  0  0  0  0  0  0  0
    5.9725   -9.0856    0.4272 H   0  0  0  0  0  0  0  0  0  0  0  0
    5.1035   -7.5408    0.2731 H   0  0  0  0  0  0  0  0  0  0  0  0
    1.8716  -10.3109    2.7271 H   0  0  0  0  0  0  0  0  0  0  0  0
    2.8951  -10.3151    4.0936 H   0  0  0  0  0  0  0  0  0  0  0  0
   -0.0963   -9.7874    3.9877 H   0  0  0  0  0  0  0  0  0  0  0  0
    1.5433  -11.0201    6.0375 H   0  0  0  0  0  0  0  0  0  0  0  0
    0.2149  -11.5710    5.1126 H   0  0  0  0  0  0  0  0  0  0  0  0
   -0.1125  -10.4062    6.3456 H   0  0  0  0  0  0  0  0  0  0  0  0
    1.3854   -5.1173    4.4497 H   0  0  0  0  0  0  0  0  0  0  0  0
   -0.3894   -5.2037    4.2633 H   0  0  0  0  0  0  0  0  0  0  0  0
   -0.3789   -3.3974    6.0927 H   0  0  0  0  0  0  0  0  0  0  0  0
    0.7660   -3.0475    3.3092 H   0  0  0  0  0  0  0  0  0  0  0  0
   -0.6961   -2.3238    3.9537 H   0  0  0  0  0  0  0  0  0  0  0  0
    1.8653   -1.1072    3.7888 H   0  0  0  0  0  0  0  0  0  0  0  0
   -1.1811    0.0462    3.4334 H   0  0  0  0  0  0  0  0  0  0  0  0
   -1.1021    1.5737    4.2703 H   0  0  0  0  0  0  0  0  0  0  0  0
    1.1475    2.0780    3.3601 H   0  0  0  0  0  0  0  0  0  0  0  0
    1.2546    0.5278    2.5557 H   0  0  0  0  0  0  0  0  0  0  0  0
    0.6163    2.0914    1.0443 H   0  0  0  0  0  0  0  0  0  0  0  0
   -0.6943    2.5387    1.8511 H   0  0  0  0  0  0  0  0  0  0  0  0
    3.0527   -1.5628    5.9118 H   0  0  0  0  0  0  0  0  0  0  0  0
    2.5134   -3.4833    7.7729 H   0  0  0  0  0  0  0  0  0  0  0  0
    4.2974   -3.6426    5.8400 H   0  0  0  0  0  0  0  0  0  0  0  0
    4.5672   -4.8843    8.3551 H   0  0  0  0  0  0  0  0  0  0  0  0
    4.4300   -6.5289    6.7600 H   0  0  0  0  0  0  0  0  0  0  0  0
    3.3948   -5.3289    4.0567 H   0  0  0  0  0  0  0  0  0  0  0  0
    4.0953   -8.1241    4.7452 H   0  0  0  0  0  0  0  0  0  0  0  0
    3.6839   -8.4915    7.1944 H   0  0  0  0  0  0  0  0  0  0  0  0
    3.4847   -9.6684    5.9599 H   0  0  0  0  0  0  0  0  0  0  0  0
    2.3559   -9.5700    7.2237 H   0  0  0  0  0  0  0  0  0  0  0  0
    1.5607   -8.1189    8.6120 H   0  0  0  0  0  0  0  0  0  0  0  0
    0.3810   -8.7223    7.4551 H   0  0  0  0  0  0  0  0  0  0  0  0
    0.0106   -7.3789    8.4065 H   0  0  0  0  0  0  0  0  0  0  0  0
    2.9045   -5.6921    9.2757 H   0  0  0  0  0  0  0  0  0  0  0  0
    1.2204   -6.0652    9.5886 H   0  0  0  0  0  0  0  0  0  0  0  0
    1.6875   -4.4325    9.4246 H   0  0  0  0  0  0  0  0  0  0  0  0
    0.3606   -5.7086    2.3985 H   0  0  0  0  0  0  0  0  0  0  0  0
    1.5218   -6.4572    1.3868 H   0  0  0  0  0  0  0  0  0  0  0  0
    2.1076   -5.6328    2.6573 H   0  0  0  0  0  0  0  0  0  0  0  0
   -0.9320   -8.1331    2.6059 H   0  0  0  0  0  0  0  0  0  0  0  0
    0.1821   -9.3331    1.9952 H   0  0  0  0  0  0  0  0  0  0  0  0
    0.0487   -7.8492    1.2076 H   0  0  0  0  0  0  0  0  0  0  0  0
   -0.5868    1.0188    1.1760 H   0  0  0  0  0  0  0  0  0  0  0  0
  1  2  1  0
  1 39  1  0
  1 40  1  0
  1 41  1  0
  2  3  2  0
  2  4  1  0
  5  4  1  6
  5 28  1  0
  5 36  1  0
  5  6  1  0
  6  7  1  0
  6 42  1  0
  6 43  1  0
  7  8  1  0
  7  9  1  0
  7 44  1  6
  8 45  1  0
  8 46  1  0
  8 47  1  0
  9 29  1  0
  9 10  1  1
  9 36  1  0
 11 10  1  6
 11 31  1  0
 11 35  1  0
 11 12  1  0
 12 13  1  0
 12 48  1  0
 12 49  1  0
 13 21  1  0
 13 14  1  0
 13 50  1  1
 14 15  1  0
 14 51  1  0
 14 52  1  0
 15 16  1  0
 15 20  1  0
 15 53  1  6
 16 17  1  0
 17 18  1  0
 17 54  1  0
 17 55  1  0
 18 19  1  0
 18 56  1  0
 18 57  1  0
 19 58  1  0
 19 59  1  0
 19 82  1  0
 20 21  2  0
 20 60  1  0
 21 22  1  0
 22 33  1  0
 22 23  1  0
 22 61  1  1
 23 24  1  0
 23 25  1  0
 23 62  1  6
 24 63  1  0
 25 27  1  0
 25 26  1  0
 25 64  1  1
 26 27  1  0
 27 28  1  0
 27 65  1  6
 28 29  1  0
 28 66  1  1
 29 30  1  1
 29 31  1  0
 30 67  1  0
 30 68  1  0
 30 69  1  0
 31 32  1  1
 31 33  1  0
 32 70  1  0
 32 71  1  0
 32 72  1  0
 33 34  1  1
 33 35  1  0
 34 73  1  0
 34 74  1  0
 34 75  1  0
 36 37  1  0
 36 38  1  0
 37 76  1  0
 37 77  1  0
 37 78  1  0
 38 79  1  0
 38 80  1  0
 38 81  1  0
M  CHG  1  19   1
M  END
>  <i_m_ct_stereo_status>  (265) 
1

>  <s_m_source_file>  (265) 
/var/tmp/pbs.5076255.sched01/tmplj_yfvzq/807e0r74np.sdf

>  <i_m_source_file_index>  (265) 
30

>  <i_lp_mmshare_version>  (265) 
48012

>  <i_f3d_flags>  (265) 
0

>  <s_epik_input>  (265) 
W0NIM11DKD1PKU9bQ0BAXShDMShbQ0gzXSlbQ0gzXSkoW0NIMl1bQ0BIXTJbQ0gzXSlbQ0BIXShbQ0BAXTMoW0NAQF0xMjQpW0NIM10pW0NASF01W0NAQEhdKE81KVtDQEhdKFtPSF0pW0NASF02QzdbQ0BIXShbQ0gyXVtDQEBdOChPNClbQ0BdMyhbQ0gzXSlbQ0BAXTYoTzgpW0NIM10pW0NIMl1bQ0BIXShbQ0hdPTcpU1tDSDJdW0NIMl1bTkgyXQ==

>  <s_epik_cmdline>  (265) 
J2VwaWtfcHl0aG9uJywgJy1waHQnLCAnMi4wJywgJy1waCcsICc3LjAnLCAnLXRuJywgJzgnLCAnLW1hJywgJzIwMCcsICctaW1hZScsICc8aW5maWxlLm1hZT4nLCAnLW9tYWUnLCAnPG91dGZpbGUubWFlPic=

>  <r_epik_Ionization_Penalty>  (265) 
0.00341637

>  <r_epik_Ionization_Penalty_Charging>  (265) 
0.00341631

>  <r_epik_Ionization_Penalty_Neutral>  (265) 
6.34206e-08

>  <r_epik_State_Penalty>  (265) 
0.00241994

>  <r_epik_Charging_Adjusted_Penalty>  (265) 
0.00583625

>  <i_epik_Tot_Q>  (265) 
1

>  <i_epik_Tot_abs_Q>  (265) 
1

>  <s_epik_Chemistry_Notes>  (265) 
This compound has an ester and may undergo hydrolysis at high or low pH.

>  <s_lp_Force_Field>  (265) 
OPLS3e

>  <r_lp_Energy>  (265) 
220.672

>  <b_lp_Chiralities_Consistent>  (265) 
1

>  <s_lp_Variant>  (265) 
80:0-1

>  <s_i_glide_gridfile>  (265) 
pfpi4k_grid

>  <i_i_glide_lignum>  (265) 
30

>  <i_i_glide_rotatable_bonds>  (265) 
6

>  <r_i_docking_score>  (265) 
-2.227

>  <r_i_glide_ligand_efficiency>  (265) 
-0.0586051

>  <r_i_glide_ligand_efficiency_sa>  (265) 
-0.197029

>  <r_i_glide_ligand_efficiency_ln>  (265) 
-0.480206

>  <r_i_glide_gscore>  (265) 
-2.227

>  <r_i_glide_lipo>  (265) 
-0.0513242

>  <r_i_glide_hbond>  (265) 
-0.146934

>  <r_i_glide_metal>  (265) 
-0

>  <r_i_glide_rewards>  (265) 
0

>  <r_i_glide_evdw>  (265) 
-22.3403

>  <r_i_glide_ecoul>  (265) 
-6.75717

>  <r_i_glide_erotb>  (265) 
0.207863

>  <r_i_glide_esite>  (265) 
-0.106007

>  <r_i_glide_emodel>  (265) 
-33.6891

>  <r_i_glide_energy>  (265) 
-29.0975

>  <r_i_glide_einternal>  (265) 
1.80959

>  <r_i_glide_intrahb_reward>  (265) 
-0

>  <i_i_glide_confnum>  (265) 
2

>  <i_i_glide_posenum>  (265) 
31

>  <r_i_glide_eff_state_penalty>  (265) 
0

>  <ligand_id>  (265) 
80

>  <original_smiles>  (265) 
CC(=O)OC12CC(C)C3(OC45CC6CC(SCCN)C=C6C6C(O)C7OC7C1C3(C)C4(C)C6(C)O5)C2(C)C

>  <smiles>  (265) 
[H]OC1([H])C2([H])OC2([H])C2([H])C3(OC(=O)C([H])([H])[H])C([H])([H])C([H])(C([H])([H])[H])C4(OC56OC(C([H])([H])[H])(C1([H])C1=C([H])C([H])(SC([H])([H])C([H])([H])[N+]([H])([H])[H])C([H])([H])C1([H])C5([H])[H])C6(C([H])([H])[H])C24C([H])([H])[H])C3(C([H])([H])[H])C([H])([H])[H]

$$$$
80:0:2
     RDKit          3D

 82 89  0  0  1  0  0  0  0  0999 V2000
    4.8553  -12.8965    2.8795 C   0  0  0  0  0  0  0  0  0  0  0  0
    4.3444  -11.9190    3.9306 C   0  0  0  0  0  0  0  0  0  0  0  0
    4.7133  -12.0013    5.1019 O   0  0  0  0  0  0  0  0  0  0  0  0
    3.4844  -11.0045    3.4235 O   0  0  0  0  0  0  0  0  0  0  0  0
    2.8308  -10.0300    4.2480 C   0  0  1  0  0  0  0  0  0  0  0  0
    1.8874  -10.6725    5.3338 C   0  0  0  0  0  0  0  0  0  0  0  0
    0.8241   -9.5622    5.6553 C   0  0  1  0  0  0  0  0  0  0  0  0
    0.2890   -9.5321    7.1006 C   0  0  0  0  0  0  0  0  0  0  0  0
    1.4945   -8.3698    4.8871 C   0  0  1  0  0  0  0  0  0  0  0  0
    0.8108   -7.0595    4.7310 O   0  0  0  0  0  0  0  0  0  0  0  0
    1.8572   -6.0869    4.4612 C   0  0  2  0  0  0  0  0  0  0  0  0
    2.2310   -6.0947    2.9993 C   0  0  0  0  0  0  0  0  0  0  0  0
    2.7984   -4.8321    2.4089 C   0  0  2  0  0  0  0  0  0  0  0  0
    3.0086   -4.9276    0.8845 C   0  0  0  0  0  0  0  0  0  0  0  0
    4.2974   -4.1252    0.5979 C   0  0  1  0  0  0  0  0  0  0  0  0
    3.9668   -2.4037    0.1029 S   0  0  0  0  0  0  0  0  0  0  0  0
    2.9873   -2.5976   -1.4202 C   0  0  0  0  0  0  0  0  0  0  0  0
    3.7890   -3.2302   -2.5595 C   0  0  0  0  0  0  0  0  0  0  0  0
    2.9283   -3.4502   -3.7318 N   0  0  0  0  0  0  0  0  0  0  0  0
    4.9947   -4.1943    1.9346 C   0  0  0  0  0  0  0  0  0  0  0  0
    4.1866   -4.6113    2.9154 C   0  0  0  0  0  0  0  0  0  0  0  0
    4.5552   -4.8534    4.3780 C   0  0  2  0  0  0  0  0  0  0  0  0
    5.8481   -5.7264    4.5396 C   0  0  1  0  0  0  0  0  0  0  0  0
    6.7162   -5.0992    5.4659 O   0  0  0  0  0  0  0  0  0  0  0  0
    5.5848   -7.1243    5.0531 C   0  0  2  0  0  0  0  0  0  0  0  0
    6.2717   -8.2633    4.5247 O   0  0  0  0  0  0  0  0  0  0  0  0
    4.8862   -8.1216    4.1653 C   0  0  1  0  0  0  0  0  0  0  0  0
    3.7928   -8.9075    4.8867 C   0  0  1  0  0  0  0  0  0  0  0  0
    2.8246   -8.0051    5.7045 C   0  0  2  0  0  0  0  0  0  0  0  0
    3.1481   -8.4748    7.1880 C   0  0  0  0  0  0  0  0  0  0  0  0
    2.6135   -6.4393    5.7350 C   0  0  2  0  0  0  0  0  0  0  0  0
    1.7289   -6.1642    7.0213 C   0  0  0  0  0  0  0  0  0  0  0  0
    3.3586   -5.0947    5.4131 C   0  0  1  0  0  0  0  0  0  0  0  0
    3.6804   -4.1213    6.5816 C   0  0  0  0  0  0  0  0  0  0  0  0
    2.0078   -4.7022    4.9058 O   0  0  0  0  0  0  0  0  0  0  0  0
    1.7663   -9.2309    3.4943 C   0  0  0  0  0  0  0  0  0  0  0  0
    2.3664   -8.8617    2.0847 C   0  0  0  0  0  0  0  0  0  0  0  0
    0.4802   -9.9782    2.9317 C   0  0  0  0  0  0  0  0  0  0  0  0
    4.0221  -13.4551    2.4524 H   0  0  0  0  0  0  0  0  0  0  0  0
    5.5586  -13.6066    3.3152 H   0  0  0  0  0  0  0  0  0  0  0  0
    5.3630  -12.3577    2.0789 H   0  0  0  0  0  0  0  0  0  0  0  0
    1.4015  -11.5828    4.9807 H   0  0  0  0  0  0  0  0  0  0  0  0
    2.4533  -11.0089    6.1958 H   0  0  0  0  0  0  0  0  0  0  0  0
   -0.1316   -9.7608    5.1821 H   0  0  0  0  0  0  0  0  0  0  0  0
    1.0242   -9.7663    7.8636 H   0  0  0  0  0  0  0  0  0  0  0  0
   -0.4557  -10.3216    7.2113 H   0  0  0  0  0  0  0  0  0  0  0  0
   -0.2283   -8.6070    7.3366 H   0  0  0  0  0  0  0  0  0  0  0  0
    3.0306   -6.7812    2.8848 H   0  0  0  0  0  0  0  0  0  0  0  0
    1.3571   -6.3799    2.4128 H   0  0  0  0  0  0  0  0  0  0  0  0
    2.1839   -3.9594    2.6354 H   0  0  0  0  0  0  0  0  0  0  0  0
    3.2063   -5.9637    0.6029 H   0  0  0  0  0  0  0  0  0  0  0  0
    2.1209   -4.6262    0.3327 H   0  0  0  0  0  0  0  0  0  0  0  0
    4.9158   -4.6135   -0.1544 H   0  0  0  0  0  0  0  0  0  0  0  0
    2.0810   -3.1718   -1.2193 H   0  0  0  0  0  0  0  0  0  0  0  0
    2.6396   -1.6073   -1.7243 H   0  0  0  0  0  0  0  0  0  0  0  0
    4.6296   -2.5886   -2.8283 H   0  0  0  0  0  0  0  0  0  0  0  0
    4.2103   -4.1921   -2.2668 H   0  0  0  0  0  0  0  0  0  0  0  0
    3.4741   -3.8741   -4.4616 H   0  0  0  0  0  0  0  0  0  0  0  0
    2.5352   -2.5746   -4.0520 H   0  0  0  0  0  0  0  0  0  0  0  0
    6.0413   -3.9579    2.0462 H   0  0  0  0  0  0  0  0  0  0  0  0
    4.9224   -3.8402    4.5505 H   0  0  0  0  0  0  0  0  0  0  0  0
    6.3846   -5.8063    3.5955 H   0  0  0  0  0  0  0  0  0  0  0  0
    6.3249   -5.1163    6.3256 H   0  0  0  0  0  0  0  0  0  0  0  0
    5.4602   -7.1919    6.1316 H   0  0  0  0  0  0  0  0  0  0  0  0
    4.7920   -7.8341    3.1325 H   0  0  0  0  0  0  0  0  0  0  0  0
    4.4164   -9.4965    5.5551 H   0  0  0  0  0  0  0  0  0  0  0  0
    4.0548   -7.9880    7.5373 H   0  0  0  0  0  0  0  0  0  0  0  0
    3.3427   -9.5335    7.3182 H   0  0  0  0  0  0  0  0  0  0  0  0
    2.4221   -8.2616    7.9607 H   0  0  0  0  0  0  0  0  0  0  0  0
    2.3307   -6.0999    7.9274 H   0  0  0  0  0  0  0  0  0  0  0  0
    0.9434   -6.8889    7.1904 H   0  0  0  0  0  0  0  0  0  0  0  0
    1.1668   -5.2323    6.9798 H   0  0  0  0  0  0  0  0  0  0  0  0
    4.5393   -4.4627    7.1617 H   0  0  0  0  0  0  0  0  0  0  0  0
    2.8634   -3.9584    7.2806 H   0  0  0  0  0  0  0  0  0  0  0  0
    3.9045   -3.1145    6.2248 H   0  0  0  0  0  0  0  0  0  0  0  0
    1.7311   -8.2089    1.4915 H   0  0  0  0  0  0  0  0  0  0  0  0
    2.4579   -9.7557    1.4628 H   0  0  0  0  0  0  0  0  0  0  0  0
    3.3893   -8.5485    2.0124 H   0  0  0  0  0  0  0  0  0  0  0  0
   -0.3700   -9.2948    2.9260 H   0  0  0  0  0  0  0  0  0  0  0  0
    0.1671  -10.8812    3.4511 H   0  0  0  0  0  0  0  0  0  0  0  0
    0.5569  -10.3424    1.9076 H   0  0  0  0  0  0  0  0  0  0  0  0
    2.1718   -4.0803   -3.4866 H   0  0  0  0  0  0  0  0  0  0  0  0
  1  2  1  0
  1 39  1  0
  1 40  1  0
  1 41  1  0
  2  3  2  0
  2  4  1  0
  5  4  1  6
  5 28  1  0
  5 36  1  0
  5  6  1  0
  6  7  1  0
  6 42  1  0
  6 43  1  0
  7  8  1  0
  7  9  1  0
  7 44  1  6
  8 45  1  0
  8 46  1  0
  8 47  1  0
  9 29  1  0
  9 10  1  6
  9 36  1  0
 11 10  1  6
 11 31  1  0
 11 35  1  0
 11 12  1  0
 12 13  1  0
 12 48  1  0
 12 49  1  0
 13 21  1  0
 13 14  1  0
 13 50  1  6
 14 15  1  0
 14 51  1  0
 14 52  1  0
 15 16  1  0
 15 20  1  0
 15 53  1  6
 16 17  1  0
 17 18  1  0
 17 54  1  0
 17 55  1  0
 18 19  1  0
 18 56  1  0
 18 57  1  0
 19 58  1  0
 19 59  1  0
 19 82  1  0
 20 21  2  0
 20 60  1  0
 21 22  1  0
 22 33  1  0
 22 23  1  0
 22 61  1  1
 23 24  1  0
 23 25  1  0
 23 62  1  6
 24 63  1  0
 25 27  1  0
 25 26  1  0
 25 64  1  1
 26 27  1  0
 27 28  1  0
 27 65  1  6
 28 29  1  0
 28 66  1  1
 29 30  1  1
 29 31  1  0
 30 67  1  0
 30 68  1  0
 30 69  1  0
 31 32  1  1
 31 33  1  0
 32 70  1  0
 32 71  1  0
 32 72  1  0
 33 34  1  1
 33 35  1  0
 34 73  1  0
 34 74  1  0
 34 75  1  0
 36 37  1  0
 36 38  1  0
 37 76  1  0
 37 77  1  0
 37 78  1  0
 38 79  1  0
 38 80  1  0
 38 81  1  0
M  CHG  1  19   1
M  END
>  <i_m_ct_stereo_status>  (266) 
1

>  <s_m_source_file>  (266) 
/var/tmp/pbs.5076255.sched01/tmplj_yfvzq/807e0r74np.sdf

>  <i_m_source_file_index>  (266) 
30

>  <i_lp_mmshare_version>  (266) 
48012

>  <i_f3d_flags>  (266) 
0

>  <s_epik_input>  (266) 
W0NIM11DKD1PKU9bQ0BAXShDMShbQ0gzXSlbQ0gzXSkoW0NIMl1bQ0BIXTJbQ0gzXSlbQ0BIXShbQ0BAXTMoW0NAQF0xMjQpW0NIM10pW0NASF01W0NAQEhdKE81KVtDQEhdKFtPSF0pW0NASF02QzdbQ0BIXShbQ0gyXVtDQEBdOChPNClbQ0BdMyhbQ0gzXSlbQ0BAXTYoTzgpW0NIM10pW0NIMl1bQ0BIXShbQ0hdPTcpU1tDSDJdW0NIMl1bTkgyXQ==

>  <s_epik_cmdline>  (266) 
J2VwaWtfcHl0aG9uJywgJy1waHQnLCAnMi4wJywgJy1waCcsICc3LjAnLCAnLXRuJywgJzgnLCAnLW1hJywgJzIwMCcsICctaW1hZScsICc8aW5maWxlLm1hZT4nLCAnLW9tYWUnLCAnPG91dGZpbGUubWFlPic=

>  <r_epik_Ionization_Penalty>  (266) 
0.00341637

>  <r_epik_Ionization_Penalty_Charging>  (266) 
0.00341631

>  <r_epik_Ionization_Penalty_Neutral>  (266) 
6.34206e-08

>  <r_epik_State_Penalty>  (266) 
0.00241994

>  <r_epik_Charging_Adjusted_Penalty>  (266) 
0.00583625

>  <i_epik_Tot_Q>  (266) 
1

>  <i_epik_Tot_abs_Q>  (266) 
1

>  <s_epik_Chemistry_Notes>  (266) 
This compound has an ester and may undergo hydrolysis at high or low pH.

>  <s_lp_Force_Field>  (266) 
OPLS3e

>  <r_lp_Energy>  (266) 
220.672

>  <b_lp_Chiralities_Consistent>  (266) 
1

>  <s_lp_Variant>  (266) 
80:0-1

>  <s_i_glide_gridfile>  (266) 
pfpi4k_grid

>  <i_i_glide_lignum>  (266) 
30

>  <i_i_glide_rotatable_bonds>  (266) 
6

>  <r_i_docking_score>  (266) 
-1.92616

>  <r_i_glide_ligand_efficiency>  (266) 
-0.0506884

>  <r_i_glide_ligand_efficiency_sa>  (266) 
-0.170413

>  <r_i_glide_ligand_efficiency_ln>  (266) 
-0.415336

>  <r_i_glide_gscore>  (266) 
-1.92616

>  <r_i_glide_lipo>  (266) 
-0.0912269

>  <r_i_glide_hbond>  (266) 
0

>  <r_i_glide_metal>  (266) 
-0

>  <r_i_glide_rewards>  (266) 
0

>  <r_i_glide_evdw>  (266) 
-25.1661

>  <r_i_glide_ecoul>  (266) 
-5.04021

>  <r_i_glide_erotb>  (266) 
0.207863

>  <r_i_glide_esite>  (266) 
-0.0284604

>  <r_i_glide_emodel>  (266) 
-34.3246

>  <r_i_glide_energy>  (266) 
-30.2063

>  <r_i_glide_einternal>  (266) 
2.04118

>  <r_i_glide_intrahb_reward>  (266) 
-0

>  <i_i_glide_confnum>  (266) 
2

>  <i_i_glide_posenum>  (266) 
35

>  <r_i_glide_eff_state_penalty>  (266) 
0

>  <ligand_id>  (266) 
80

>  <original_smiles>  (266) 
CC(=O)OC12CC(C)C3(OC45CC6CC(SCCN)C=C6C6C(O)C7OC7C1C3(C)C4(C)C6(C)O5)C2(C)C

>  <smiles>  (266) 
[H]OC1([H])C2([H])OC2([H])C2([H])C3(OC(=O)C([H])([H])[H])C([H])([H])C([H])(C([H])([H])[H])C4(OC56OC(C([H])([H])[H])(C1([H])C1=C([H])C([H])(SC([H])([H])C([H])([H])[N+]([H])([H])[H])C([H])([H])C1([H])C5([H])[H])C6(C([H])([H])[H])C24C([H])([H])[H])C3(C([H])([H])[H])C([H])([H])[H]

$$$$
81:0:0
     RDKit          3D

 58 62  0  0  1  0  0  0  0  0999 V2000
    4.2459   -2.0662   -2.8981 C   0  0  0  0  0  0  0  0  0  0  0  0
    4.8525   -2.4303   -1.7565 C   0  0  0  0  0  0  0  0  0  0  0  0
    6.2762   -2.9240   -1.6342 C   0  0  2  0  0  0  0  0  0  0  0  0
    6.2373   -3.8640   -0.4322 C   0  0  0  0  0  0  0  0  0  0  0  0
    5.5459   -2.8324    0.4560 C   0  0  2  0  0  0  0  0  0  0  0  0
    6.6640   -1.7528    0.2623 C   0  0  0  0  0  0  0  0  0  0  0  0
    7.0369   -1.8573   -1.1086 O   0  0  0  0  0  0  0  0  0  0  0  0
    5.2835   -3.0029    1.9856 C   0  0  1  0  0  0  0  0  0  0  0  0
    4.6201   -1.6796    2.4678 C   0  0  0  0  0  0  0  0  0  0  0  0
    5.0651   -1.0827    3.4499 O   0  0  0  0  0  0  0  0  0  0  0  0
    3.4349   -1.1272    1.6514 C   0  0  1  0  0  0  0  0  0  0  0  0
    3.0726    0.1679    2.0836 O   0  0  0  0  0  0  0  0  0  0  0  0
    3.7479   -1.0855    0.1395 C   0  0  0  0  0  0  0  0  0  0  0  0
    4.2689   -2.4571   -0.3493 C   0  0  1  0  0  0  0  0  0  0  0  0
    3.0860   -3.4763   -0.2883 C   0  0  0  0  0  0  0  0  0  0  0  0
    3.1894   -4.7843    0.5217 C   0  0  0  0  0  0  0  0  0  0  0  0
    3.2391   -4.7440    2.0857 C   0  0  1  0  0  0  0  0  0  0  0  0
    2.6952   -6.1154    2.7101 C   0  0  0  0  0  0  0  0  0  0  0  0
    2.3376   -5.9796    4.2195 C   0  0  0  0  0  0  0  0  0  0  0  0
    1.3404   -6.5667    2.0821 C   0  0  0  0  0  0  0  0  0  0  0  0
    3.7523   -7.2589    2.5562 C   0  0  1  0  0  0  0  0  0  0  0  0
    3.8336   -7.7616    1.2400 O   0  0  0  0  0  0  0  0  0  0  0  0
    5.1755   -6.8606    2.9819 C   0  0  0  0  0  0  0  0  0  0  0  0
    5.6471   -5.5174    2.3899 C   0  0  0  0  0  0  0  0  0  0  0  0
    4.6735   -4.3252    2.6194 C   0  0  1  0  0  0  0  0  0  0  0  0
    4.6827   -4.0406    4.1589 C   0  0  0  0  0  0  0  0  0  0  0  0
    3.2190   -1.7317   -2.9068 H   0  0  0  0  0  0  0  0  0  0  0  0
    4.7786   -2.1037   -3.8365 H   0  0  0  0  0  0  0  0  0  0  0  0
    6.6908   -3.3364   -2.5533 H   0  0  0  0  0  0  0  0  0  0  0  0
    5.6741   -4.7548   -0.6930 H   0  0  0  0  0  0  0  0  0  0  0  0
    7.2294   -4.1639   -0.0854 H   0  0  0  0  0  0  0  0  0  0  0  0
    6.3928   -0.7272    0.5116 H   0  0  0  0  0  0  0  0  0  0  0  0
    7.5430   -1.9890    0.8670 H   0  0  0  0  0  0  0  0  0  0  0  0
    6.2756   -2.9595    2.4319 H   0  0  0  0  0  0  0  0  0  0  0  0
    2.5855   -1.7815    1.8390 H   0  0  0  0  0  0  0  0  0  0  0  0
    2.3026    0.4407    1.6091 H   0  0  0  0  0  0  0  0  0  0  0  0
    2.8475   -0.8217   -0.4053 H   0  0  0  0  0  0  0  0  0  0  0  0
    4.4313   -0.2699   -0.0945 H   0  0  0  0  0  0  0  0  0  0  0  0
    2.1724   -2.9703    0.0222 H   0  0  0  0  0  0  0  0  0  0  0  0
    2.8515   -3.7836   -1.3096 H   0  0  0  0  0  0  0  0  0  0  0  0
    2.2750   -5.2679    0.2049 H   0  0  0  0  0  0  0  0  0  0  0  0
    3.9456   -5.4494    0.1258 H   0  0  0  0  0  0  0  0  0  0  0  0
    2.5302   -3.9718    2.3896 H   0  0  0  0  0  0  0  0  0  0  0  0
    1.5348   -6.6495    4.5300 H   0  0  0  0  0  0  0  0  0  0  0  0
    2.0175   -4.9717    4.4835 H   0  0  0  0  0  0  0  0  0  0  0  0
    3.1606   -6.2628    4.8696 H   0  0  0  0  0  0  0  0  0  0  0  0
    0.8770   -7.3835    2.6391 H   0  0  0  0  0  0  0  0  0  0  0  0
    1.4331   -6.9541    1.0688 H   0  0  0  0  0  0  0  0  0  0  0  0
    0.6271   -5.7423    2.0670 H   0  0  0  0  0  0  0  0  0  0  0  0
    3.4430   -8.1070    3.1683 H   0  0  0  0  0  0  0  0  0  0  0  0
    3.0997   -8.3402    1.0968 H   0  0  0  0  0  0  0  0  0  0  0  0
    5.2362   -6.8401    4.0666 H   0  0  0  0  0  0  0  0  0  0  0  0
    5.8745   -7.6449    2.6851 H   0  0  0  0  0  0  0  0  0  0  0  0
    6.6296   -5.2730    2.7961 H   0  0  0  0  0  0  0  0  0  0  0  0
    5.8009   -5.6860    1.3300 H   0  0  0  0  0  0  0  0  0  0  0  0
    4.7277   -4.9233    4.7849 H   0  0  0  0  0  0  0  0  0  0  0  0
    3.8146   -3.4608    4.4760 H   0  0  0  0  0  0  0  0  0  0  0  0
    5.5699   -3.4794    4.4603 H   0  0  0  0  0  0  0  0  0  0  0  0
  1  2  2  0
  1 27  1  0
  1 28  1  0
  2 14  1  0
  2  3  1  0
  3  7  1  0
  3  4  1  0
  3 29  1  6
  4  5  1  0
  4 30  1  0
  4 31  1  0
  5 14  1  0
  5  6  1  1
  5  8  1  0
  6  7  1  0
  6 32  1  0
  6 33  1  0
  8 25  1  0
  8  9  1  0
  8 34  1  1
  9 10  2  0
  9 11  1  0
 11 12  1  0
 11 13  1  0
 11 35  1  6
 12 36  1  0
 14 13  1  1
 13 37  1  0
 13 38  1  0
 14 15  1  0
 15 16  1  0
 15 39  1  0
 15 40  1  0
 16 17  1  0
 16 41  1  0
 16 42  1  0
 17 25  1  0
 17 18  1  0
 17 43  1  1
 18 19  1  0
 18 20  1  0
 18 21  1  0
 19 44  1  0
 19 45  1  0
 19 46  1  0
 20 47  1  0
 20 48  1  0
 20 49  1  0
 21 22  1  0
 21 23  1  0
 21 50  1  1
 22 51  1  0
 23 24  1  0
 23 52  1  0
 23 53  1  0
 24 25  1  0
 24 54  1  0
 24 55  1  0
 25 26  1  1
 26 56  1  0
 26 57  1  0
 26 58  1  0
M  END
>  <i_m_ct_stereo_status>  (267) 
1

>  <s_m_source_file>  (267) 
/var/tmp/pbs.5076255.sched01/tmplj_yfvzq/807e0r74np.sdf

>  <i_m_source_file_index>  (267) 
31

>  <i_lp_mmshare_version>  (267) 
48012

>  <i_f3d_flags>  (267) 
0

>  <s_epik_input>  (267) 
W0NIMl0xT1tDQEBIXShbQ0gyXTIpQyg9W0NIMl0pW0NAQF0zKFtDQF0xMjQpW0NIMl1bQ0BIXShbT0hdKUMoPU8pW0NASF00W0NAQF01KFtDSDNdKVtDQEBIXShbQ0gyXVtDSDJdMylDKFtDSDNdKShbQ0gzXSlbQ0BASF0oW09IXSlbQ0gyXVtDSDJdNQ==

>  <s_epik_cmdline>  (267) 
J2VwaWtfcHl0aG9uJywgJy1waHQnLCAnMi4wJywgJy1waCcsICc3LjAnLCAnLXRuJywgJzgnLCAnLW1hJywgJzIwMCcsICctaW1hZScsICc8aW5maWxlLm1hZT4nLCAnLW9tYWUnLCAnPG91dGZpbGUubWFlPic=

>  <r_lp_tautomer_probability>  (267) 
1

>  <r_epik_Ionization_Penalty>  (267) 
2.0839e-06

>  <r_epik_Ionization_Penalty_Charging>  (267) 
0

>  <r_epik_Ionization_Penalty_Neutral>  (267) 
2.0839e-06

>  <r_epik_State_Penalty>  (267) 
-0

>  <r_epik_Charging_Adjusted_Penalty>  (267) 
0

>  <i_epik_Tot_Q>  (267) 
0

>  <i_epik_Tot_abs_Q>  (267) 
0

>  <s_lp_Force_Field>  (267) 
OPLS3e

>  <r_lp_Energy>  (267) 
87.8698

>  <b_lp_Chiralities_Consistent>  (267) 
1

>  <s_lp_Variant>  (267) 
81:0-1

>  <s_i_glide_gridfile>  (267) 
pfpi4k_grid

>  <i_i_glide_lignum>  (267) 
31

>  <i_i_glide_rotatable_bonds>  (267) 
2

>  <r_i_docking_score>  (267) 
-3.48861

>  <r_i_glide_ligand_efficiency>  (267) 
-0.134177

>  <r_i_glide_ligand_efficiency_sa>  (267) 
-0.3975

>  <r_i_glide_ligand_efficiency_ln>  (267) 
-0.819289

>  <r_i_glide_gscore>  (267) 
-3.48861

>  <r_i_glide_lipo>  (267) 
-0.314409

>  <r_i_glide_hbond>  (267) 
-0.16

>  <r_i_glide_metal>  (267) 
-0

>  <r_i_glide_rewards>  (267) 
-1.01412

>  <r_i_glide_evdw>  (267) 
-26.8536

>  <r_i_glide_ecoul>  (267) 
-4.38268

>  <r_i_glide_erotb>  (267) 
0

>  <r_i_glide_esite>  (267) 
0

>  <r_i_glide_emodel>  (267) 
-37.9736

>  <r_i_glide_energy>  (267) 
-31.2362

>  <r_i_glide_einternal>  (267) 
0.614027

>  <r_i_glide_intrahb_reward>  (267) 
-0

>  <i_i_glide_confnum>  (267) 
2

>  <i_i_glide_posenum>  (267) 
35

>  <r_i_glide_eff_state_penalty>  (267) 
0

>  <ligand_id>  (267) 
81

>  <original_smiles>  (267) 
C=C1C2CC3(CO2)C2C(=O)C(O)CC13CCC1C(C)(C)C(O)CCC12C

>  <smiles>  (267) 
[H]OC1([H])C(=O)C2([H])C3(C([H])([H])[H])C([H])([H])C([H])([H])C([H])(O[H])C(C([H])([H])[H])(C([H])([H])[H])C3([H])C([H])([H])C([H])([H])C3(C(=C([H])[H])C4([H])OC([H])([H])C23C4([H])[H])C1([H])[H]

$$$$
81:0:1
     RDKit          3D

 58 62  0  0  1  0  0  0  0  0999 V2000
    4.6000   -2.2395   -2.9174 C   0  0  0  0  0  0  0  0  0  0  0  0
    5.1111   -2.5632   -1.7202 C   0  0  0  0  0  0  0  0  0  0  0  0
    6.5245   -3.0428   -1.4629 C   0  0  2  0  0  0  0  0  0  0  0  0
    6.3812   -3.9613   -0.2504 C   0  0  0  0  0  0  0  0  0  0  0  0
    5.6079   -2.9122    0.5497 C   0  0  2  0  0  0  0  0  0  0  0  0
    6.7307   -1.8263    0.4304 C   0  0  0  0  0  0  0  0  0  0  0  0
    7.2408   -1.9678   -0.8906 O   0  0  0  0  0  0  0  0  0  0  0  0
    5.2120   -3.0487    2.0530 C   0  0  1  0  0  0  0  0  0  0  0  0
    4.4967   -1.7191    2.4403 C   0  0  0  0  0  0  0  0  0  0  0  0
    4.8507   -1.0952    3.4427 O   0  0  0  0  0  0  0  0  0  0  0  0
    3.3821   -1.1997    1.5084 C   0  0  1  0  0  0  0  0  0  0  0  0
    2.9699    0.1009    1.8745 O   0  0  0  0  0  0  0  0  0  0  0  0
    3.8292   -1.1902    0.0293 C   0  0  0  0  0  0  0  0  0  0  0  0
    4.4047   -2.5661   -0.3719 C   0  0  1  0  0  0  0  0  0  0  0  0
    3.2235   -3.5904   -0.3906 C   0  0  0  0  0  0  0  0  0  0  0  0
    3.2637   -4.8796    0.4550 C   0  0  0  0  0  0  0  0  0  0  0  0
    3.1755   -4.8040    2.0131 C   0  0  1  0  0  0  0  0  0  0  0  0
    2.5893   -6.1670    2.6182 C   0  0  0  0  0  0  0  0  0  0  0  0
    2.0955   -5.9995    4.0858 C   0  0  0  0  0  0  0  0  0  0  0  0
    1.2994   -6.6489    1.8825 C   0  0  0  0  0  0  0  0  0  0  0  0
    3.6610   -7.3058    2.5796 C   0  0  1  0  0  0  0  0  0  0  0  0
    3.8576   -7.8309    1.2800 O   0  0  0  0  0  0  0  0  0  0  0  0
    5.0390   -6.8874    3.1260 C   0  0  0  0  0  0  0  0  0  0  0  0
    5.5522   -5.5520    2.5475 C   0  0  0  0  0  0  0  0  0  0  0  0
    4.5563   -4.3623    2.6618 C   0  0  1  0  0  0  0  0  0  0  0  0
    4.4249   -4.0412    4.1875 C   0  0  0  0  0  0  0  0  0  0  0  0
    3.5739   -1.9166   -3.0236 H   0  0  0  0  0  0  0  0  0  0  0  0
    5.2077   -2.3016   -3.8053 H   0  0  0  0  0  0  0  0  0  0  0  0
    7.0225   -3.4575   -2.3373 H   0  0  0  0  0  0  0  0  0  0  0  0
    5.8434   -4.8590   -0.5379 H   0  0  0  0  0  0  0  0  0  0  0  0
    7.3402   -4.2447    0.1900 H   0  0  0  0  0  0  0  0  0  0  0  0
    6.4301   -0.7965    0.6242 H   0  0  0  0  0  0  0  0  0  0  0  0
    7.5487   -2.0414    1.1185 H   0  0  0  0  0  0  0  0  0  0  0  0
    6.1637   -2.9862    2.5799 H   0  0  0  0  0  0  0  0  0  0  0  0
    2.5249   -1.8591    1.6367 H   0  0  0  0  0  0  0  0  0  0  0  0
    2.2196    0.3364    1.3494 H   0  0  0  0  0  0  0  0  0  0  0  0
    2.9959   -0.9536   -0.6204 H   0  0  0  0  0  0  0  0  0  0  0  0
    4.5283   -0.3764   -0.1571 H   0  0  0  0  0  0  0  0  0  0  0  0
    2.2781   -3.0885   -0.1821 H   0  0  0  0  0  0  0  0  0  0  0  0
    3.0871   -3.9197   -1.4216 H   0  0  0  0  0  0  0  0  0  0  0  0
    2.3856   -5.3818    0.0704 H   0  0  0  0  0  0  0  0  0  0  0  0
    4.0555   -5.5470    0.1421 H   0  0  0  0  0  0  0  0  0  0  0  0
    2.4375   -4.0320    2.2352 H   0  0  0  0  0  0  0  0  0  0  0  0
    1.2734   -6.6706    4.3379 H   0  0  0  0  0  0  0  0  0  0  0  0
    1.7451   -4.9887    4.2934 H   0  0  0  0  0  0  0  0  0  0  0  0
    2.8590   -6.2590    4.8143 H   0  0  0  0  0  0  0  0  0  0  0  0
    0.7968   -7.4567    2.4168 H   0  0  0  0  0  0  0  0  0  0  0  0
    1.4894   -7.0622    0.8928 H   0  0  0  0  0  0  0  0  0  0  0  0
    0.5835   -5.8370    1.7780 H   0  0  0  0  0  0  0  0  0  0  0  0
    3.2932   -8.1406    3.1782 H   0  0  0  0  0  0  0  0  0  0  0  0
    4.2936   -8.6655    1.3561 H   0  0  0  0  0  0  0  0  0  0  0  0
    5.0005   -6.8404    4.2106 H   0  0  0  0  0  0  0  0  0  0  0  0
    5.7710   -7.6691    2.9165 H   0  0  0  0  0  0  0  0  0  0  0  0
    6.4944   -5.2889    3.0312 H   0  0  0  0  0  0  0  0  0  0  0  0
    5.8008   -5.7415    1.5095 H   0  0  0  0  0  0  0  0  0  0  0  0
    4.4188   -4.9088    4.8353 H   0  0  0  0  0  0  0  0  0  0  0  0
    3.5268   -3.4625    4.4109 H   0  0  0  0  0  0  0  0  0  0  0  0
    5.2782   -3.4660    4.5523 H   0  0  0  0  0  0  0  0  0  0  0  0
  1  2  2  0
  1 27  1  0
  1 28  1  0
  2 14  1  0
  2  3  1  0
  3  7  1  0
  3  4  1  0
  3 29  1  6
  4  5  1  0
  4 30  1  0
  4 31  1  0
  5 14  1  0
  5  6  1  1
  5  8  1  0
  6  7  1  0
  6 32  1  0
  6 33  1  0
  8 25  1  0
  8  9  1  0
  8 34  1  1
  9 10  2  0
  9 11  1  0
 11 12  1  0
 11 13  1  0
 11 35  1  6
 12 36  1  0
 14 13  1  1
 13 37  1  0
 13 38  1  0
 14 15  1  0
 15 16  1  0
 15 39  1  0
 15 40  1  0
 16 17  1  0
 16 41  1  0
 16 42  1  0
 17 25  1  0
 17 18  1  0
 17 43  1  6
 18 19  1  0
 18 20  1  0
 18 21  1  0
 19 44  1  0
 19 45  1  0
 19 46  1  0
 20 47  1  0
 20 48  1  0
 20 49  1  0
 21 22  1  0
 21 23  1  0
 21 50  1  1
 22 51  1  0
 23 24  1  0
 23 52  1  0
 23 53  1  0
 24 25  1  0
 24 54  1  0
 24 55  1  0
 25 26  1  1
 26 56  1  0
 26 57  1  0
 26 58  1  0
M  END
>  <i_m_ct_stereo_status>  (268) 
1

>  <s_m_source_file>  (268) 
/var/tmp/pbs.5076255.sched01/tmplj_yfvzq/807e0r74np.sdf

>  <i_m_source_file_index>  (268) 
31

>  <i_lp_mmshare_version>  (268) 
48012

>  <i_f3d_flags>  (268) 
0

>  <s_epik_input>  (268) 
W0NIMl0xT1tDQEBIXShbQ0gyXTIpQyg9W0NIMl0pW0NAQF0zKFtDQF0xMjQpW0NIMl1bQ0BIXShbT0hdKUMoPU8pW0NASF00W0NAQF01KFtDSDNdKVtDQEBIXShbQ0gyXVtDSDJdMylDKFtDSDNdKShbQ0gzXSlbQ0BASF0oW09IXSlbQ0gyXVtDSDJdNQ==

>  <s_epik_cmdline>  (268) 
J2VwaWtfcHl0aG9uJywgJy1waHQnLCAnMi4wJywgJy1waCcsICc3LjAnLCAnLXRuJywgJzgnLCAnLW1hJywgJzIwMCcsICctaW1hZScsICc8aW5maWxlLm1hZT4nLCAnLW9tYWUnLCAnPG91dGZpbGUubWFlPic=

>  <r_lp_tautomer_probability>  (268) 
1

>  <r_epik_Ionization_Penalty>  (268) 
2.0839e-06

>  <r_epik_Ionization_Penalty_Charging>  (268) 
0

>  <r_epik_Ionization_Penalty_Neutral>  (268) 
2.0839e-06

>  <r_epik_State_Penalty>  (268) 
-0

>  <r_epik_Charging_Adjusted_Penalty>  (268) 
0

>  <i_epik_Tot_Q>  (268) 
0

>  <i_epik_Tot_abs_Q>  (268) 
0

>  <s_lp_Force_Field>  (268) 
OPLS3e

>  <r_lp_Energy>  (268) 
87.8698

>  <b_lp_Chiralities_Consistent>  (268) 
1

>  <s_lp_Variant>  (268) 
81:0-1

>  <s_i_glide_gridfile>  (268) 
pfpi4k_grid

>  <i_i_glide_lignum>  (268) 
31

>  <i_i_glide_rotatable_bonds>  (268) 
2

>  <r_i_docking_score>  (268) 
-3.48451

>  <r_i_glide_ligand_efficiency>  (268) 
-0.13402

>  <r_i_glide_ligand_efficiency_sa>  (268) 
-0.397033

>  <r_i_glide_ligand_efficiency_ln>  (268) 
-0.818327

>  <r_i_glide_gscore>  (268) 
-3.48451

>  <r_i_glide_lipo>  (268) 
-0.36744

>  <r_i_glide_hbond>  (268) 
-0.16

>  <r_i_glide_metal>  (268) 
-0

>  <r_i_glide_rewards>  (268) 
-0.998611

>  <r_i_glide_evdw>  (268) 
-27.3987

>  <r_i_glide_ecoul>  (268) 
-3.92353

>  <r_i_glide_erotb>  (268) 
0

>  <r_i_glide_esite>  (268) 
0

>  <r_i_glide_emodel>  (268) 
-38.1109

>  <r_i_glide_energy>  (268) 
-31.3222

>  <r_i_glide_einternal>  (268) 
0.455135

>  <r_i_glide_intrahb_reward>  (268) 
-0

>  <i_i_glide_confnum>  (268) 
1

>  <i_i_glide_posenum>  (268) 
28

>  <r_i_glide_eff_state_penalty>  (268) 
0

>  <ligand_id>  (268) 
81

>  <original_smiles>  (268) 
C=C1C2CC3(CO2)C2C(=O)C(O)CC13CCC1C(C)(C)C(O)CCC12C

>  <smiles>  (268) 
[H]OC1([H])C(=O)C2([H])C3(C([H])([H])[H])C([H])([H])C([H])([H])C([H])(O[H])C(C([H])([H])[H])(C([H])([H])[H])C3([H])C([H])([H])C([H])([H])C3(C(=C([H])[H])C4([H])OC([H])([H])C23C4([H])[H])C1([H])[H]

$$$$
81:0:2
     RDKit          3D

 58 62  0  0  1  0  0  0  0  0999 V2000
    4.7255   -2.2691   -2.9450 C   0  0  0  0  0  0  0  0  0  0  0  0
    5.1692   -2.5510   -1.7107 C   0  0  0  0  0  0  0  0  0  0  0  0
    6.5741   -2.9825   -1.3487 C   0  0  2  0  0  0  0  0  0  0  0  0
    6.3751   -3.8775   -0.1269 C   0  0  0  0  0  0  0  0  0  0  0  0
    5.5203   -2.8319    0.5935 C   0  0  2  0  0  0  0  0  0  0  0  0
    6.6188   -1.7160    0.5247 C   0  0  0  0  0  0  0  0  0  0  0  0
    7.2223   -1.8732   -0.7559 O   0  0  0  0  0  0  0  0  0  0  0  0
    5.0191   -2.9431    2.0677 C   0  0  1  0  0  0  0  0  0  0  0  0
    4.2428   -1.6241    2.3693 C   0  0  0  0  0  0  0  0  0  0  0  0
    4.5072   -0.9681    3.3788 O   0  0  0  0  0  0  0  0  0  0  0  0
    3.1860   -1.1587    1.3472 C   0  0  1  0  0  0  0  0  0  0  0  0
    2.7045    0.1340    1.6507 O   0  0  0  0  0  0  0  0  0  0  0  0
    3.7478   -1.1703   -0.0935 C   0  0  0  0  0  0  0  0  0  0  0  0
    4.3748   -2.5402   -0.4153 C   0  0  1  0  0  0  0  0  0  0  0  0
    3.2185   -3.5897   -0.4906 C   0  0  0  0  0  0  0  0  0  0  0  0
    3.2313   -4.8594    0.3810 C   0  0  0  0  0  0  0  0  0  0  0  0
    3.0340   -4.7538    1.9267 C   0  0  1  0  0  0  0  0  0  0  0  0
    2.4410   -6.1170    2.5226 C   0  0  0  0  0  0  0  0  0  0  0  0
    1.8420   -5.9301    3.9476 C   0  0  0  0  0  0  0  0  0  0  0  0
    1.2180   -6.6485    1.7155 C   0  0  0  0  0  0  0  0  0  0  0  0
    3.5411   -7.2283    2.5849 C   0  0  1  0  0  0  0  0  0  0  0  0
    3.8408   -7.7706    1.3138 O   0  0  0  0  0  0  0  0  0  0  0  0
    4.8663   -6.7601    3.2133 C   0  0  0  0  0  0  0  0  0  0  0  0
    5.3868   -5.4251    2.6417 C   0  0  0  0  0  0  0  0  0  0  0  0
    4.3550   -4.2598    2.6576 C   0  0  1  0  0  0  0  0  0  0  0  0
    4.1083   -3.9087    4.1614 C   0  0  0  0  0  0  0  0  0  0  0  0
    3.7025   -1.9752   -3.1308 H   0  0  0  0  0  0  0  0  0  0  0  0
    5.4004   -2.3358   -3.7821 H   0  0  0  0  0  0  0  0  0  0  0  0
    7.1363   -3.4147   -2.1765 H   0  0  0  0  0  0  0  0  0  0  0  0
    5.8855   -4.7967   -0.4321 H   0  0  0  0  0  0  0  0  0  0  0  0
    7.3088   -4.1232    0.3846 H   0  0  0  0  0  0  0  0  0  0  0  0
    6.2753   -0.6916    0.6714 H   0  0  0  0  0  0  0  0  0  0  0  0
    7.3917   -1.8900    1.2763 H   0  0  0  0  0  0  0  0  0  0  0  0
    5.9267   -2.8424    2.6617 H   0  0  0  0  0  0  0  0  0  0  0  0
    2.3391   -1.8380    1.4297 H   0  0  0  0  0  0  0  0  0  0  0  0
    1.9727    0.3158    1.0781 H   0  0  0  0  0  0  0  0  0  0  0  0
    2.9653   -0.9762   -0.8169 H   0  0  0  0  0  0  0  0  0  0  0  0
    4.4356   -0.3413   -0.2490 H   0  0  0  0  0  0  0  0  0  0  0  0
    2.2480   -3.1081   -0.3632 H   0  0  0  0  0  0  0  0  0  0  0  0
    3.1631   -3.9466   -1.5190 H   0  0  0  0  0  0  0  0  0  0  0  0
    2.3950   -5.3939   -0.0519 H   0  0  0  0  0  0  0  0  0  0  0  0
    4.0649   -5.5009    0.1332 H   0  0  0  0  0  0  0  0  0  0  0  0
    2.2630   -3.9965    2.0793 H   0  0  0  0  0  0  0  0  0  0  0  0
    1.0223   -6.6188    4.1584 H   0  0  0  0  0  0  0  0  0  0  0  0
    1.4499   -4.9252    4.1057 H   0  0  0  0  0  0  0  0  0  0  0  0
    2.5590   -6.1520    4.7332 H   0  0  0  0  0  0  0  0  0  0  0  0
    0.7002   -7.4573    2.2321 H   0  0  0  0  0  0  0  0  0  0  0  0
    1.4801   -7.0752    0.7506 H   0  0  0  0  0  0  0  0  0  0  0  0
    0.4900   -5.8605    1.5458 H   0  0  0  0  0  0  0  0  0  0  0  0
    3.1591   -8.0614    3.1757 H   0  0  0  0  0  0  0  0  0  0  0  0
    4.2114   -7.0896    0.7799 H   0  0  0  0  0  0  0  0  0  0  0  0
    4.7512   -6.6902    4.2911 H   0  0  0  0  0  0  0  0  0  0  0  0
    5.6278   -7.5298    3.0739 H   0  0  0  0  0  0  0  0  0  0  0  0
    6.2833   -5.1248    3.1878 H   0  0  0  0  0  0  0  0  0  0  0  0
    5.7185   -5.6278    1.6302 H   0  0  0  0  0  0  0  0  0  0  0  0
    4.0787   -4.7613    4.8283 H   0  0  0  0  0  0  0  0  0  0  0  0
    3.1822   -3.3484    4.3068 H   0  0  0  0  0  0  0  0  0  0  0  0
    4.9196   -3.3021    4.5704 H   0  0  0  0  0  0  0  0  0  0  0  0
  1  2  2  0
  1 27  1  0
  1 28  1  0
  2 14  1  0
  2  3  1  0
  3  7  1  0
  3  4  1  0
  3 29  1  6
  4  5  1  0
  4 30  1  0
  4 31  1  0
  5 14  1  0
  5  6  1  1
  5  8  1  0
  6  7  1  0
  6 32  1  0
  6 33  1  0
  8 25  1  0
  8  9  1  0
  8 34  1  1
  9 10  2  0
  9 11  1  0
 11 12  1  0
 11 13  1  0
 11 35  1  6
 12 36  1  0
 14 13  1  1
 13 37  1  0
 13 38  1  0
 14 15  1  0
 15 16  1  0
 15 39  1  0
 15 40  1  0
 16 17  1  0
 16 41  1  0
 16 42  1  0
 17 25  1  0
 17 18  1  0
 17 43  1  6
 18 19  1  0
 18 20  1  0
 18 21  1  0
 19 44  1  0
 19 45  1  0
 19 46  1  0
 20 47  1  0
 20 48  1  0
 20 49  1  0
 21 22  1  0
 21 23  1  0
 21 50  1  1
 22 51  1  0
 23 24  1  0
 23 52  1  0
 23 53  1  0
 24 25  1  0
 24 54  1  0
 24 55  1  0
 25 26  1  1
 26 56  1  0
 26 57  1  0
 26 58  1  0
M  END
>  <i_m_ct_stereo_status>  (269) 
1

>  <s_m_source_file>  (269) 
/var/tmp/pbs.5076255.sched01/tmplj_yfvzq/807e0r74np.sdf

>  <i_m_source_file_index>  (269) 
31

>  <i_lp_mmshare_version>  (269) 
48012

>  <i_f3d_flags>  (269) 
0

>  <s_epik_input>  (269) 
W0NIMl0xT1tDQEBIXShbQ0gyXTIpQyg9W0NIMl0pW0NAQF0zKFtDQF0xMjQpW0NIMl1bQ0BIXShbT0hdKUMoPU8pW0NASF00W0NAQF01KFtDSDNdKVtDQEBIXShbQ0gyXVtDSDJdMylDKFtDSDNdKShbQ0gzXSlbQ0BASF0oW09IXSlbQ0gyXVtDSDJdNQ==

>  <s_epik_cmdline>  (269) 
J2VwaWtfcHl0aG9uJywgJy1waHQnLCAnMi4wJywgJy1waCcsICc3LjAnLCAnLXRuJywgJzgnLCAnLW1hJywgJzIwMCcsICctaW1hZScsICc8aW5maWxlLm1hZT4nLCAnLW9tYWUnLCAnPG91dGZpbGUubWFlPic=

>  <r_lp_tautomer_probability>  (269) 
1

>  <r_epik_Ionization_Penalty>  (269) 
2.0839e-06

>  <r_epik_Ionization_Penalty_Charging>  (269) 
0

>  <r_epik_Ionization_Penalty_Neutral>  (269) 
2.0839e-06

>  <r_epik_State_Penalty>  (269) 
-0

>  <r_epik_Charging_Adjusted_Penalty>  (269) 
0

>  <i_epik_Tot_Q>  (269) 
0

>  <i_epik_Tot_abs_Q>  (269) 
0

>  <s_lp_Force_Field>  (269) 
OPLS3e

>  <r_lp_Energy>  (269) 
87.8698

>  <b_lp_Chiralities_Consistent>  (269) 
1

>  <s_lp_Variant>  (269) 
81:0-1

>  <s_i_glide_gridfile>  (269) 
pfpi4k_grid

>  <i_i_glide_lignum>  (269) 
31

>  <i_i_glide_rotatable_bonds>  (269) 
2

>  <r_i_docking_score>  (269) 
-3.45862

>  <r_i_glide_ligand_efficiency>  (269) 
-0.133024

>  <r_i_glide_ligand_efficiency_sa>  (269) 
-0.394082

>  <r_i_glide_ligand_efficiency_ln>  (269) 
-0.812245

>  <r_i_glide_gscore>  (269) 
-3.45862

>  <r_i_glide_lipo>  (269) 
-0.344491

>  <r_i_glide_hbond>  (269) 
-0.16

>  <r_i_glide_metal>  (269) 
-0

>  <r_i_glide_rewards>  (269) 
-0.969362

>  <r_i_glide_evdw>  (269) 
-27.3776

>  <r_i_glide_ecoul>  (269) 
-4.10588

>  <r_i_glide_erotb>  (269) 
0

>  <r_i_glide_esite>  (269) 
0

>  <r_i_glide_emodel>  (269) 
-38.5113

>  <r_i_glide_energy>  (269) 
-31.4835

>  <r_i_glide_einternal>  (269) 
0.0192368

>  <r_i_glide_intrahb_reward>  (269) 
-0

>  <i_i_glide_confnum>  (269) 
1

>  <i_i_glide_posenum>  (269) 
13

>  <r_i_glide_eff_state_penalty>  (269) 
0

>  <ligand_id>  (269) 
81

>  <original_smiles>  (269) 
C=C1C2CC3(CO2)C2C(=O)C(O)CC13CCC1C(C)(C)C(O)CCC12C

>  <smiles>  (269) 
[H]OC1([H])C(=O)C2([H])C3(C([H])([H])[H])C([H])([H])C([H])([H])C([H])(O[H])C(C([H])([H])[H])(C([H])([H])[H])C3([H])C([H])([H])C([H])([H])C3(C(=C([H])[H])C4([H])OC([H])([H])C23C4([H])[H])C1([H])[H]

$$$$
82:0:0
     RDKit          3D

 68 71  0  0  1  0  0  0  0  0999 V2000
    4.9462    1.0182    6.9939 C   0  0  0  0  0  0  0  0  0  0  0  0
    4.1543    0.8920    5.9003 C   0  0  0  0  0  0  0  0  0  0  0  0
    4.7409    0.2287    4.7156 C   0  0  0  0  0  0  0  0  0  0  0  0
    5.8824    0.5034    4.3228 O   0  0  0  0  0  0  0  0  0  0  0  0
    3.9501   -0.9020    3.9887 C   0  0  0  0  0  0  0  0  0  0  0  0
    4.2956   -0.8545    2.4839 C   0  0  0  0  0  0  0  0  0  0  0  0
    4.4828   -2.2413    4.5631 C   0  0  0  0  0  0  0  0  0  0  0  0
    2.3753   -0.7655    4.1414 C   0  0  1  0  0  0  0  0  0  0  0  0
    1.6339   -2.0962    3.8736 C   0  0  0  0  0  0  0  0  0  0  0  0
    2.0266   -0.1680    5.5370 C   0  0  2  0  0  0  0  0  0  0  0  0
    0.6200   -0.1069    6.1615 C   0  0  2  0  0  0  0  0  0  0  0  0
   -0.3057    0.7825    5.3255 C   0  0  0  0  0  0  0  0  0  0  0  0
   -0.9670    0.4829    4.2048 C   0  0  0  0  0  0  0  0  0  0  0  0
   -1.6018    1.7001    3.5752 C   0  0  0  0  0  0  0  0  0  0  0  0
   -0.8871    2.8533    4.3148 C   0  0  1  0  0  0  0  0  0  0  0  0
   -1.6786    4.1547    4.4010 C   0  0  0  0  0  0  0  0  0  0  0  0
   -0.4825    2.2394    5.6727 C   0  0  2  0  0  0  0  0  0  0  0  0
    0.7036    2.8665    6.4514 C   0  0  0  0  0  0  0  0  0  0  0  0
    1.7789    1.8320    6.9574 C   0  0  1  0  0  0  0  0  0  0  0  0
    2.4890    2.4101    8.0579 O   0  0  0  0  0  0  0  0  0  0  0  0
    3.2168    3.6206    7.8605 C   0  0  0  0  0  0  0  0  0  0  0  0
    0.9811    0.5852    7.5200 C   0  0  0  0  0  0  0  0  0  0  0  0
   -0.2557    0.8919    8.4144 C   0  0  0  0  0  0  0  0  0  0  0  0
    1.8694   -0.2778    8.4642 C   0  0  0  0  0  0  0  0  0  0  0  0
    2.6504    1.2432    5.7404 C   0  0  1  0  0  0  0  0  0  0  0  0
    2.4038    1.9996    4.5181 O   0  0  0  0  0  0  0  0  0  0  0  0
    3.0067    3.1740    4.1441 C   0  0  0  0  0  0  0  0  0  0  0  0
    3.7773    3.8336    4.8315 O   0  0  0  0  0  0  0  0  0  0  0  0
    2.5976    3.6853    2.7489 C   0  0  0  0  0  0  0  0  0  0  0  0
    1.5381    4.6684    2.8824 N   0  0  0  0  0  0  0  0  0  0  0  0
    4.6178    1.3874    7.9495 H   0  0  0  0  0  0  0  0  0  0  0  0
    5.9746    0.6860    6.9616 H   0  0  0  0  0  0  0  0  0  0  0  0
    3.8199   -1.6596    1.9291 H   0  0  0  0  0  0  0  0  0  0  0  0
    5.3720   -0.9272    2.3015 H   0  0  0  0  0  0  0  0  0  0  0  0
    3.9601    0.0924    2.0515 H   0  0  0  0  0  0  0  0  0  0  0  0
    4.1515   -3.1039    3.9905 H   0  0  0  0  0  0  0  0  0  0  0  0
    4.1687   -2.3917    5.5971 H   0  0  0  0  0  0  0  0  0  0  0  0
    5.5703   -2.2755    4.5637 H   0  0  0  0  0  0  0  0  0  0  0  0
    2.0168   -0.0835    3.3742 H   0  0  0  0  0  0  0  0  0  0  0  0
    1.8573   -2.8706    4.6086 H   0  0  0  0  0  0  0  0  0  0  0  0
    1.8948   -2.4895    2.8856 H   0  0  0  0  0  0  0  0  0  0  0  0
    0.5544   -1.9558    3.8668 H   0  0  0  0  0  0  0  0  0  0  0  0
    2.5294   -0.8941    6.1643 H   0  0  0  0  0  0  0  0  0  0  0  0
    0.1757   -1.0963    6.2875 H   0  0  0  0  0  0  0  0  0  0  0  0
   -1.0060   -0.4809    3.7252 H   0  0  0  0  0  0  0  0  0  0  0  0
   -1.4111    1.7471    2.5017 H   0  0  0  0  0  0  0  0  0  0  0  0
   -2.6765    1.7413    3.7508 H   0  0  0  0  0  0  0  0  0  0  0  0
    0.0246    2.9618    3.7490 H   0  0  0  0  0  0  0  0  0  0  0  0
   -2.6140    4.0255    4.9433 H   0  0  0  0  0  0  0  0  0  0  0  0
   -1.9220    4.5323    3.4041 H   0  0  0  0  0  0  0  0  0  0  0  0
   -1.1122    4.9294    4.9218 H   0  0  0  0  0  0  0  0  0  0  0  0
   -1.3705    2.3175    6.3024 H   0  0  0  0  0  0  0  0  0  0  0  0
    1.1372    3.6985    5.9028 H   0  0  0  0  0  0  0  0  0  0  0  0
    0.2818    3.3661    7.3267 H   0  0  0  0  0  0  0  0  0  0  0  0
    3.6315    3.9494    8.8158 H   0  0  0  0  0  0  0  0  0  0  0  0
    2.6129    4.4304    7.4619 H   0  0  0  0  0  0  0  0  0  0  0  0
    4.0766    3.4785    7.2133 H   0  0  0  0  0  0  0  0  0  0  0  0
   -0.0879    1.7722    9.0328 H   0  0  0  0  0  0  0  0  0  0  0  0
   -0.4667    0.0646    9.0988 H   0  0  0  0  0  0  0  0  0  0  0  0
   -1.1901    1.0354    7.8754 H   0  0  0  0  0  0  0  0  0  0  0  0
    1.9147    0.1672    9.4609 H   0  0  0  0  0  0  0  0  0  0  0  0
    2.9091   -0.3675    8.1528 H   0  0  0  0  0  0  0  0  0  0  0  0
    1.4682   -1.2884    8.5757 H   0  0  0  0  0  0  0  0  0  0  0  0
    3.4718    4.1304    2.2744 H   0  0  0  0  0  0  0  0  0  0  0  0
    2.2777    2.8326    2.1437 H   0  0  0  0  0  0  0  0  0  0  0  0
    1.1792    4.8924    1.9303 H   0  0  0  0  0  0  0  0  0  0  0  0
    1.7910    5.5054    3.3716 H   0  0  0  0  0  0  0  0  0  0  0  0
    0.7438    4.2413    3.3455 H   0  0  0  0  0  0  0  0  0  0  0  0
  1  2  2  0
  1 31  1  0
  1 32  1  0
  2 25  1  0
  2  3  1  0
  3  4  2  0
  3  5  1  0
  5  6  1  0
  5  7  1  0
  5  8  1  0
  6 33  1  0
  6 34  1  0
  6 35  1  0
  7 36  1  0
  7 37  1  0
  7 38  1  0
  8  9  1  0
  8 10  1  0
  8 39  1  6
  9 40  1  0
  9 41  1  0
  9 42  1  0
 10 25  1  0
 10 11  1  0
 10 43  1  1
 11 22  1  0
 11 12  1  0
 11 44  1  1
 12 17  1  0
 12 13  2  0
 13 14  1  0
 13 45  1  0
 14 15  1  0
 14 46  1  0
 14 47  1  0
 15 16  1  0
 15 17  1  0
 15 48  1  6
 16 49  1  0
 16 50  1  0
 16 51  1  0
 17 18  1  0
 17 52  1  1
 18 19  1  0
 18 53  1  0
 18 54  1  0
 19 20  1  1
 19 22  1  0
 19 25  1  0
 20 21  1  0
 21 55  1  0
 21 56  1  0
 21 57  1  0
 22 23  1  0
 22 24  1  0
 23 58  1  0
 23 59  1  0
 23 60  1  0
 24 61  1  0
 24 62  1  0
 24 63  1  0
 25 26  1  6
 26 27  1  0
 27 28  2  0
 27 29  1  0
 29 30  1  0
 29 64  1  0
 29 65  1  0
 30 66  1  0
 30 67  1  0
 30 68  1  0
M  CHG  1  30   1
M  END
>  <i_m_ct_stereo_status>  (270) 
1

>  <s_m_source_file>  (270) 
/var/tmp/pbs.5076255.sched01/tmplj_yfvzq/807e0r74np.sdf

>  <i_m_source_file_index>  (270) 
32

>  <i_lp_mmshare_version>  (270) 
48012

>  <i_f3d_flags>  (270) 
0

>  <s_epik_input>  (270) 
W0NIMl09QzFDKD1PKUMoW0NIM10pKFtDSDNdKVtDQEBIXShbQ0gzXSlbQ0BASF0oW0NAXTEoW0NAQF0yM09bQ0gzXSlPQyg9TylbQ0gyXVtOSDJdKVtDQEBIXShDMyhbQ0gzXSlbQ0gzXSlDPTRbQ0BASF0oW0NIMl0yKVtDQEhdKFtDSDNdKVtDSDJdW0NIXTQ=

>  <s_epik_cmdline>  (270) 
J2VwaWtfcHl0aG9uJywgJy1waHQnLCAnMi4wJywgJy1waCcsICc3LjAnLCAnLXRuJywgJzgnLCAnLW1hJywgJzIwMCcsICctaW1hZScsICc8aW5maWxlLm1hZT4nLCAnLW9tYWUnLCAnPG91dGZpbGUubWFlPic=

>  <r_epik_Ionization_Penalty>  (270) 
0.351093

>  <r_epik_Ionization_Penalty_Charging>  (270) 
0.351093

>  <r_epik_Ionization_Penalty_Neutral>  (270) 
7.70931e-13

>  <r_epik_State_Penalty>  (270) 
0.347333

>  <r_epik_Charging_Adjusted_Penalty>  (270) 
0.698426

>  <i_epik_Tot_Q>  (270) 
1

>  <i_epik_Tot_abs_Q>  (270) 
1

>  <s_epik_Chemistry_Notes>  (270) 
This compound has an ester and may undergo hydrolysis at high or low pH.

>  <s_lp_Force_Field>  (270) 
OPLS3e

>  <r_lp_Energy>  (270) 
71.6777

>  <b_lp_Chiralities_Consistent>  (270) 
1

>  <s_lp_Variant>  (270) 
82:0-1

>  <s_i_glide_gridfile>  (270) 
pfpi4k_grid

>  <i_i_glide_lignum>  (270) 
32

>  <i_i_glide_rotatable_bonds>  (270) 
4

>  <r_i_docking_score>  (270) 
-2.78437

>  <r_i_glide_ligand_efficiency>  (270) 
-0.0928122

>  <r_i_glide_ligand_efficiency_sa>  (270) 
-0.288389

>  <r_i_glide_ligand_efficiency_ln>  (270) 
-0.632638

>  <r_i_glide_gscore>  (270) 
-2.78437

>  <r_i_glide_lipo>  (270) 
-0.0802436

>  <r_i_glide_hbond>  (270) 
-0.173769

>  <r_i_glide_metal>  (270) 
-0

>  <r_i_glide_rewards>  (270) 
-0.638746

>  <r_i_glide_evdw>  (270) 
-17.666

>  <r_i_glide_ecoul>  (270) 
-7.47892

>  <r_i_glide_erotb>  (270) 
0.227705

>  <r_i_glide_esite>  (270) 
-0.114177

>  <r_i_glide_emodel>  (270) 
-29.3722

>  <r_i_glide_energy>  (270) 
-25.1449

>  <r_i_glide_einternal>  (270) 
0.841269

>  <r_i_glide_intrahb_reward>  (270) 
-0

>  <i_i_glide_confnum>  (270) 
3

>  <i_i_glide_posenum>  (270) 
32

>  <r_i_glide_eff_state_penalty>  (270) 
0

>  <ligand_id>  (270) 
82

>  <original_smiles>  (270) 
C=C1C(=O)C(C)(C)C(C)C2C3C4=CCC(C)C4CC(OC)(C3(C)C)C12OC(=O)CN

>  <smiles>  (270) 
[H]C([H])=C1C(=O)C(C([H])([H])[H])(C([H])([H])[H])C([H])(C([H])([H])[H])C2([H])C3([H])C4=C([H])C([H])([H])C([H])(C([H])([H])[H])C4([H])C([H])([H])C(OC([H])([H])[H])(C12OC(=O)C([H])([H])[N+]([H])([H])[H])C3(C([H])([H])[H])C([H])([H])[H]

$$$$
82:0:1
     RDKit          3D

 68 71  0  0  1  0  0  0  0  0999 V2000
    7.2178   -3.4554   -0.8502 C   0  0  0  0  0  0  0  0  0  0  0  0
    5.9463   -3.1568   -0.5106 C   0  0  0  0  0  0  0  0  0  0  0  0
    5.1700   -2.3678   -1.4999 C   0  0  0  0  0  0  0  0  0  0  0  0
    5.6823   -1.4310   -2.0916 O   0  0  0  0  0  0  0  0  0  0  0  0
    3.6870   -2.7373   -1.7814 C   0  0  0  0  0  0  0  0  0  0  0  0
    2.9752   -1.4333   -2.1471 C   0  0  0  0  0  0  0  0  0  0  0  0
    3.7548   -3.5931   -3.0629 C   0  0  0  0  0  0  0  0  0  0  0  0
    2.9572   -3.4295   -0.5354 C   0  0  1  0  0  0  0  0  0  0  0  0
    1.6859   -4.2159   -0.8848 C   0  0  0  0  0  0  0  0  0  0  0  0
    3.9696   -4.3059    0.2511 C   0  0  2  0  0  0  0  0  0  0  0  0
    3.6327   -5.3095    1.3753 C   0  0  2  0  0  0  0  0  0  0  0  0
    3.0670   -4.5746    2.5849 C   0  0  0  0  0  0  0  0  0  0  0  0
    1.7952   -4.2041    2.7699 C   0  0  0  0  0  0  0  0  0  0  0  0
    1.6208   -3.3305    3.9906 C   0  0  0  0  0  0  0  0  0  0  0  0
    3.0862   -2.9451    4.3427 C   0  0  1  0  0  0  0  0  0  0  0  0
    3.3224   -2.7104    5.8348 C   0  0  0  0  0  0  0  0  0  0  0  0
    3.9093   -4.1120    3.7359 C   0  0  2  0  0  0  0  0  0  0  0  0
    5.3968   -3.9136    3.3593 C   0  0  0  0  0  0  0  0  0  0  0  0
    5.7850   -4.4888    1.9395 C   0  0  1  0  0  0  0  0  0  0  0  0
    7.2157   -4.6650    1.8584 O   0  0  0  0  0  0  0  0  0  0  0  0
    7.8955   -5.6302    2.6584 C   0  0  0  0  0  0  0  0  0  0  0  0
    5.0483   -5.8661    1.7058 C   0  0  0  0  0  0  0  0  0  0  0  0
    5.0162   -6.8814    2.8872 C   0  0  0  0  0  0  0  0  0  0  0  0
    5.6792   -6.6327    0.5137 C   0  0  0  0  0  0  0  0  0  0  0  0
    5.1790   -3.4904    0.7929 C   0  0  1  0  0  0  0  0  0  0  0  0
    4.5778   -2.2913    1.3854 O   0  0  0  0  0  0  0  0  0  0  0  0
    5.0729   -1.0183    1.3261 C   0  0  0  0  0  0  0  0  0  0  0  0
    6.1886   -0.7019    0.9048 O   0  0  0  0  0  0  0  0  0  0  0  0
    4.0919    0.0712    1.7707 C   0  0  0  0  0  0  0  0  0  0  0  0
    2.6960   -0.3313    1.5177 N   0  0  0  0  0  0  0  0  0  0  0  0
    7.8828   -4.0272   -0.2233 H   0  0  0  0  0  0  0  0  0  0  0  0
    7.6132   -3.1678   -1.8151 H   0  0  0  0  0  0  0  0  0  0  0  0
    1.9553   -1.6835   -2.4260 H   0  0  0  0  0  0  0  0  0  0  0  0
    3.4030   -0.8788   -2.9876 H   0  0  0  0  0  0  0  0  0  0  0  0
    2.9824   -0.7576   -1.2858 H   0  0  0  0  0  0  0  0  0  0  0  0
    2.7655   -3.8717   -3.4103 H   0  0  0  0  0  0  0  0  0  0  0  0
    4.3191   -4.5090   -2.8836 H   0  0  0  0  0  0  0  0  0  0  0  0
    4.2352   -3.0588   -3.8876 H   0  0  0  0  0  0  0  0  0  0  0  0
    2.5982   -2.6364    0.1092 H   0  0  0  0  0  0  0  0  0  0  0  0
    1.7934   -5.0157   -1.5306 H   0  0  0  0  0  0  0  0  0  0  0  0
    0.9529   -3.6057   -1.4101 H   0  0  0  0  0  0  0  0  0  0  0  0
    1.2796   -4.6980   -0.0143 H   0  0  0  0  0  0  0  0  0  0  0  0
    4.2628   -4.9373   -0.5828 H   0  0  0  0  0  0  0  0  0  0  0  0
    2.9395   -6.0742    1.0211 H   0  0  0  0  0  0  0  0  0  0  0  0
    1.0327   -4.4657    2.0813 H   0  0  0  0  0  0  0  0  0  0  0  0
    1.0132   -2.4532    3.7762 H   0  0  0  0  0  0  0  0  0  0  0  0
    1.1253   -3.9000    4.7819 H   0  0  0  0  0  0  0  0  0  0  0  0
    3.3308   -2.0329    3.7959 H   0  0  0  0  0  0  0  0  0  0  0  0
    3.0637   -3.5895    6.4309 H   0  0  0  0  0  0  0  0  0  0  0  0
    2.7138   -1.8744    6.1901 H   0  0  0  0  0  0  0  0  0  0  0  0
    4.3706   -2.4723    6.0155 H   0  0  0  0  0  0  0  0  0  0  0  0
    3.8578   -4.9190    4.4734 H   0  0  0  0  0  0  0  0  0  0  0  0
    5.6815   -2.8638    3.4608 H   0  0  0  0  0  0  0  0  0  0  0  0
    5.9358   -4.4381    4.1484 H   0  0  0  0  0  0  0  0  0  0  0  0
    8.9625   -5.4725    2.5385 H   0  0  0  0  0  0  0  0  0  0  0  0
    7.5599   -6.6294    2.4098 H   0  0  0  0  0  0  0  0  0  0  0  0
    7.7144   -5.4570    3.7224 H   0  0  0  0  0  0  0  0  0  0  0  0
    5.9392   -6.7975    3.4633 H   0  0  0  0  0  0  0  0  0  0  0  0
    4.9246   -7.9050    2.5128 H   0  0  0  0  0  0  0  0  0  0  0  0
    4.0998   -6.8170    3.4809 H   0  0  0  0  0  0  0  0  0  0  0  0
    6.5660   -7.1517    0.8623 H   0  0  0  0  0  0  0  0  0  0  0  0
    6.0054   -5.9723   -0.2888 H   0  0  0  0  0  0  0  0  0  0  0  0
    4.9643   -7.3206    0.0514 H   0  0  0  0  0  0  0  0  0  0  0  0
    4.2728    0.3137    2.8168 H   0  0  0  0  0  0  0  0  0  0  0  0
    4.2760    0.9588    1.1750 H   0  0  0  0  0  0  0  0  0  0  0  0
    2.0818    0.4069    1.8385 H   0  0  0  0  0  0  0  0  0  0  0  0
    2.5197   -1.1923    2.0184 H   0  0  0  0  0  0  0  0  0  0  0  0
    2.5202   -0.4928    0.5288 H   0  0  0  0  0  0  0  0  0  0  0  0
  1  2  2  0
  1 31  1  0
  1 32  1  0
  2 25  1  0
  2  3  1  0
  3  4  2  0
  3  5  1  0
  5  6  1  0
  5  7  1  0
  5  8  1  0
  6 33  1  0
  6 34  1  0
  6 35  1  0
  7 36  1  0
  7 37  1  0
  7 38  1  0
  8  9  1  0
  8 10  1  0
  8 39  1  1
  9 40  1  0
  9 41  1  0
  9 42  1  0
 10 25  1  0
 10 11  1  0
 10 43  1  6
 11 22  1  0
 11 12  1  0
 11 44  1  6
 12 17  1  0
 12 13  2  0
 13 14  1  0
 13 45  1  0
 14 15  1  0
 14 46  1  0
 14 47  1  0
 15 16  1  0
 15 17  1  0
 15 48  1  6
 16 49  1  0
 16 50  1  0
 16 51  1  0
 17 18  1  0
 17 52  1  1
 18 19  1  0
 18 53  1  0
 18 54  1  0
 19 20  1  1
 19 22  1  0
 19 25  1  0
 20 21  1  0
 21 55  1  0
 21 56  1  0
 21 57  1  0
 22 23  1  0
 22 24  1  0
 23 58  1  0
 23 59  1  0
 23 60  1  0
 24 61  1  0
 24 62  1  0
 24 63  1  0
 25 26  1  1
 26 27  1  0
 27 28  2  0
 27 29  1  0
 29 30  1  0
 29 64  1  0
 29 65  1  0
 30 66  1  0
 30 67  1  0
 30 68  1  0
M  CHG  1  30   1
M  END
>  <i_m_ct_stereo_status>  (271) 
1

>  <s_m_source_file>  (271) 
/var/tmp/pbs.5076255.sched01/tmplj_yfvzq/807e0r74np.sdf

>  <i_m_source_file_index>  (271) 
32

>  <i_lp_mmshare_version>  (271) 
48012

>  <i_f3d_flags>  (271) 
0

>  <s_epik_input>  (271) 
W0NIMl09QzFDKD1PKUMoW0NIM10pKFtDSDNdKVtDQEBIXShbQ0gzXSlbQ0BASF0oW0NAXTEoW0NAQF0yM09bQ0gzXSlPQyg9TylbQ0gyXVtOSDJdKVtDQEBIXShDMyhbQ0gzXSlbQ0gzXSlDPTRbQ0BASF0oW0NIMl0yKVtDQEhdKFtDSDNdKVtDSDJdW0NIXTQ=

>  <s_epik_cmdline>  (271) 
J2VwaWtfcHl0aG9uJywgJy1waHQnLCAnMi4wJywgJy1waCcsICc3LjAnLCAnLXRuJywgJzgnLCAnLW1hJywgJzIwMCcsICctaW1hZScsICc8aW5maWxlLm1hZT4nLCAnLW9tYWUnLCAnPG91dGZpbGUubWFlPic=

>  <r_epik_Ionization_Penalty>  (271) 
0.351093

>  <r_epik_Ionization_Penalty_Charging>  (271) 
0.351093

>  <r_epik_Ionization_Penalty_Neutral>  (271) 
7.70931e-13

>  <r_epik_State_Penalty>  (271) 
0.347333

>  <r_epik_Charging_Adjusted_Penalty>  (271) 
0.698426

>  <i_epik_Tot_Q>  (271) 
1

>  <i_epik_Tot_abs_Q>  (271) 
1

>  <s_epik_Chemistry_Notes>  (271) 
This compound has an ester and may undergo hydrolysis at high or low pH.

>  <s_lp_Force_Field>  (271) 
OPLS3e

>  <r_lp_Energy>  (271) 
71.6777

>  <b_lp_Chiralities_Consistent>  (271) 
1

>  <s_lp_Variant>  (271) 
82:0-1

>  <s_i_glide_gridfile>  (271) 
pfpi4k_grid

>  <i_i_glide_lignum>  (271) 
32

>  <i_i_glide_rotatable_bonds>  (271) 
4

>  <r_i_docking_score>  (271) 
-2.62022

>  <r_i_glide_ligand_efficiency>  (271) 
-0.0873405

>  <r_i_glide_ligand_efficiency_sa>  (271) 
-0.271387

>  <r_i_glide_ligand_efficiency_ln>  (271) 
-0.595341

>  <r_i_glide_gscore>  (271) 
-2.62022

>  <r_i_glide_lipo>  (271) 
-0.482614

>  <r_i_glide_hbond>  (271) 
-0.0906696

>  <r_i_glide_metal>  (271) 
-0

>  <r_i_glide_rewards>  (271) 
-0.727242

>  <r_i_glide_evdw>  (271) 
-12.1815

>  <r_i_glide_ecoul>  (271) 
-5.73655

>  <r_i_glide_erotb>  (271) 
0.227705

>  <r_i_glide_esite>  (271) 
-0.0778375

>  <r_i_glide_emodel>  (271) 
-16.0626

>  <r_i_glide_energy>  (271) 
-17.918

>  <r_i_glide_einternal>  (271) 
9.55497

>  <r_i_glide_intrahb_reward>  (271) 
-0

>  <i_i_glide_confnum>  (271) 
4

>  <i_i_glide_posenum>  (271) 
25

>  <r_i_glide_eff_state_penalty>  (271) 
0

>  <ligand_id>  (271) 
82

>  <original_smiles>  (271) 
C=C1C(=O)C(C)(C)C(C)C2C3C4=CCC(C)C4CC(OC)(C3(C)C)C12OC(=O)CN

>  <smiles>  (271) 
[H]C([H])=C1C(=O)C(C([H])([H])[H])(C([H])([H])[H])C([H])(C([H])([H])[H])C2([H])C3([H])C4=C([H])C([H])([H])C([H])(C([H])([H])[H])C4([H])C([H])([H])C(OC([H])([H])[H])(C12OC(=O)C([H])([H])[N+]([H])([H])[H])C3(C([H])([H])[H])C([H])([H])[H]

$$$$
82:0:2
     RDKit          3D

 68 71  0  0  1  0  0  0  0  0999 V2000
    2.8459    0.8028    7.1067 C   0  0  0  0  0  0  0  0  0  0  0  0
    1.9313    0.7184    6.1178 C   0  0  0  0  0  0  0  0  0  0  0  0
    1.7813   -0.5940    5.4411 C   0  0  0  0  0  0  0  0  0  0  0  0
    2.7504   -1.2722    5.0939 O   0  0  0  0  0  0  0  0  0  0  0  0
    0.3562   -1.1758    5.2063 C   0  0  0  0  0  0  0  0  0  0  0  0
    0.3656   -2.0062    3.9058 C   0  0  0  0  0  0  0  0  0  0  0  0
    0.0741   -2.1307    6.3944 C   0  0  0  0  0  0  0  0  0  0  0  0
   -0.7611   -0.0626    5.0619 C   0  0  1  0  0  0  0  0  0  0  0  0
   -2.1706   -0.6052    5.3193 C   0  0  0  0  0  0  0  0  0  0  0  0
   -0.4294    1.1533    5.9760 C   0  0  2  0  0  0  0  0  0  0  0  0
   -1.3608    2.3414    6.2951 C   0  0  2  0  0  0  0  0  0  0  0  0
   -1.7036    3.1386    5.0359 C   0  0  0  0  0  0  0  0  0  0  0  0
   -2.6175    2.8674    4.0970 C   0  0  0  0  0  0  0  0  0  0  0  0
   -2.5212    3.7729    2.9142 C   0  0  0  0  0  0  0  0  0  0  0  0
   -1.1451    4.4295    3.1306 C   0  0  1  0  0  0  0  0  0  0  0  0
   -0.9894    5.8049    2.4761 C   0  0  0  0  0  0  0  0  0  0  0  0
   -0.8916    4.3385    4.6363 C   0  0  2  0  0  0  0  0  0  0  0  0
    0.5538    4.3452    5.1753 C   0  0  0  0  0  0  0  0  0  0  0  0
    0.8529    3.2487    6.2589 C   0  0  1  0  0  0  0  0  0  0  0  0
    1.9647    3.6944    7.0437 O   0  0  0  0  0  0  0  0  0  0  0  0
    3.2062    3.9566    6.3970 C   0  0  0  0  0  0  0  0  0  0  0  0
   -0.3991    3.1660    7.2173 C   0  0  0  0  0  0  0  0  0  0  0  0
   -1.0072    4.5081    7.7044 C   0  0  0  0  0  0  0  0  0  0  0  0
   -0.0414    2.4713    8.5621 C   0  0  0  0  0  0  0  0  0  0  0  0
    0.9367    1.7859    5.6095 C   0  0  1  0  0  0  0  0  0  0  0  0
    0.9275    1.8178    4.1577 O   0  0  0  0  0  0  0  0  0  0  0  0
    2.0089    1.9299    3.3604 C   0  0  0  0  0  0  0  0  0  0  0  0
    3.1066    2.3137    3.7364 O   0  0  0  0  0  0  0  0  0  0  0  0
    1.8165    1.4157    1.9337 C   0  0  0  0  0  0  0  0  0  0  0  0
    0.4659    1.7421    1.4696 N   0  0  0  0  0  0  0  0  0  0  0  0
    3.0018    1.6797    7.7094 H   0  0  0  0  0  0  0  0  0  0  0  0
    3.4588   -0.0511    7.3612 H   0  0  0  0  0  0  0  0  0  0  0  0
   -0.5859   -2.4933    3.7311 H   0  0  0  0  0  0  0  0  0  0  0  0
    1.1237   -2.7905    3.9153 H   0  0  0  0  0  0  0  0  0  0  0  0
    0.5752   -1.3680    3.0443 H   0  0  0  0  0  0  0  0  0  0  0  0
   -0.8089   -2.7491    6.2401 H   0  0  0  0  0  0  0  0  0  0  0  0
   -0.0559   -1.5816    7.3265 H   0  0  0  0  0  0  0  0  0  0  0  0
    0.9047   -2.8140    6.5535 H   0  0  0  0  0  0  0  0  0  0  0  0
   -0.8065    0.2687    4.0236 H   0  0  0  0  0  0  0  0  0  0  0  0
   -2.3247   -0.9132    6.3462 H   0  0  0  0  0  0  0  0  0  0  0  0
   -2.3868   -1.4513    4.6748 H   0  0  0  0  0  0  0  0  0  0  0  0
   -2.9090    0.1430    5.0721 H   0  0  0  0  0  0  0  0  0  0  0  0
   -0.3447    0.6505    6.9342 H   0  0  0  0  0  0  0  0  0  0  0  0
   -2.2712    2.0243    6.7990 H   0  0  0  0  0  0  0  0  0  0  0  0
   -3.3382    2.0825    4.0825 H   0  0  0  0  0  0  0  0  0  0  0  0
   -2.5796    3.1709    2.0155 H   0  0  0  0  0  0  0  0  0  0  0  0
   -3.3406    4.4918    2.8959 H   0  0  0  0  0  0  0  0  0  0  0  0
   -0.4160    3.7374    2.7388 H   0  0  0  0  0  0  0  0  0  0  0  0
   -1.6527    6.5644    2.8017 H   0  0  0  0  0  0  0  0  0  0  0  0
   -1.2747    5.8358    1.4413 H   0  0  0  0  0  0  0  0  0  0  0  0
    0.0312    6.1563    2.6229 H   0  0  0  0  0  0  0  0  0  0  0  0
   -1.3806    5.2080    5.0521 H   0  0  0  0  0  0  0  0  0  0  0  0
    1.2672    4.3484    4.3538 H   0  0  0  0  0  0  0  0  0  0  0  0
    0.6884    5.3287    5.6308 H   0  0  0  0  0  0  0  0  0  0  0  0
    3.9148    4.3262    7.1401 H   0  0  0  0  0  0  0  0  0  0  0  0
    3.1416    4.6936    5.6003 H   0  0  0  0  0  0  0  0  0  0  0  0
    3.6563    3.0545    5.9951 H   0  0  0  0  0  0  0  0  0  0  0  0
   -0.2481    5.2769    7.8484 H   0  0  0  0  0  0  0  0  0  0  0  0
   -1.5387    4.3952    8.6531 H   0  0  0  0  0  0  0  0  0  0  0  0
   -1.7678    4.8971    7.0473 H   0  0  0  0  0  0  0  0  0  0  0  0
    0.4469    3.1759    9.2389 H   0  0  0  0  0  0  0  0  0  0  0  0
    0.6562    1.6425    8.4719 H   0  0  0  0  0  0  0  0  0  0  0  0
   -0.9361    2.1050    9.0677 H   0  0  0  0  0  0  0  0  0  0  0  0
    2.5840    1.8570    1.3096 H   0  0  0  0  0  0  0  0  0  0  0  0
    2.0115    0.3451    1.9321 H   0  0  0  0  0  0  0  0  0  0  0  0
    0.3306    1.3166    0.5576 H   0  0  0  0  0  0  0  0  0  0  0  0
    0.3358    2.7387    1.3799 H   0  0  0  0  0  0  0  0  0  0  0  0
   -0.2119    1.3447    2.1033 H   0  0  0  0  0  0  0  0  0  0  0  0
  1  2  2  0
  1 31  1  0
  1 32  1  0
  2 25  1  0
  2  3  1  0
  3  4  2  0
  3  5  1  0
  5  6  1  0
  5  7  1  0
  5  8  1  0
  6 33  1  0
  6 34  1  0
  6 35  1  0
  7 36  1  0
  7 37  1  0
  7 38  1  0
  8  9  1  0
  8 10  1  0
  8 39  1  6
  9 40  1  0
  9 41  1  0
  9 42  1  0
 10 25  1  0
 10 11  1  0
 10 43  1  1
 11 22  1  0
 11 12  1  0
 11 44  1  1
 12 17  1  0
 12 13  2  0
 13 14  1  0
 13 45  1  0
 14 15  1  0
 14 46  1  0
 14 47  1  0
 15 16  1  0
 15 17  1  0
 15 48  1  6
 16 49  1  0
 16 50  1  0
 16 51  1  0
 17 18  1  0
 17 52  1  1
 18 19  1  0
 18 53  1  0
 18 54  1  0
 19 20  1  1
 19 22  1  0
 19 25  1  0
 20 21  1  0
 21 55  1  0
 21 56  1  0
 21 57  1  0
 22 23  1  0
 22 24  1  0
 23 58  1  0
 23 59  1  0
 23 60  1  0
 24 61  1  0
 24 62  1  0
 24 63  1  0
 25 26  1  6
 26 27  1  0
 27 28  2  0
 27 29  1  0
 29 30  1  0
 29 64  1  0
 29 65  1  0
 30 66  1  0
 30 67  1  0
 30 68  1  0
M  CHG  1  30   1
M  END
>  <i_m_ct_stereo_status>  (272) 
1

>  <s_m_source_file>  (272) 
/var/tmp/pbs.5076255.sched01/tmplj_yfvzq/807e0r74np.sdf

>  <i_m_source_file_index>  (272) 
32

>  <i_lp_mmshare_version>  (272) 
48012

>  <i_f3d_flags>  (272) 
0

>  <s_epik_input>  (272) 
W0NIMl09QzFDKD1PKUMoW0NIM10pKFtDSDNdKVtDQEBIXShbQ0gzXSlbQ0BASF0oW0NAXTEoW0NAQF0yM09bQ0gzXSlPQyg9TylbQ0gyXVtOSDJdKVtDQEBIXShDMyhbQ0gzXSlbQ0gzXSlDPTRbQ0BASF0oW0NIMl0yKVtDQEhdKFtDSDNdKVtDSDJdW0NIXTQ=

>  <s_epik_cmdline>  (272) 
J2VwaWtfcHl0aG9uJywgJy1waHQnLCAnMi4wJywgJy1waCcsICc3LjAnLCAnLXRuJywgJzgnLCAnLW1hJywgJzIwMCcsICctaW1hZScsICc8aW5maWxlLm1hZT4nLCAnLW9tYWUnLCAnPG91dGZpbGUubWFlPic=

>  <r_epik_Ionization_Penalty>  (272) 
0.351093

>  <r_epik_Ionization_Penalty_Charging>  (272) 
0.351093

>  <r_epik_Ionization_Penalty_Neutral>  (272) 
7.70931e-13

>  <r_epik_State_Penalty>  (272) 
0.347333

>  <r_epik_Charging_Adjusted_Penalty>  (272) 
0.698426

>  <i_epik_Tot_Q>  (272) 
1

>  <i_epik_Tot_abs_Q>  (272) 
1

>  <s_epik_Chemistry_Notes>  (272) 
This compound has an ester and may undergo hydrolysis at high or low pH.

>  <s_lp_Force_Field>  (272) 
OPLS3e

>  <r_lp_Energy>  (272) 
71.6777

>  <b_lp_Chiralities_Consistent>  (272) 
1

>  <s_lp_Variant>  (272) 
82:0-1

>  <s_i_glide_gridfile>  (272) 
pfpi4k_grid

>  <i_i_glide_lignum>  (272) 
32

>  <i_i_glide_rotatable_bonds>  (272) 
4

>  <r_i_docking_score>  (272) 
-2.05092

>  <r_i_glide_ligand_efficiency>  (272) 
-0.0683639

>  <r_i_glide_ligand_efficiency_sa>  (272) 
-0.212423

>  <r_i_glide_ligand_efficiency_ln>  (272) 
-0.465991

>  <r_i_glide_gscore>  (272) 
-2.05092

>  <r_i_glide_lipo>  (272) 
-0.0227046

>  <r_i_glide_hbond>  (272) 
-0.310796

>  <r_i_glide_metal>  (272) 
-0

>  <r_i_glide_rewards>  (272) 
-0.568817

>  <r_i_glide_evdw>  (272) 
-10.3682

>  <r_i_glide_ecoul>  (272) 
-5.09281

>  <r_i_glide_erotb>  (272) 
0.227705

>  <r_i_glide_esite>  (272) 
-0.0939747

>  <r_i_glide_emodel>  (272) 
-17.4907

>  <r_i_glide_energy>  (272) 
-15.461

>  <r_i_glide_einternal>  (272) 
3.03876

>  <r_i_glide_intrahb_reward>  (272) 
-0

>  <i_i_glide_confnum>  (272) 
3

>  <i_i_glide_posenum>  (272) 
7

>  <r_i_glide_eff_state_penalty>  (272) 
0

>  <ligand_id>  (272) 
82

>  <original_smiles>  (272) 
C=C1C(=O)C(C)(C)C(C)C2C3C4=CCC(C)C4CC(OC)(C3(C)C)C12OC(=O)CN

>  <smiles>  (272) 
[H]C([H])=C1C(=O)C(C([H])([H])[H])(C([H])([H])[H])C([H])(C([H])([H])[H])C2([H])C3([H])C4=C([H])C([H])([H])C([H])(C([H])([H])[H])C4([H])C([H])([H])C(OC([H])([H])[H])(C12OC(=O)C([H])([H])[N+]([H])([H])[H])C3(C([H])([H])[H])C([H])([H])[H]

$$$$
83:0:0
     RDKit          3D

 80 85  0  0  1  0  0  0  0  0999 V2000
    6.6685   -8.4939    1.5743 C   0  0  0  0  0  0  0  0  0  0  0  0
    5.3850   -7.7172    1.8100 C   0  0  0  0  0  0  0  0  0  0  0  0
    4.9127   -7.4791    3.0547 C   0  0  0  0  0  0  0  0  0  0  0  0
    3.6364   -6.7049    3.4000 C   0  0  2  0  0  0  0  0  0  0  0  0
    2.7844   -7.5228    4.4033 C   0  0  0  0  0  0  0  0  0  0  0  0
    1.4952   -8.0094    3.7000 C   0  0  2  0  0  0  0  0  0  0  0  0
    1.7173   -7.7860    2.1680 C   0  0  0  0  0  0  0  0  0  0  0  0
    2.2776   -9.1117    1.5831 C   0  0  0  0  0  0  0  0  0  0  0  0
    0.4529   -7.4409    1.3509 C   0  0  0  0  0  0  0  0  0  0  0  0
    2.7213   -6.5989    2.1446 C   0  0  2  0  0  0  0  0  0  0  0  0
    3.4756   -6.3180    0.8214 C   0  0  1  0  0  0  0  0  0  0  0  0
    3.9913   -4.9925    0.8140 O   0  0  0  0  0  0  0  0  0  0  0  0
    3.3066   -3.9921    0.2443 C   0  0  0  0  0  0  0  0  0  0  0  0
    2.2114   -4.0903   -0.2999 O   0  0  0  0  0  0  0  0  0  0  0  0
    4.0513   -2.6688    0.3283 C   0  0  0  0  0  0  0  0  0  0  0  0
    4.7466   -2.2640   -0.9004 N   0  0  0  0  0  0  0  0  0  0  0  0
    5.3212   -0.9343   -0.7755 C   0  0  0  0  0  0  0  0  0  0  0  0
    6.5606   -0.9246    0.1410 C   0  0  0  0  0  0  0  0  0  0  0  0
    7.5247   -1.8591   -0.3373 O   0  0  0  0  0  0  0  0  0  0  0  0
    7.0192   -3.1901   -0.4412 C   0  0  0  0  0  0  0  0  0  0  0  0
    5.7786   -3.2034   -1.3571 C   0  0  0  0  0  0  0  0  0  0  0  0
    4.6744   -7.2369    0.5563 C   0  0  0  0  0  0  0  0  0  0  0  0
    0.1356   -7.6086    4.3584 C   0  0  2  0  0  0  0  0  0  0  0  0
   -0.7297   -8.7723    4.8028 C   0  0  0  0  0  0  0  0  0  0  0  0
   -1.0695   -7.9891    3.6634 O   0  0  0  0  0  0  0  0  0  0  0  0
   -0.0059   -6.2865    5.1369 C   0  0  1  0  0  0  0  0  0  0  0  0
    0.3976   -6.5112    6.4771 O   0  0  0  0  0  0  0  0  0  0  0  0
    0.6129   -5.0493    4.4826 C   0  0  2  0  0  0  0  0  0  0  0  0
    1.8921   -4.4462    5.0324 C   0  0  1  0  0  0  0  0  0  0  0  0
    3.0520   -4.1768    4.0889 C   0  0  0  0  0  0  0  0  0  0  0  0
    4.1018   -5.3175    3.9802 C   0  0  1  0  0  0  0  0  0  0  0  0
    4.9072   -5.4329    5.2982 C   0  0  0  0  0  0  0  0  0  0  0  0
    0.6076   -3.6354    5.0568 C   0  0  0  0  0  0  0  0  0  0  0  0
    0.4337   -2.4526    4.1176 C   0  0  0  0  0  0  0  0  0  0  0  0
   -0.0512   -3.3186    6.3899 C   0  0  0  0  0  0  0  0  0  0  0  0
    6.4852   -9.3613    0.9374 H   0  0  0  0  0  0  0  0  0  0  0  0
    7.0945   -8.8473    2.5135 H   0  0  0  0  0  0  0  0  0  0  0  0
    7.4131   -7.8628    1.0855 H   0  0  0  0  0  0  0  0  0  0  0  0
    5.4670   -7.8726    3.8955 H   0  0  0  0  0  0  0  0  0  0  0  0
    3.3393   -8.3957    4.7517 H   0  0  0  0  0  0  0  0  0  0  0  0
    2.5750   -6.9670    5.3072 H   0  0  0  0  0  0  0  0  0  0  0  0
    1.5222   -9.0916    3.8460 H   0  0  0  0  0  0  0  0  0  0  0  0
    2.4347   -9.0679    0.5096 H   0  0  0  0  0  0  0  0  0  0  0  0
    1.5769   -9.9338    1.7370 H   0  0  0  0  0  0  0  0  0  0  0  0
    3.2143   -9.4195    2.0474 H   0  0  0  0  0  0  0  0  0  0  0  0
    0.6948   -7.2607    0.3071 H   0  0  0  0  0  0  0  0  0  0  0  0
   -0.0631   -6.5613    1.7235 H   0  0  0  0  0  0  0  0  0  0  0  0
   -0.2629   -8.2600    1.3588 H   0  0  0  0  0  0  0  0  0  0  0  0
    2.0768   -5.7419    2.2680 H   0  0  0  0  0  0  0  0  0  0  0  0
    2.7820   -6.4180   -0.0107 H   0  0  0  0  0  0  0  0  0  0  0  0
    3.3484   -1.8925    0.6295 H   0  0  0  0  0  0  0  0  0  0  0  0
    4.7676   -2.7557    1.1488 H   0  0  0  0  0  0  0  0  0  0  0  0
    5.6060   -0.5776   -1.7679 H   0  0  0  0  0  0  0  0  0  0  0  0
    4.5732   -0.2271   -0.4089 H   0  0  0  0  0  0  0  0  0  0  0  0
    6.9970    0.0706    0.1239 H   0  0  0  0  0  0  0  0  0  0  0  0
    6.3057   -1.1502    1.1779 H   0  0  0  0  0  0  0  0  0  0  0  0
    7.7979   -3.8393   -0.8408 H   0  0  0  0  0  0  0  0  0  0  0  0
    6.7821   -3.5704    0.5529 H   0  0  0  0  0  0  0  0  0  0  0  0
    5.3846   -4.2156   -1.4513 H   0  0  0  0  0  0  0  0  0  0  0  0
    6.0901   -2.9268   -2.3668 H   0  0  0  0  0  0  0  0  0  0  0  0
    5.3774   -6.6970   -0.0796 H   0  0  0  0  0  0  0  0  0  0  0  0
    4.3606   -8.1218    0.0021 H   0  0  0  0  0  0  0  0  0  0  0  0
   -0.4407   -9.7920    4.5672 H   0  0  0  0  0  0  0  0  0  0  0  0
   -1.3860   -8.6596    5.6563 H   0  0  0  0  0  0  0  0  0  0  0  0
   -1.0745   -6.0801    5.2003 H   0  0  0  0  0  0  0  0  0  0  0  0
    1.2923   -6.8090    6.4789 H   0  0  0  0  0  0  0  0  0  0  0  0
    0.4391   -5.0371    3.4098 H   0  0  0  0  0  0  0  0  0  0  0  0
    2.2291   -4.7547    6.0231 H   0  0  0  0  0  0  0  0  0  0  0  0
    2.6812   -3.9075    3.1024 H   0  0  0  0  0  0  0  0  0  0  0  0
    3.5494   -3.2757    4.4455 H   0  0  0  0  0  0  0  0  0  0  0  0
    4.8281   -4.9334    3.2617 H   0  0  0  0  0  0  0  0  0  0  0  0
    4.3185   -5.8397    6.1216 H   0  0  0  0  0  0  0  0  0  0  0  0
    5.2664   -4.4521    5.6166 H   0  0  0  0  0  0  0  0  0  0  0  0
    5.7915   -6.0615    5.1886 H   0  0  0  0  0  0  0  0  0  0  0  0
    0.9515   -1.5769    4.5129 H   0  0  0  0  0  0  0  0  0  0  0  0
   -0.6236   -2.2116    4.0118 H   0  0  0  0  0  0  0  0  0  0  0  0
    0.8323   -2.6727    3.1275 H   0  0  0  0  0  0  0  0  0  0  0  0
    0.3212   -2.3702    6.7814 H   0  0  0  0  0  0  0  0  0  0  0  0
    0.1639   -4.0885    7.1315 H   0  0  0  0  0  0  0  0  0  0  0  0
   -1.1327   -3.2453    6.2669 H   0  0  0  0  0  0  0  0  0  0  0  0
  1  2  1  0
  1 36  1  0
  1 37  1  0
  1 38  1  0
  2 22  1  0
  2  3  2  0
  4  3  1  6
  3 39  1  0
  4 10  1  0
  4 31  1  0
  4  5  1  0
  5  6  1  0
  5 40  1  0
  5 41  1  0
  6  7  1  0
  6 23  1  0
  6 42  1  6
  7  8  1  0
  7  9  1  0
  7 10  1  0
  8 43  1  0
  8 44  1  0
  8 45  1  0
  9 46  1  0
  9 47  1  0
  9 48  1  0
 10 11  1  0
 10 49  1  1
 11 12  1  0
 11 22  1  0
 11 50  1  6
 12 13  1  0
 13 14  2  0
 13 15  1  0
 15 16  1  0
 15 51  1  0
 15 52  1  0
 16 21  1  0
 16 17  1  0
 17 18  1  0
 17 53  1  0
 17 54  1  0
 18 19  1  0
 18 55  1  0
 18 56  1  0
 19 20  1  0
 20 21  1  0
 20 57  1  0
 20 58  1  0
 21 59  1  0
 21 60  1  0
 22 61  1  0
 22 62  1  0
 23 25  1  6
 23 24  1  0
 23 26  1  0
 24 25  1  0
 24 63  1  0
 24 64  1  0
 26 27  1  0
 26 28  1  0
 26 65  1  1
 27 66  1  0
 28 33  1  0
 28 29  1  0
 28 67  1  6
 29 30  1  0
 29 33  1  0
 29 68  1  1
 30 31  1  0
 30 69  1  0
 30 70  1  0
 31 32  1  0
 31 71  1  6
 32 72  1  0
 32 73  1  0
 32 74  1  0
 33 34  1  0
 33 35  1  0
 34 75  1  0
 34 76  1  0
 34 77  1  0
 35 78  1  0
 35 79  1  0
 35 80  1  0
M  END
>  <i_m_ct_stereo_status>  (273) 
1

>  <s_m_source_file>  (273) 
/var/tmp/pbs.5076255.sched01/tmplj_yfvzq/807e0r74np.sdf

>  <i_m_source_file_index>  (273) 
34

>  <i_lp_mmshare_version>  (273) 
48012

>  <i_f3d_flags>  (273) 
0

>  <s_epik_input>  (273) 
W0NIMl0xW0NIMl1PW0NIMl1bQ0gyXU4xW0NIMl1DKD1PKU9bQ0BASF0oW0NIMl1DKFtDSDNdKT1bQ0hdMilbQ0BIXShbQ0BdMjM0KUMoW0NIM10pKFtDSDNdKVtDQEBIXShbQ0gyXTMpW0NAQF01KFtDSDJdTzUpW0NAQEhdKFtPSF0pW0NAQEhdNltDQEhdKEM2KFtDSDNdKVtDSDNdKVtDSDJdW0NASF00W0NIM10=

>  <s_epik_cmdline>  (273) 
J2VwaWtfcHl0aG9uJywgJy1waHQnLCAnMi4wJywgJy1waCcsICc3LjAnLCAnLXRuJywgJzgnLCAnLW1hJywgJzIwMCcsICctaW1hZScsICc8aW5maWxlLm1hZT4nLCAnLW9tYWUnLCAnPG91dGZpbGUubWFlPic=

>  <r_epik_Ionization_Penalty>  (273) 
0.0065437

>  <r_epik_Ionization_Penalty_Charging>  (273) 
0

>  <r_epik_Ionization_Penalty_Neutral>  (273) 
0.0065437

>  <r_epik_State_Penalty>  (273) 
0.00484546

>  <r_epik_Charging_Adjusted_Penalty>  (273) 
0.00484546

>  <i_epik_Tot_Q>  (273) 
0

>  <i_epik_Tot_abs_Q>  (273) 
0

>  <s_epik_Chemistry_Notes>  (273) 
This compound has an ester and may undergo hydrolysis at high or low pH.

>  <s_lp_Force_Field>  (273) 
OPLS3e

>  <r_lp_Energy>  (273) 
64.8738

>  <b_lp_Chiralities_Consistent>  (273) 
1

>  <s_lp_Variant>  (273) 
83:0-1

>  <s_i_glide_gridfile>  (273) 
pfpi4k_grid

>  <i_i_glide_lignum>  (273) 
34

>  <i_i_glide_rotatable_bonds>  (273) 
5

>  <r_i_docking_score>  (273) 
-2.42314

>  <r_i_glide_ligand_efficiency>  (273) 
-0.0692326

>  <r_i_glide_ligand_efficiency_sa>  (273) 
-0.226464

>  <r_i_glide_ligand_efficiency_ln>  (273) 
-0.531933

>  <r_i_glide_gscore>  (273) 
-2.42314

>  <r_i_glide_lipo>  (273) 
-0.617717

>  <r_i_glide_hbond>  (273) 
-0.14804

>  <r_i_glide_metal>  (273) 
-0

>  <r_i_glide_rewards>  (273) 
-0.0840593

>  <r_i_glide_evdw>  (273) 
-29.1457

>  <r_i_glide_ecoul>  (273) 
-2.41636

>  <r_i_glide_erotb>  (273) 
0.256464

>  <r_i_glide_esite>  (273) 
-0.0100499

>  <r_i_glide_emodel>  (273) 
-35.4342

>  <r_i_glide_energy>  (273) 
-31.5621

>  <r_i_glide_einternal>  (273) 
1.58267

>  <r_i_glide_intrahb_reward>  (273) 
-0

>  <i_i_glide_confnum>  (273) 
1

>  <i_i_glide_posenum>  (273) 
32

>  <r_i_glide_eff_state_penalty>  (273) 
0

>  <ligand_id>  (273) 
83

>  <original_smiles>  (273) 
CC1=CC23CC(C(C)(C)C2C(OC(=O)CN2CCOCC2)C1)C1(CO1)C(O)C1C(CC3C)C1(C)C

>  <smiles>  (273) 
[H]OC1([H])C2([H])C([H])(C([H])([H])C([H])(C([H])([H])[H])C34C([H])=C(C([H])([H])[H])C([H])([H])C([H])(OC(=O)C([H])([H])N5C([H])([H])C([H])([H])OC([H])([H])C5([H])[H])C3([H])C(C([H])([H])[H])(C([H])([H])[H])C([H])(C4([H])[H])C13OC3([H])[H])C2(C([H])([H])[H])C([H])([H])[H]

$$$$
83:0:1
     RDKit          3D

 80 85  0  0  1  0  0  0  0  0999 V2000
    6.2152   -5.5285    3.9396 C   0  0  0  0  0  0  0  0  0  0  0  0
    4.9894   -4.6518    3.7579 C   0  0  0  0  0  0  0  0  0  0  0  0
    4.9127   -3.3872    4.2228 C   0  0  0  0  0  0  0  0  0  0  0  0
    3.7125   -2.4385    4.0858 C   0  0  2  0  0  0  0  0  0  0  0  0
    3.3713   -1.8219    5.4650 C   0  0  0  0  0  0  0  0  0  0  0  0
    2.0189   -2.3819    5.9636 C   0  0  2  0  0  0  0  0  0  0  0  0
    1.6950   -3.6089    5.0472 C   0  0  0  0  0  0  0  0  0  0  0  0
    2.2256   -4.8833    5.7479 C   0  0  0  0  0  0  0  0  0  0  0  0
    0.1997   -3.8639    4.7849 C   0  0  0  0  0  0  0  0  0  0  0  0
    2.4336   -3.2567    3.7248 C   0  0  2  0  0  0  0  0  0  0  0  0
    2.6710   -4.3872    2.6916 C   0  0  1  0  0  0  0  0  0  0  0  0
    2.9348   -3.7395    1.4536 O   0  0  0  0  0  0  0  0  0  0  0  0
    2.6245   -4.3005    0.2788 C   0  0  0  0  0  0  0  0  0  0  0  0
    2.1652   -5.4323    0.1186 O   0  0  0  0  0  0  0  0  0  0  0  0
    2.8121   -3.3249   -0.8761 C   0  0  0  0  0  0  0  0  0  0  0  0
    4.2012   -2.9371   -1.1499 N   0  0  0  0  0  0  0  0  0  0  0  0
    4.8542   -3.8232   -2.1124 C   0  0  0  0  0  0  0  0  0  0  0  0
    4.3181   -3.6169   -3.5537 C   0  0  0  0  0  0  0  0  0  0  0  0
    4.4450   -2.2419   -3.9201 O   0  0  0  0  0  0  0  0  0  0  0  0
    3.7685   -1.3541   -3.0276 C   0  0  0  0  0  0  0  0  0  0  0  0
    4.3188   -1.5538   -1.6021 C   0  0  0  0  0  0  0  0  0  0  0  0
    3.8480   -5.3236    3.0171 C   0  0  0  0  0  0  0  0  0  0  0  0
    0.9019   -1.3418    6.3118 C   0  0  2  0  0  0  0  0  0  0  0  0
    0.4322   -1.3362    7.7548 C   0  0  0  0  0  0  0  0  0  0  0  0
   -0.3817   -1.8650    6.7135 O   0  0  0  0  0  0  0  0  0  0  0  0
    0.8214   -0.0066    5.5532 C   0  0  1  0  0  0  0  0  0  0  0  0
    1.6760    0.9187    6.1942 O   0  0  0  0  0  0  0  0  0  0  0  0
    0.9896   -0.0634    4.0337 C   0  0  2  0  0  0  0  0  0  0  0  0
    2.2653    0.4299    3.3771 C   0  0  1  0  0  0  0  0  0  0  0  0
    2.9953   -0.4739    2.3967 C   0  0  0  0  0  0  0  0  0  0  0  0
    4.1169   -1.3545    3.0152 C   0  0  1  0  0  0  0  0  0  0  0  0
    5.3110   -0.4695    3.4442 C   0  0  0  0  0  0  0  0  0  0  0  0
    0.9517    1.1294    3.0824 C   0  0  0  0  0  0  0  0  0  0  0  0
    0.2868    0.9690    1.7252 C   0  0  0  0  0  0  0  0  0  0  0  0
    0.7297    2.5507    3.5768 C   0  0  0  0  0  0  0  0  0  0  0  0
    5.9471   -6.4661    4.4265 H   0  0  0  0  0  0  0  0  0  0  0  0
    6.9826   -5.0618    4.5523 H   0  0  0  0  0  0  0  0  0  0  0  0
    6.6505   -5.7610    2.9661 H   0  0  0  0  0  0  0  0  0  0  0  0
    5.7623   -2.9857    4.7572 H   0  0  0  0  0  0  0  0  0  0  0  0
    4.1409   -2.0790    6.1938 H   0  0  0  0  0  0  0  0  0  0  0  0
    3.3837   -0.7393    5.4468 H   0  0  0  0  0  0  0  0  0  0  0  0
    2.2639   -2.8060    6.9382 H   0  0  0  0  0  0  0  0  0  0  0  0
    2.0019   -5.7828    5.1794 H   0  0  0  0  0  0  0  0  0  0  0  0
    1.7531   -5.0182    6.7208 H   0  0  0  0  0  0  0  0  0  0  0  0
    3.2984   -4.8437    5.9287 H   0  0  0  0  0  0  0  0  0  0  0  0
    0.0660   -4.7001    4.1017 H   0  0  0  0  0  0  0  0  0  0  0  0
   -0.2992   -2.9999    4.3510 H   0  0  0  0  0  0  0  0  0  0  0  0
   -0.3208   -4.1287    5.7047 H   0  0  0  0  0  0  0  0  0  0  0  0
    1.7366   -2.5927    3.2321 H   0  0  0  0  0  0  0  0  0  0  0  0
    1.7577   -4.9741    2.5884 H   0  0  0  0  0  0  0  0  0  0  0  0
    2.3420   -3.7595   -1.7568 H   0  0  0  0  0  0  0  0  0  0  0  0
    2.2293   -2.4402   -0.6121 H   0  0  0  0  0  0  0  0  0  0  0  0
    5.9292   -3.6225   -2.1093 H   0  0  0  0  0  0  0  0  0  0  0  0
    4.7532   -4.8619   -1.7977 H   0  0  0  0  0  0  0  0  0  0  0  0
    4.8738   -4.2380   -4.2581 H   0  0  0  0  0  0  0  0  0  0  0  0
    3.2670   -3.8950   -3.6522 H   0  0  0  0  0  0  0  0  0  0  0  0
    3.9368   -0.3292   -3.3589 H   0  0  0  0  0  0  0  0  0  0  0  0
    2.6895   -1.5210   -3.0626 H   0  0  0  0  0  0  0  0  0  0  0  0
    3.8138   -0.8907   -0.9047 H   0  0  0  0  0  0  0  0  0  0  0  0
    5.3694   -1.2590   -1.5952 H   0  0  0  0  0  0  0  0  0  0  0  0
    4.2273   -5.7837    2.1037 H   0  0  0  0  0  0  0  0  0  0  0  0
    3.5009   -6.1502    3.6322 H   0  0  0  0  0  0  0  0  0  0  0  0
    0.7704   -2.0934    8.4614 H   0  0  0  0  0  0  0  0  0  0  0  0
    0.0704   -0.4057    8.1817 H   0  0  0  0  0  0  0  0  0  0  0  0
   -0.1829    0.3814    5.7139 H   0  0  0  0  0  0  0  0  0  0  0  0
    1.6004    1.7520    5.7569 H   0  0  0  0  0  0  0  0  0  0  0  0
    0.4678   -0.9164    3.6082 H   0  0  0  0  0  0  0  0  0  0  0  0
    2.9562    1.0331    3.9676 H   0  0  0  0  0  0  0  0  0  0  0  0
    2.2865   -1.0895    1.8440 H   0  0  0  0  0  0  0  0  0  0  0  0
    3.4355    0.1751    1.6399 H   0  0  0  0  0  0  0  0  0  0  0  0
    4.5067   -1.9124    2.1641 H   0  0  0  0  0  0  0  0  0  0  0  0
    5.0988    0.1454    4.3180 H   0  0  0  0  0  0  0  0  0  0  0  0
    5.5965    0.1980    2.6333 H   0  0  0  0  0  0  0  0  0  0  0  0
    6.1980   -1.0558    3.6627 H   0  0  0  0  0  0  0  0  0  0  0  0
    0.7472    1.6372    0.9979 H   0  0  0  0  0  0  0  0  0  0  0  0
   -0.7747    1.2147    1.7851 H   0  0  0  0  0  0  0  0  0  0  0  0
    0.3827   -0.0517    1.3608 H   0  0  0  0  0  0  0  0  0  0  0  0
    1.0470    3.2707    2.8182 H   0  0  0  0  0  0  0  0  0  0  0  0
    1.2982    2.7587    4.4811 H   0  0  0  0  0  0  0  0  0  0  0  0
   -0.3311    2.7134    3.7759 H   0  0  0  0  0  0  0  0  0  0  0  0
  1  2  1  0
  1 36  1  0
  1 37  1  0
  1 38  1  0
  2 22  1  0
  2  3  2  0
  4  3  1  1
  3 39  1  0
  4 10  1  0
  4 31  1  0
  4  5  1  0
  5  6  1  0
  5 40  1  0
  5 41  1  0
  6  7  1  0
  6 23  1  0
  6 42  1  1
  7  8  1  0
  7  9  1  0
  7 10  1  0
  8 43  1  0
  8 44  1  0
  8 45  1  0
  9 46  1  0
  9 47  1  0
  9 48  1  0
 10 11  1  0
 10 49  1  6
 11 12  1  0
 11 22  1  0
 11 50  1  6
 12 13  1  0
 13 14  2  0
 13 15  1  0
 15 16  1  0
 15 51  1  0
 15 52  1  0
 16 21  1  0
 16 17  1  0
 17 18  1  0
 17 53  1  0
 17 54  1  0
 18 19  1  0
 18 55  1  0
 18 56  1  0
 19 20  1  0
 20 21  1  0
 20 57  1  0
 20 58  1  0
 21 59  1  0
 21 60  1  0
 22 61  1  0
 22 62  1  0
 23 25  1  6
 23 24  1  0
 23 26  1  0
 24 25  1  0
 24 63  1  0
 24 64  1  0
 26 27  1  0
 26 28  1  0
 26 65  1  6
 27 66  1  0
 28 33  1  0
 28 29  1  0
 28 67  1  6
 29 30  1  0
 29 33  1  0
 29 68  1  1
 30 31  1  0
 30 69  1  0
 30 70  1  0
 31 32  1  0
 31 71  1  6
 32 72  1  0
 32 73  1  0
 32 74  1  0
 33 34  1  0
 33 35  1  0
 34 75  1  0
 34 76  1  0
 34 77  1  0
 35 78  1  0
 35 79  1  0
 35 80  1  0
M  END
>  <i_m_ct_stereo_status>  (274) 
1

>  <s_m_source_file>  (274) 
/var/tmp/pbs.5076255.sched01/tmplj_yfvzq/807e0r74np.sdf

>  <i_m_source_file_index>  (274) 
34

>  <i_lp_mmshare_version>  (274) 
48012

>  <i_f3d_flags>  (274) 
0

>  <s_epik_input>  (274) 
W0NIMl0xW0NIMl1PW0NIMl1bQ0gyXU4xW0NIMl1DKD1PKU9bQ0BASF0oW0NIMl1DKFtDSDNdKT1bQ0hdMilbQ0BIXShbQ0BdMjM0KUMoW0NIM10pKFtDSDNdKVtDQEBIXShbQ0gyXTMpW0NAQF01KFtDSDJdTzUpW0NAQEhdKFtPSF0pW0NAQEhdNltDQEhdKEM2KFtDSDNdKVtDSDNdKVtDSDJdW0NASF00W0NIM10=

>  <s_epik_cmdline>  (274) 
J2VwaWtfcHl0aG9uJywgJy1waHQnLCAnMi4wJywgJy1waCcsICc3LjAnLCAnLXRuJywgJzgnLCAnLW1hJywgJzIwMCcsICctaW1hZScsICc8aW5maWxlLm1hZT4nLCAnLW9tYWUnLCAnPG91dGZpbGUubWFlPic=

>  <r_epik_Ionization_Penalty>  (274) 
0.0065437

>  <r_epik_Ionization_Penalty_Charging>  (274) 
0

>  <r_epik_Ionization_Penalty_Neutral>  (274) 
0.0065437

>  <r_epik_State_Penalty>  (274) 
0.00484546

>  <r_epik_Charging_Adjusted_Penalty>  (274) 
0.00484546

>  <i_epik_Tot_Q>  (274) 
0

>  <i_epik_Tot_abs_Q>  (274) 
0

>  <s_epik_Chemistry_Notes>  (274) 
This compound has an ester and may undergo hydrolysis at high or low pH.

>  <s_lp_Force_Field>  (274) 
OPLS3e

>  <r_lp_Energy>  (274) 
64.8738

>  <b_lp_Chiralities_Consistent>  (274) 
1

>  <s_lp_Variant>  (274) 
83:0-1

>  <s_i_glide_gridfile>  (274) 
pfpi4k_grid

>  <i_i_glide_lignum>  (274) 
34

>  <i_i_glide_rotatable_bonds>  (274) 
5

>  <r_i_docking_score>  (274) 
-2.42008

>  <r_i_glide_ligand_efficiency>  (274) 
-0.0691452

>  <r_i_glide_ligand_efficiency_sa>  (274) 
-0.226178

>  <r_i_glide_ligand_efficiency_ln>  (274) 
-0.531262

>  <r_i_glide_gscore>  (274) 
-2.42008

>  <r_i_glide_lipo>  (274) 
-0.297557

>  <r_i_glide_hbond>  (274) 
-0.156909

>  <r_i_glide_metal>  (274) 
-0

>  <r_i_glide_rewards>  (274) 
-0.0840593

>  <r_i_glide_evdw>  (274) 
-26.7894

>  <r_i_glide_ecoul>  (274) 
-5.07549

>  <r_i_glide_erotb>  (274) 
0.256464

>  <r_i_glide_esite>  (274) 
-0.037227

>  <r_i_glide_emodel>  (274) 
-34.693

>  <r_i_glide_energy>  (274) 
-31.8649

>  <r_i_glide_einternal>  (274) 
3.64029

>  <r_i_glide_intrahb_reward>  (274) 
-0

>  <i_i_glide_confnum>  (274) 
1

>  <i_i_glide_posenum>  (274) 
19

>  <r_i_glide_eff_state_penalty>  (274) 
0

>  <ligand_id>  (274) 
83

>  <original_smiles>  (274) 
CC1=CC23CC(C(C)(C)C2C(OC(=O)CN2CCOCC2)C1)C1(CO1)C(O)C1C(CC3C)C1(C)C

>  <smiles>  (274) 
[H]OC1([H])C2([H])C([H])(C([H])([H])C([H])(C([H])([H])[H])C34C([H])=C(C([H])([H])[H])C([H])([H])C([H])(OC(=O)C([H])([H])N5C([H])([H])C([H])([H])OC([H])([H])C5([H])[H])C3([H])C(C([H])([H])[H])(C([H])([H])[H])C([H])(C4([H])[H])C13OC3([H])[H])C2(C([H])([H])[H])C([H])([H])[H]

$$$$
83:0:2
     RDKit          3D

 80 85  0  0  1  0  0  0  0  0999 V2000
    6.7051   -8.2430    1.4205 C   0  0  0  0  0  0  0  0  0  0  0  0
    5.3817   -7.5659    1.7385 C   0  0  0  0  0  0  0  0  0  0  0  0
    4.9813   -7.3485    3.0047 C   0  0  0  0  0  0  0  0  0  0  0  0
    3.6731   -6.6739    3.4389 C   0  0  2  0  0  0  0  0  0  0  0  0
    2.9649   -7.5420    4.5111 C   0  0  0  0  0  0  0  0  0  0  0  0
    1.6736   -8.1421    3.9081 C   0  0  2  0  0  0  0  0  0  0  0  0
    1.7666   -7.9257    2.3627 C   0  0  0  0  0  0  0  0  0  0  0  0
    2.3875   -9.2096    1.7461 C   0  0  0  0  0  0  0  0  0  0  0  0
    0.4232   -7.7068    1.6359 C   0  0  0  0  0  0  0  0  0  0  0  0
    2.6667   -6.6615    2.2498 C   0  0  2  0  0  0  0  0  0  0  0  0
    3.2991   -6.3451    0.8714 C   0  0  1  0  0  0  0  0  0  0  0  0
    3.7134   -4.9833    0.8370 O   0  0  0  0  0  0  0  0  0  0  0  0
    3.0813   -4.0698    0.0802 C   0  0  0  0  0  0  0  0  0  0  0  0
    2.0916   -4.2577   -0.6228 O   0  0  0  0  0  0  0  0  0  0  0  0
    3.7545   -2.7041    0.1602 C   0  0  0  0  0  0  0  0  0  0  0  0
    4.5104   -2.3062   -1.0363 N   0  0  0  0  0  0  0  0  0  0  0  0
    5.0359   -0.9526   -0.9126 C   0  0  0  0  0  0  0  0  0  0  0  0
    6.2168   -0.8811    0.0794 C   0  0  0  0  0  0  0  0  0  0  0  0
    7.2364   -1.8044   -0.3178 O   0  0  0  0  0  0  0  0  0  0  0  0
    6.7750   -3.1504   -0.4151 C   0  0  0  0  0  0  0  0  0  0  0  0
    5.5959   -3.2223   -1.4047 C   0  0  0  0  0  0  0  0  0  0  0  0
    4.5487   -7.1744    0.5276 C   0  0  0  0  0  0  0  0  0  0  0  0
    0.3413   -7.8386    4.6622 C   0  0  2  0  0  0  0  0  0  0  0  0
   -0.3937   -9.0606    5.1829 C   0  0  0  0  0  0  0  0  0  0  0  0
   -0.8777   -8.3257    4.0630 O   0  0  0  0  0  0  0  0  0  0  0  0
    0.1492   -6.5216    5.4364 C   0  0  1  0  0  0  0  0  0  0  0  0
    0.6750   -6.6891    6.7425 O   0  0  0  0  0  0  0  0  0  0  0  0
    0.6070   -5.2467    4.7262 C   0  0  2  0  0  0  0  0  0  0  0  0
    1.8725   -4.5383    5.1728 C   0  0  1  0  0  0  0  0  0  0  0  0
    2.9371   -4.1914    4.1453 C   0  0  0  0  0  0  0  0  0  0  0  0
    4.0664   -5.2464    3.9743 C   0  0  1  0  0  0  0  0  0  0  0  0
    4.9710   -5.2774    5.2309 C   0  0  0  0  0  0  0  0  0  0  0  0
    0.5328   -3.8287    5.2889 C   0  0  0  0  0  0  0  0  0  0  0  0
    0.2018   -2.6756    4.3563 C   0  0  0  0  0  0  0  0  0  0  0  0
   -0.0508   -3.5484    6.6645 C   0  0  0  0  0  0  0  0  0  0  0  0
    6.5472   -9.1322    0.8092 H   0  0  0  0  0  0  0  0  0  0  0  0
    7.2216   -8.5463    2.3306 H   0  0  0  0  0  0  0  0  0  0  0  0
    7.3612   -7.5605    0.8805 H   0  0  0  0  0  0  0  0  0  0  0  0
    5.6228   -7.6820    3.8098 H   0  0  0  0  0  0  0  0  0  0  0  0
    3.6124   -8.3606    4.8293 H   0  0  0  0  0  0  0  0  0  0  0  0
    2.7719   -6.9946    5.4231 H   0  0  0  0  0  0  0  0  0  0  0  0
    1.7988   -9.2148    4.0619 H   0  0  0  0  0  0  0  0  0  0  0  0
    2.4551   -9.1612    0.6637 H   0  0  0  0  0  0  0  0  0  0  0  0
    1.7711  -10.0847    1.9584 H   0  0  0  0  0  0  0  0  0  0  0  0
    3.3785   -9.4323    2.1398 H   0  0  0  0  0  0  0  0  0  0  0  0
    0.5769   -7.5107    0.5768 H   0  0  0  0  0  0  0  0  0  0  0  0
   -0.1447   -6.8732    2.0410 H   0  0  0  0  0  0  0  0  0  0  0  0
   -0.2042   -8.5972    1.6932 H   0  0  0  0  0  0  0  0  0  0  0  0
    1.9643   -5.8562    2.4098 H   0  0  0  0  0  0  0  0  0  0  0  0
    2.5552   -6.5132    0.0952 H   0  0  0  0  0  0  0  0  0  0  0  0
    2.9941   -1.9570    0.3865 H   0  0  0  0  0  0  0  0  0  0  0  0
    4.4168   -2.7274    1.0260 H   0  0  0  0  0  0  0  0  0  0  0  0
    5.3714   -0.6088   -1.8941 H   0  0  0  0  0  0  0  0  0  0  0  0
    4.2447   -0.2602   -0.6138 H   0  0  0  0  0  0  0  0  0  0  0  0
    6.6202    0.1305    0.0871 H   0  0  0  0  0  0  0  0  0  0  0  0
    5.8985   -1.0930    1.1012 H   0  0  0  0  0  0  0  0  0  0  0  0
    7.5949   -3.7844   -0.7498 H   0  0  0  0  0  0  0  0  0  0  0  0
    6.4857   -3.5146    0.5722 H   0  0  0  0  0  0  0  0  0  0  0  0
    5.2387   -4.2492   -1.4966 H   0  0  0  0  0  0  0  0  0  0  0  0
    5.9571   -2.9637   -2.4026 H   0  0  0  0  0  0  0  0  0  0  0  0
    5.1561   -6.6184   -0.1854 H   0  0  0  0  0  0  0  0  0  0  0  0
    4.2606   -8.0941    0.0210 H   0  0  0  0  0  0  0  0  0  0  0  0
   -0.0550  -10.0627    4.9326 H   0  0  0  0  0  0  0  0  0  0  0  0
   -1.0003   -8.9805    6.0783 H   0  0  0  0  0  0  0  0  0  0  0  0
   -0.9263   -6.4051    5.5759 H   0  0  0  0  0  0  0  0  0  0  0  0
    0.4692   -7.5607    7.0391 H   0  0  0  0  0  0  0  0  0  0  0  0
    0.3504   -5.2649    3.6706 H   0  0  0  0  0  0  0  0  0  0  0  0
    2.3027   -4.8106    6.1366 H   0  0  0  0  0  0  0  0  0  0  0  0
    2.4798   -3.9676    3.1845 H   0  0  0  0  0  0  0  0  0  0  0  0
    3.3845   -3.2494    4.4593 H   0  0  0  0  0  0  0  0  0  0  0  0
    4.7077   -4.8144    3.2034 H   0  0  0  0  0  0  0  0  0  0  0  0
    4.4769   -5.7180    6.0978 H   0  0  0  0  0  0  0  0  0  0  0  0
    5.2720   -4.2670    5.5146 H   0  0  0  0  0  0  0  0  0  0  0  0
    5.8928   -5.8344    5.0633 H   0  0  0  0  0  0  0  0  0  0  0  0
    0.6760   -1.7567    4.7043 H   0  0  0  0  0  0  0  0  0  0  0  0
   -0.8756   -2.5158    4.3193 H   0  0  0  0  0  0  0  0  0  0  0  0
    0.5474   -2.8797    3.3427 H   0  0  0  0  0  0  0  0  0  0  0  0
    0.2713   -2.5696    7.0229 H   0  0  0  0  0  0  0  0  0  0  0  0
    0.2799   -4.2889    7.3939 H   0  0  0  0  0  0  0  0  0  0  0  0
   -1.1408   -3.5665    6.6228 H   0  0  0  0  0  0  0  0  0  0  0  0
  1  2  1  0
  1 36  1  0
  1 37  1  0
  1 38  1  0
  2 22  1  0
  2  3  2  0
  4  3  1  6
  3 39  1  0
  4 10  1  0
  4 31  1  0
  4  5  1  0
  5  6  1  0
  5 40  1  0
  5 41  1  0
  6  7  1  0
  6 23  1  0
  6 42  1  6
  7  8  1  0
  7  9  1  0
  7 10  1  0
  8 43  1  0
  8 44  1  0
  8 45  1  0
  9 46  1  0
  9 47  1  0
  9 48  1  0
 10 11  1  0
 10 49  1  1
 11 12  1  0
 11 22  1  0
 11 50  1  6
 12 13  1  0
 13 14  2  0
 13 15  1  0
 15 16  1  0
 15 51  1  0
 15 52  1  0
 16 21  1  0
 16 17  1  0
 17 18  1  0
 17 53  1  0
 17 54  1  0
 18 19  1  0
 18 55  1  0
 18 56  1  0
 19 20  1  0
 20 21  1  0
 20 57  1  0
 20 58  1  0
 21 59  1  0
 21 60  1  0
 22 61  1  0
 22 62  1  0
 23 25  1  6
 23 24  1  0
 23 26  1  0
 24 25  1  0
 24 63  1  0
 24 64  1  0
 26 27  1  0
 26 28  1  0
 26 65  1  1
 27 66  1  0
 28 33  1  0
 28 29  1  0
 28 67  1  6
 29 30  1  0
 29 33  1  0
 29 68  1  1
 30 31  1  0
 30 69  1  0
 30 70  1  0
 31 32  1  0
 31 71  1  6
 32 72  1  0
 32 73  1  0
 32 74  1  0
 33 34  1  0
 33 35  1  0
 34 75  1  0
 34 76  1  0
 34 77  1  0
 35 78  1  0
 35 79  1  0
 35 80  1  0
M  END
>  <i_m_ct_stereo_status>  (275) 
1

>  <s_m_source_file>  (275) 
/var/tmp/pbs.5076255.sched01/tmplj_yfvzq/807e0r74np.sdf

>  <i_m_source_file_index>  (275) 
34

>  <i_lp_mmshare_version>  (275) 
48012

>  <i_f3d_flags>  (275) 
0

>  <s_epik_input>  (275) 
W0NIMl0xW0NIMl1PW0NIMl1bQ0gyXU4xW0NIMl1DKD1PKU9bQ0BASF0oW0NIMl1DKFtDSDNdKT1bQ0hdMilbQ0BIXShbQ0BdMjM0KUMoW0NIM10pKFtDSDNdKVtDQEBIXShbQ0gyXTMpW0NAQF01KFtDSDJdTzUpW0NAQEhdKFtPSF0pW0NAQEhdNltDQEhdKEM2KFtDSDNdKVtDSDNdKVtDSDJdW0NASF00W0NIM10=

>  <s_epik_cmdline>  (275) 
J2VwaWtfcHl0aG9uJywgJy1waHQnLCAnMi4wJywgJy1waCcsICc3LjAnLCAnLXRuJywgJzgnLCAnLW1hJywgJzIwMCcsICctaW1hZScsICc8aW5maWxlLm1hZT4nLCAnLW9tYWUnLCAnPG91dGZpbGUubWFlPic=

>  <r_epik_Ionization_Penalty>  (275) 
0.0065437

>  <r_epik_Ionization_Penalty_Charging>  (275) 
0

>  <r_epik_Ionization_Penalty_Neutral>  (275) 
0.0065437

>  <r_epik_State_Penalty>  (275) 
0.00484546

>  <r_epik_Charging_Adjusted_Penalty>  (275) 
0.00484546

>  <i_epik_Tot_Q>  (275) 
0

>  <i_epik_Tot_abs_Q>  (275) 
0

>  <s_epik_Chemistry_Notes>  (275) 
This compound has an ester and may undergo hydrolysis at high or low pH.

>  <s_lp_Force_Field>  (275) 
OPLS3e

>  <r_lp_Energy>  (275) 
64.8738

>  <b_lp_Chiralities_Consistent>  (275) 
1

>  <s_lp_Variant>  (275) 
83:0-1

>  <s_i_glide_gridfile>  (275) 
pfpi4k_grid

>  <i_i_glide_lignum>  (275) 
34

>  <i_i_glide_rotatable_bonds>  (275) 
5

>  <r_i_docking_score>  (275) 
-2.3818

>  <r_i_glide_ligand_efficiency>  (275) 
-0.0680515

>  <r_i_glide_ligand_efficiency_sa>  (275) 
-0.222601

>  <r_i_glide_ligand_efficiency_ln>  (275) 
-0.522859

>  <r_i_glide_gscore>  (275) 
-2.3818

>  <r_i_glide_lipo>  (275) 
-0.625915

>  <r_i_glide_hbond>  (275) 
-0.147418

>  <r_i_glide_metal>  (275) 
-0

>  <r_i_glide_rewards>  (275) 
-0.0840593

>  <r_i_glide_evdw>  (275) 
-30.1256

>  <r_i_glide_ecoul>  (275) 
-1.70627

>  <r_i_glide_erotb>  (275) 
0.256464

>  <r_i_glide_esite>  (275) 
-0.0186547

>  <r_i_glide_emodel>  (275) 
-35.1702

>  <r_i_glide_energy>  (275) 
-31.8319

>  <r_i_glide_einternal>  (275) 
2.37681

>  <r_i_glide_intrahb_reward>  (275) 
-0

>  <i_i_glide_confnum>  (275) 
1

>  <i_i_glide_posenum>  (275) 
13

>  <r_i_glide_eff_state_penalty>  (275) 
0

>  <ligand_id>  (275) 
83

>  <original_smiles>  (275) 
CC1=CC23CC(C(C)(C)C2C(OC(=O)CN2CCOCC2)C1)C1(CO1)C(O)C1C(CC3C)C1(C)C

>  <smiles>  (275) 
[H]OC1([H])C2([H])C([H])(C([H])([H])C([H])(C([H])([H])[H])C34C([H])=C(C([H])([H])[H])C([H])([H])C([H])(OC(=O)C([H])([H])N5C([H])([H])C([H])([H])OC([H])([H])C5([H])[H])C3([H])C(C([H])([H])[H])(C([H])([H])[H])C([H])(C4([H])[H])C13OC3([H])[H])C2(C([H])([H])[H])C([H])([H])[H]

$$$$
84:0:0
     RDKit          3D

 58 64  0  0  1  0  0  0  0  0999 V2000
    0.7072   -8.7519   10.0664 C   0  0  0  0  0  0  0  0  0  0  0  0
    0.4740   -7.4342   10.5134 C   0  0  0  0  0  0  0  0  0  0  0  0
    0.2164   -6.3800    9.6971 N   0  0  0  0  0  0  0  0  0  0  0  0
    0.2320   -6.6227    8.3771 C   0  0  0  0  0  0  0  0  0  0  0  0
   -0.0128   -5.6662    7.3839 N   0  0  0  0  0  0  0  0  0  0  0  0
    0.0920   -6.3335    6.2295 C   0  0  0  0  0  0  0  0  0  0  0  0
    0.3909   -7.6472    6.4801 N   0  0  0  0  0  0  0  0  0  0  0  0
    0.5506   -8.6672    5.4279 C   0  0  2  0  0  0  0  0  0  0  0  0
    1.7759   -9.5978    5.6866 C   0  0  0  0  0  0  0  0  0  0  0  0
    2.1678  -10.4399    4.4587 C   0  0  1  0  0  0  0  0  0  0  0  0
    0.9936  -11.2554    3.9145 C   0  0  0  0  0  0  0  0  0  0  0  0
    0.3129  -10.3175    2.9020 C   0  0  0  0  0  0  0  0  0  0  0  0
    1.1568   -9.0423    2.9362 C   0  0  1  0  0  0  0  0  0  0  0  0
    0.6305   -8.0469    3.9956 C   0  0  0  0  0  0  0  0  0  0  0  0
    2.4855   -9.5459    3.3354 N   0  0  1  0  0  0  0  0  0  0  0  0
    3.6021   -8.5724    3.5092 C   0  0  2  0  0  0  0  0  0  0  0  0
    3.9130   -7.8598    2.1695 C   0  0  2  0  0  0  0  0  0  0  0  0
    4.3582   -8.8960    1.1094 C   0  0  0  0  0  0  0  0  0  0  0  0
    5.6270   -9.6153    1.6128 C   0  0  1  0  0  0  0  0  0  0  0  0
    6.7389   -8.5687    1.8252 C   0  0  0  0  0  0  0  0  0  0  0  0
    6.2985   -7.5316    2.8800 C   0  0  1  0  0  0  0  0  0  0  0  0
    5.0233   -6.8161    2.3869 C   0  0  0  0  0  0  0  0  0  0  0  0
    6.0055   -8.2527    4.2124 C   0  0  0  0  0  0  0  0  0  0  0  0
    4.8882   -9.2871    3.9981 C   0  0  2  0  0  0  0  0  0  0  0  0
    5.3279  -10.3331    2.9456 C   0  0  0  0  0  0  0  0  0  0  0  0
    0.4664   -7.9037    7.8229 C   0  0  0  0  0  0  0  0  0  0  0  0
    0.6914   -9.0057    8.6781 C   0  0  0  0  0  0  0  0  0  0  0  0
    0.9025   -9.5537   10.7683 H   0  0  0  0  0  0  0  0  0  0  0  0
    0.4689   -7.2154   11.5788 H   0  0  0  0  0  0  0  0  0  0  0  0
   -0.0572   -5.8732    5.2658 H   0  0  0  0  0  0  0  0  0  0  0  0
   -0.3458   -9.2964    5.4659 H   0  0  0  0  0  0  0  0  0  0  0  0
    2.6209   -9.0048    6.0455 H   0  0  0  0  0  0  0  0  0  0  0  0
    1.5624  -10.3289    6.4601 H   0  0  0  0  0  0  0  0  0  0  0  0
    2.9835  -11.1137    4.7143 H   0  0  0  0  0  0  0  0  0  0  0  0
    1.3718  -12.1454    3.4127 H   0  0  0  0  0  0  0  0  0  0  0  0
    0.3239  -11.5900    4.7064 H   0  0  0  0  0  0  0  0  0  0  0  0
    0.3520  -10.7479    1.9063 H   0  0  0  0  0  0  0  0  0  0  0  0
   -0.7342  -10.1347    3.1377 H   0  0  0  0  0  0  0  0  0  0  0  0
    1.1769   -8.5676    1.9556 H   0  0  0  0  0  0  0  0  0  0  0  0
   -0.3554   -7.6820    3.6987 H   0  0  0  0  0  0  0  0  0  0  0  0
    1.2883   -7.1754    3.9993 H   0  0  0  0  0  0  0  0  0  0  0  0
    3.3614   -7.8138    4.2541 H   0  0  0  0  0  0  0  0  0  0  0  0
    3.0371   -7.3244    1.8068 H   0  0  0  0  0  0  0  0  0  0  0  0
    3.5695   -9.6230    0.9062 H   0  0  0  0  0  0  0  0  0  0  0  0
    4.5511   -8.4061    0.1543 H   0  0  0  0  0  0  0  0  0  0  0  0
    5.9373  -10.3541    0.8721 H   0  0  0  0  0  0  0  0  0  0  0  0
    7.6532   -9.0575    2.1565 H   0  0  0  0  0  0  0  0  0  0  0  0
    6.9616   -8.0706    0.8819 H   0  0  0  0  0  0  0  0  0  0  0  0
    7.0964   -6.8006    3.0336 H   0  0  0  0  0  0  0  0  0  0  0  0
    5.2224   -6.2793    1.4589 H   0  0  0  0  0  0  0  0  0  0  0  0
    4.7018   -6.0697    3.1142 H   0  0  0  0  0  0  0  0  0  0  0  0
    6.9030   -8.7503    4.5856 H   0  0  0  0  0  0  0  0  0  0  0  0
    5.7071   -7.5334    4.9784 H   0  0  0  0  0  0  0  0  0  0  0  0
    4.7353   -9.7656    4.9659 H   0  0  0  0  0  0  0  0  0  0  0  0
    4.5536  -11.0871    2.7854 H   0  0  0  0  0  0  0  0  0  0  0  0
    6.2005  -10.8840    3.2982 H   0  0  0  0  0  0  0  0  0  0  0  0
    0.8515  -10.0185    8.3487 H   0  0  0  0  0  0  0  0  0  0  0  0
    2.7755  -10.1633    2.5911 H   0  0  0  0  0  0  0  0  0  0  0  0
  1 27  1  0
  1  2  2  0
  1 28  1  0
  2  3  1  0
  2 29  1  0
  3  4  2  0
  4 26  1  0
  4  5  1  0
  5  6  2  0
  6  7  1  0
  6 30  1  0
  7  8  1  0
  7 26  1  0
  8 14  1  0
  8  9  1  0
  8 31  1  6
  9 10  1  0
  9 32  1  0
  9 33  1  0
 10 15  1  0
 10 11  1  0
 10 34  1  1
 11 12  1  0
 11 35  1  0
 11 36  1  0
 12 13  1  0
 12 37  1  0
 12 38  1  0
 13 14  1  0
 13 15  1  0
 13 39  1  6
 14 40  1  0
 14 41  1  0
 15 16  1  0
 15 58  1  6
 16 24  1  0
 16 17  1  0
 16 42  1  1
 17 22  1  0
 17 18  1  0
 17 43  1  6
 18 19  1  0
 18 44  1  0
 18 45  1  0
 19 25  1  0
 19 20  1  0
 19 46  1  6
 20 21  1  0
 20 47  1  0
 20 48  1  0
 21 22  1  0
 21 23  1  0
 21 49  1  1
 22 50  1  0
 22 51  1  0
 23 24  1  0
 23 52  1  0
 23 53  1  0
 24 25  1  0
 24 54  1  1
 25 55  1  0
 25 56  1  0
 26 27  2  0
 27 57  1  0
M  CHG  1  15   1
M  END
>  <i_m_ct_stereo_status>  (276) 
1

>  <s_m_source_file>  (276) 
/var/tmp/pbs.5076255.sched01/tmplj_yfvzq/807e0r74np.sdf

>  <i_m_source_file_index>  (276) 
35

>  <i_lp_mmshare_version>  (276) 
48012

>  <i_f3d_flags>  (276) 
0

>  <s_epik_input>  (276) 
bjFbY0hdW2NIXVtjSF1jKGMxMiluKFtjSF1uMilbQ0BIXShbQ0gyXVtDQEBIXTM0KVtDSDJdW0NASF0oW0NIMl1bQ0gyXTMpTjRbQ0BIXShbQ0BASF01NilbQ0BIXTdbQ0gyXVtDQEBIXShbQ0gyXTYpW0NIMl1bQ0BASF0oW0NIMl01KVtDSDJdNw==

>  <s_epik_cmdline>  (276) 
J2VwaWtfcHl0aG9uJywgJy1waHQnLCAnMi4wJywgJy1waCcsICc3LjAnLCAnLXRuJywgJzgnLCAnLW1hJywgJzIwMCcsICctaW1hZScsICc8aW5maWxlLm1hZT4nLCAnLW9tYWUnLCAnPG91dGZpbGUubWFlPic=

>  <r_lp_tautomer_probability>  (276) 
1

>  <r_epik_Ionization_Penalty>  (276) 
0.000764506

>  <r_epik_Ionization_Penalty_Charging>  (276) 
0.000488512

>  <r_epik_Ionization_Penalty_Neutral>  (276) 
0.000275994

>  <r_epik_State_Penalty>  (276) 
-0

>  <r_epik_Charging_Adjusted_Penalty>  (276) 
0.000488512

>  <i_epik_Tot_Q>  (276) 
1

>  <i_epik_Tot_abs_Q>  (276) 
1

>  <s_lp_Force_Field>  (276) 
OPLS3e

>  <r_lp_Energy>  (276) 
28.4104

>  <b_lp_Chiralities_Consistent>  (276) 
1

>  <s_lp_Variant>  (276) 
84:0-1

>  <s_i_glide_gridfile>  (276) 
pfpi4k_grid

>  <i_i_glide_lignum>  (276) 
35

>  <i_i_glide_rotatable_bonds>  (276) 
2

>  <r_i_docking_score>  (276) 
-3.47593

>  <r_i_glide_ligand_efficiency>  (276) 
-0.128738

>  <r_i_glide_ligand_efficiency_sa>  (276) 
-0.386214

>  <r_i_glide_ligand_efficiency_ln>  (276) 
-0.809139

>  <r_i_glide_gscore>  (276) 
-3.47593

>  <r_i_glide_lipo>  (276) 
-0.348748

>  <r_i_glide_hbond>  (276) 
-0.246017

>  <r_i_glide_metal>  (276) 
-0

>  <r_i_glide_rewards>  (276) 
-0.930552

>  <r_i_glide_evdw>  (276) 
-26.4776

>  <r_i_glide_ecoul>  (276) 
-5.75475

>  <r_i_glide_erotb>  (276) 
0.290805

>  <r_i_glide_esite>  (276) 
-0.054324

>  <r_i_glide_emodel>  (276) 
-39.6987

>  <r_i_glide_energy>  (276) 
-32.2323

>  <r_i_glide_einternal>  (276) 
2.20766

>  <r_i_glide_intrahb_reward>  (276) 
-0

>  <i_i_glide_confnum>  (276) 
4

>  <i_i_glide_posenum>  (276) 
18

>  <r_i_glide_eff_state_penalty>  (276) 
0

>  <ligand_id>  (276) 
84

>  <original_smiles>  (276) 
c1cnc2ncn(C3CC4CCC(C3)N4C3C4CC5CC(C4)CC3C5)c2c1

>  <smiles>  (276) 
[H]c1nc2nc([H])n(C3([H])C([H])([H])C4([H])C([H])([H])C([H])([H])C([H])(C3([H])[H])[N+]4([H])C3([H])C4([H])C([H])([H])C5([H])C([H])([H])C([H])(C4([H])[H])C([H])([H])C3([H])C5([H])[H])c2c([H])c1[H]

$$$$
84:0:1
     RDKit          3D

 58 64  0  0  1  0  0  0  0  0999 V2000
    8.9734   -3.8674    0.8762 C   0  0  0  0  0  0  0  0  0  0  0  0
    8.4732   -2.8180    0.0723 C   0  0  0  0  0  0  0  0  0  0  0  0
    7.2072   -2.7569   -0.4068 N   0  0  0  0  0  0  0  0  0  0  0  0
    6.3941   -3.7718   -0.0730 C   0  0  0  0  0  0  0  0  0  0  0  0
    5.0585   -3.8881   -0.4606 N   0  0  0  0  0  0  0  0  0  0  0  0
    4.6217   -5.0362    0.0807 C   0  0  0  0  0  0  0  0  0  0  0  0
    5.6522   -5.6144    0.7760 N   0  0  0  0  0  0  0  0  0  0  0  0
    5.5453   -6.8893    1.5090 C   0  0  2  0  0  0  0  0  0  0  0  0
    4.5853   -7.9195    0.8306 C   0  0  0  0  0  0  0  0  0  0  0  0
    4.1968   -9.0904    1.7510 C   0  0  1  0  0  0  0  0  0  0  0  0
    5.4218   -9.8373    2.2739 C   0  0  0  0  0  0  0  0  0  0  0  0
    5.7802   -9.1046    3.5788 C   0  0  0  0  0  0  0  0  0  0  0  0
    4.7333   -7.9834    3.7025 C   0  0  1  0  0  0  0  0  0  0  0  0
    5.1891   -6.6671    3.0081 C   0  0  0  0  0  0  0  0  0  0  0  0
    3.5809   -8.5559    2.9828 N   0  0  1  0  0  0  0  0  0  0  0  0
    2.3266   -7.7443    2.8793 C   0  0  2  0  0  0  0  0  0  0  0  0
    1.7635   -7.4112    4.2841 C   0  0  2  0  0  0  0  0  0  0  0  0
    1.4114   -8.7098    5.0472 C   0  0  0  0  0  0  0  0  0  0  0  0
    0.3445   -9.4757    4.2438 C   0  0  1  0  0  0  0  0  0  0  0  0
   -0.9091   -8.5882    4.1043 C   0  0  0  0  0  0  0  0  0  0  0  0
   -0.5604   -7.2844    3.3586 C   0  0  1  0  0  0  0  0  0  0  0  0
    0.5186   -6.5174    4.1488 C   0  0  0  0  0  0  0  0  0  0  0  0
   -0.0199   -7.6342    1.9587 C   0  0  0  0  0  0  0  0  0  0  0  0
    1.2355   -8.5120    2.1006 C   0  0  2  0  0  0  0  0  0  0  0  0
    0.8847   -9.8248    2.8442 C   0  0  0  0  0  0  0  0  0  0  0  0
    6.7940   -4.8731    0.7265 C   0  0  0  0  0  0  0  0  0  0  0  0
    8.1131   -4.9346    1.2205 C   0  0  0  0  0  0  0  0  0  0  0  0
    9.9706   -3.8030    1.2924 H   0  0  0  0  0  0  0  0  0  0  0  0
    9.1038   -1.9770   -0.1958 H   0  0  0  0  0  0  0  0  0  0  0  0
    3.6143   -5.3948   -0.0447 H   0  0  0  0  0  0  0  0  0  0  0  0
    6.5371   -7.3538    1.4956 H   0  0  0  0  0  0  0  0  0  0  0  0
    3.6418   -7.4741    0.5307 H   0  0  0  0  0  0  0  0  0  0  0  0
    5.0140   -8.2949   -0.0916 H   0  0  0  0  0  0  0  0  0  0  0  0
    3.5470   -9.7837    1.2164 H   0  0  0  0  0  0  0  0  0  0  0  0
    5.1335  -10.8688    2.4769 H   0  0  0  0  0  0  0  0  0  0  0  0
    6.2282   -9.8519    1.5413 H   0  0  0  0  0  0  0  0  0  0  0  0
    5.6737   -9.7930    4.4167 H   0  0  0  0  0  0  0  0  0  0  0  0
    6.7999   -8.7228    3.5863 H   0  0  0  0  0  0  0  0  0  0  0  0
    4.5120   -7.8045    4.7568 H   0  0  0  0  0  0  0  0  0  0  0  0
    6.0470   -6.2534    3.5437 H   0  0  0  0  0  0  0  0  0  0  0  0
    4.4121   -5.9056    3.0950 H   0  0  0  0  0  0  0  0  0  0  0  0
    2.4989   -6.8046    2.3553 H   0  0  0  0  0  0  0  0  0  0  0  0
    2.4859   -6.8463    4.8648 H   0  0  0  0  0  0  0  0  0  0  0  0
    2.2885   -9.3410    5.1994 H   0  0  0  0  0  0  0  0  0  0  0  0
    1.0450   -8.4846    6.0497 H   0  0  0  0  0  0  0  0  0  0  0  0
    0.0954  -10.3983    4.7693 H   0  0  0  0  0  0  0  0  0  0  0  0
   -1.6960   -9.1281    3.5763 H   0  0  0  0  0  0  0  0  0  0  0  0
   -1.2982   -8.3597    5.0953 H   0  0  0  0  0  0  0  0  0  0  0  0
   -1.4594   -6.6737    3.2629 H   0  0  0  0  0  0  0  0  0  0  0  0
    0.1455   -6.2404    5.1354 H   0  0  0  0  0  0  0  0  0  0  0  0
    0.7796   -5.5879    3.6419 H   0  0  0  0  0  0  0  0  0  0  0  0
   -0.7744   -8.1700    1.3783 H   0  0  0  0  0  0  0  0  0  0  0  0
    0.2244   -6.7317    1.3968 H   0  0  0  0  0  0  0  0  0  0  0  0
    1.5589   -8.7303    1.0861 H   0  0  0  0  0  0  0  0  0  0  0  0
    1.7536  -10.4801    2.9376 H   0  0  0  0  0  0  0  0  0  0  0  0
    0.1519  -10.4014    2.2773 H   0  0  0  0  0  0  0  0  0  0  0  0
    8.4533   -5.7457    1.8486 H   0  0  0  0  0  0  0  0  0  0  0  0
    3.3310   -9.3810    3.5034 H   0  0  0  0  0  0  0  0  0  0  0  0
  1 27  1  0
  1  2  2  0
  1 28  1  0
  2  3  1  0
  2 29  1  0
  3  4  2  0
  4 26  1  0
  4  5  1  0
  5  6  2  0
  6  7  1  0
  6 30  1  0
  7  8  1  0
  7 26  1  0
  8 14  1  0
  8  9  1  0
  8 31  1  1
  9 10  1  0
  9 32  1  0
  9 33  1  0
 10 15  1  0
 10 11  1  0
 10 34  1  6
 11 12  1  0
 11 35  1  0
 11 36  1  0
 12 13  1  0
 12 37  1  0
 12 38  1  0
 13 14  1  0
 13 15  1  0
 13 39  1  1
 14 40  1  0
 14 41  1  0
 15 16  1  0
 15 58  1  1
 16 24  1  0
 16 17  1  0
 16 42  1  6
 17 22  1  0
 17 18  1  0
 17 43  1  1
 18 19  1  0
 18 44  1  0
 18 45  1  0
 19 25  1  0
 19 20  1  0
 19 46  1  1
 20 21  1  0
 20 47  1  0
 20 48  1  0
 21 22  1  0
 21 23  1  0
 21 49  1  6
 22 50  1  0
 22 51  1  0
 23 24  1  0
 23 52  1  0
 23 53  1  0
 24 25  1  0
 24 54  1  6
 25 55  1  0
 25 56  1  0
 26 27  2  0
 27 57  1  0
M  CHG  1  15   1
M  END
>  <i_m_ct_stereo_status>  (277) 
1

>  <s_m_source_file>  (277) 
/var/tmp/pbs.5076255.sched01/tmplj_yfvzq/807e0r74np.sdf

>  <i_m_source_file_index>  (277) 
35

>  <i_lp_mmshare_version>  (277) 
48012

>  <i_f3d_flags>  (277) 
0

>  <s_epik_input>  (277) 
bjFbY0hdW2NIXVtjSF1jKGMxMiluKFtjSF1uMilbQ0BIXShbQ0gyXVtDQEBIXTM0KVtDSDJdW0NASF0oW0NIMl1bQ0gyXTMpTjRbQ0BIXShbQ0BASF01NilbQ0BIXTdbQ0gyXVtDQEBIXShbQ0gyXTYpW0NIMl1bQ0BASF0oW0NIMl01KVtDSDJdNw==

>  <s_epik_cmdline>  (277) 
J2VwaWtfcHl0aG9uJywgJy1waHQnLCAnMi4wJywgJy1waCcsICc3LjAnLCAnLXRuJywgJzgnLCAnLW1hJywgJzIwMCcsICctaW1hZScsICc8aW5maWxlLm1hZT4nLCAnLW9tYWUnLCAnPG91dGZpbGUubWFlPic=

>  <r_lp_tautomer_probability>  (277) 
1

>  <r_epik_Ionization_Penalty>  (277) 
0.000764506

>  <r_epik_Ionization_Penalty_Charging>  (277) 
0.000488512

>  <r_epik_Ionization_Penalty_Neutral>  (277) 
0.000275994

>  <r_epik_State_Penalty>  (277) 
-0

>  <r_epik_Charging_Adjusted_Penalty>  (277) 
0.000488512

>  <i_epik_Tot_Q>  (277) 
1

>  <i_epik_Tot_abs_Q>  (277) 
1

>  <s_lp_Force_Field>  (277) 
OPLS3e

>  <r_lp_Energy>  (277) 
28.4104

>  <b_lp_Chiralities_Consistent>  (277) 
1

>  <s_lp_Variant>  (277) 
84:0-1

>  <s_i_glide_gridfile>  (277) 
pfpi4k_grid

>  <i_i_glide_lignum>  (277) 
35

>  <i_i_glide_rotatable_bonds>  (277) 
2

>  <r_i_docking_score>  (277) 
-3.38125

>  <r_i_glide_ligand_efficiency>  (277) 
-0.125231

>  <r_i_glide_ligand_efficiency_sa>  (277) 
-0.375694

>  <r_i_glide_ligand_efficiency_ln>  (277) 
-0.787099

>  <r_i_glide_gscore>  (277) 
-3.38125

>  <r_i_glide_lipo>  (277) 
-0.484429

>  <r_i_glide_hbond>  (277) 
0

>  <r_i_glide_metal>  (277) 
-0

>  <r_i_glide_rewards>  (277) 
-1.18926

>  <r_i_glide_evdw>  (277) 
-31.6341

>  <r_i_glide_ecoul>  (277) 
-2.741

>  <r_i_glide_erotb>  (277) 
0.290805

>  <r_i_glide_esite>  (277) 
-0.00550752

>  <r_i_glide_emodel>  (277) 
-41.8454

>  <r_i_glide_energy>  (277) 
-34.3751

>  <r_i_glide_einternal>  (277) 
1.60161

>  <r_i_glide_intrahb_reward>  (277) 
-0

>  <i_i_glide_confnum>  (277) 
4

>  <i_i_glide_posenum>  (277) 
12

>  <r_i_glide_eff_state_penalty>  (277) 
0

>  <ligand_id>  (277) 
84

>  <original_smiles>  (277) 
c1cnc2ncn(C3CC4CCC(C3)N4C3C4CC5CC(C4)CC3C5)c2c1

>  <smiles>  (277) 
[H]c1nc2nc([H])n(C3([H])C([H])([H])C4([H])C([H])([H])C([H])([H])C([H])(C3([H])[H])[N+]4([H])C3([H])C4([H])C([H])([H])C5([H])C([H])([H])C([H])(C4([H])[H])C([H])([H])C3([H])C5([H])[H])c2c([H])c1[H]

$$$$
84:0:2
     RDKit          3D

 58 64  0  0  1  0  0  0  0  0999 V2000
    4.2788   -3.9790    0.8656 C   0  0  0  0  0  0  0  0  0  0  0  0
    5.2625   -3.1020    0.3777 C   0  0  0  0  0  0  0  0  0  0  0  0
    6.5990   -3.3828    0.3380 N   0  0  0  0  0  0  0  0  0  0  0  0
    6.9940   -4.5820    0.8037 C   0  0  0  0  0  0  0  0  0  0  0  0
    8.3038   -5.0946    0.8564 N   0  0  0  0  0  0  0  0  0  0  0  0
    8.2042   -6.3325    1.3878 C   0  0  0  0  0  0  0  0  0  0  0  0
    6.8937   -6.5711    1.6460 N   0  0  0  0  0  0  0  0  0  0  0  0
    6.4644   -7.8446    2.2425 C   0  0  2  0  0  0  0  0  0  0  0  0
    5.4705   -8.6387    1.3464 C   0  0  0  0  0  0  0  0  0  0  0  0
    4.7667   -9.7842    2.1079 C   0  0  1  0  0  0  0  0  0  0  0  0
    5.7696  -10.7784    2.7020 C   0  0  0  0  0  0  0  0  0  0  0  0
    6.0609  -10.2218    4.1115 C   0  0  0  0  0  0  0  0  0  0  0  0
    5.1962   -8.9572    4.2111 C   0  0  1  0  0  0  0  0  0  0  0  0
    5.9421   -7.6858    3.7006 C   0  0  0  0  0  0  0  0  0  0  0  0
    4.0756   -9.2936    3.3136 N   0  0  1  0  0  0  0  0  0  0  0  0
    2.9627   -8.3099    3.1498 C   0  0  2  0  0  0  0  0  0  0  0  0
    2.3312   -7.8679    4.4856 C   0  0  2  0  0  0  0  0  0  0  0  0
    1.6897   -9.0839    5.1584 C   0  0  0  0  0  0  0  0  0  0  0  0
    0.6014   -9.6300    4.2102 C   0  0  1  0  0  0  0  0  0  0  0  0
   -0.4519   -8.5257    3.9821 C   0  0  0  0  0  0  0  0  0  0  0  0
    0.1993   -7.2884    3.3223 C   0  0  1  0  0  0  0  0  0  0  0  0
    1.3054   -6.7459    4.2425 C   0  0  0  0  0  0  0  0  0  0  0  0
    0.8120   -7.7010    1.9713 C   0  0  0  0  0  0  0  0  0  0  0  0
    1.8516   -8.8127    2.1991 C   0  0  2  0  0  0  0  0  0  0  0  0
    1.2008  -10.0441    2.8456 C   0  0  0  0  0  0  0  0  0  0  0  0
    6.0778   -5.5305    1.3068 C   0  0  0  0  0  0  0  0  0  0  0  0
    4.6984   -5.2297    1.3317 C   0  0  0  0  0  0  0  0  0  0  0  0
    3.2150   -3.7516    0.8856 H   0  0  0  0  0  0  0  0  0  0  0  0
    4.9397   -2.1438    0.0030 H   0  0  0  0  0  0  0  0  0  0  0  0
    9.0019   -7.0362    1.5824 H   0  0  0  0  0  0  0  0  0  0  0  0
    7.3495   -8.4873    2.3187 H   0  0  0  0  0  0  0  0  0  0  0  0
    4.7092   -7.9927    0.9157 H   0  0  0  0  0  0  0  0  0  0  0  0
    6.0008   -9.0596    0.4866 H   0  0  0  0  0  0  0  0  0  0  0  0
    4.0768  -10.2577    1.4202 H   0  0  0  0  0  0  0  0  0  0  0  0
    5.2806  -11.7490    2.7822 H   0  0  0  0  0  0  0  0  0  0  0  0
    6.6589  -10.9024    2.0827 H   0  0  0  0  0  0  0  0  0  0  0  0
    5.7123  -10.9358    4.8588 H   0  0  0  0  0  0  0  0  0  0  0  0
    7.1173  -10.0249    4.2997 H   0  0  0  0  0  0  0  0  0  0  0  0
    4.8756   -8.8184    5.2455 H   0  0  0  0  0  0  0  0  0  0  0  0
    6.7797   -7.4645    4.3669 H   0  0  0  0  0  0  0  0  0  0  0  0
    5.2881   -6.8179    3.7741 H   0  0  0  0  0  0  0  0  0  0  0  0
    3.3656   -7.4123    2.7340 H   0  0  0  0  0  0  0  0  0  0  0  0
    3.0801   -7.4360    5.1293 H   0  0  0  0  0  0  0  0  0  0  0  0
    2.4321   -9.8599    5.3611 H   0  0  0  0  0  0  0  0  0  0  0  0
    1.2749   -8.8128    6.1308 H   0  0  0  0  0  0  0  0  0  0  0  0
    0.1467  -10.5076    4.6723 H   0  0  0  0  0  0  0  0  0  0  0  0
   -1.2578   -8.9067    3.3554 H   0  0  0  0  0  0  0  0  0  0  0  0
   -0.8886   -8.2450    4.9380 H   0  0  0  0  0  0  0  0  0  0  0  0
   -0.5576   -6.5215    3.1586 H   0  0  0  0  0  0  0  0  0  0  0  0
    0.8898   -6.4114    5.1946 H   0  0  0  0  0  0  0  0  0  0  0  0
    1.7862   -5.8726    3.7959 H   0  0  0  0  0  0  0  0  0  0  0  0
    0.0341   -8.0640    1.2940 H   0  0  0  0  0  0  0  0  0  0  0  0
    1.2741   -6.8449    1.4742 H   0  0  0  0  0  0  0  0  0  0  0  0
    2.2327   -9.0475    1.2086 H   0  0  0  0  0  0  0  0  0  0  0  0
    1.9342  -10.8421    2.9918 H   0  0  0  0  0  0  0  0  0  0  0  0
    0.4369  -10.4617    2.1861 H   0  0  0  0  0  0  0  0  0  0  0  0
    3.9275   -5.8926    1.6530 H   0  0  0  0  0  0  0  0  0  0  0  0
    3.6756  -10.1272    3.7146 H   0  0  0  0  0  0  0  0  0  0  0  0
  1 27  1  0
  1  2  2  0
  1 28  1  0
  2  3  1  0
  2 29  1  0
  3  4  2  0
  4 26  1  0
  4  5  1  0
  5  6  2  0
  6  7  1  0
  6 30  1  0
  7  8  1  0
  7 26  1  0
  8 14  1  0
  8  9  1  0
  8 31  1  1
  9 10  1  0
  9 32  1  0
  9 33  1  0
 10 15  1  0
 10 11  1  0
 10 34  1  6
 11 12  1  0
 11 35  1  0
 11 36  1  0
 12 13  1  0
 12 37  1  0
 12 38  1  0
 13 14  1  0
 13 15  1  0
 13 39  1  1
 14 40  1  0
 14 41  1  0
 15 16  1  0
 15 58  1  1
 16 24  1  0
 16 17  1  0
 16 42  1  6
 17 22  1  0
 17 18  1  0
 17 43  1  1
 18 19  1  0
 18 44  1  0
 18 45  1  0
 19 25  1  0
 19 20  1  0
 19 46  1  1
 20 21  1  0
 20 47  1  0
 20 48  1  0
 21 22  1  0
 21 23  1  0
 21 49  1  6
 22 50  1  0
 22 51  1  0
 23 24  1  0
 23 52  1  0
 23 53  1  0
 24 25  1  0
 24 54  1  6
 25 55  1  0
 25 56  1  0
 26 27  2  0
 27 57  1  0
M  CHG  1  15   1
M  END
>  <i_m_ct_stereo_status>  (278) 
1

>  <s_m_source_file>  (278) 
/var/tmp/pbs.5076255.sched01/tmplj_yfvzq/807e0r74np.sdf

>  <i_m_source_file_index>  (278) 
35

>  <i_lp_mmshare_version>  (278) 
48012

>  <i_f3d_flags>  (278) 
0

>  <s_epik_input>  (278) 
bjFbY0hdW2NIXVtjSF1jKGMxMiluKFtjSF1uMilbQ0BIXShbQ0gyXVtDQEBIXTM0KVtDSDJdW0NASF0oW0NIMl1bQ0gyXTMpTjRbQ0BIXShbQ0BASF01NilbQ0BIXTdbQ0gyXVtDQEBIXShbQ0gyXTYpW0NIMl1bQ0BASF0oW0NIMl01KVtDSDJdNw==

>  <s_epik_cmdline>  (278) 
J2VwaWtfcHl0aG9uJywgJy1waHQnLCAnMi4wJywgJy1waCcsICc3LjAnLCAnLXRuJywgJzgnLCAnLW1hJywgJzIwMCcsICctaW1hZScsICc8aW5maWxlLm1hZT4nLCAnLW9tYWUnLCAnPG91dGZpbGUubWFlPic=

>  <r_lp_tautomer_probability>  (278) 
1

>  <r_epik_Ionization_Penalty>  (278) 
0.000764506

>  <r_epik_Ionization_Penalty_Charging>  (278) 
0.000488512

>  <r_epik_Ionization_Penalty_Neutral>  (278) 
0.000275994

>  <r_epik_State_Penalty>  (278) 
-0

>  <r_epik_Charging_Adjusted_Penalty>  (278) 
0.000488512

>  <i_epik_Tot_Q>  (278) 
1

>  <i_epik_Tot_abs_Q>  (278) 
1

>  <s_lp_Force_Field>  (278) 
OPLS3e

>  <r_lp_Energy>  (278) 
28.4104

>  <b_lp_Chiralities_Consistent>  (278) 
1

>  <s_lp_Variant>  (278) 
84:0-1

>  <s_i_glide_gridfile>  (278) 
pfpi4k_grid

>  <i_i_glide_lignum>  (278) 
35

>  <i_i_glide_rotatable_bonds>  (278) 
2

>  <r_i_docking_score>  (278) 
-3.36076

>  <r_i_glide_ligand_efficiency>  (278) 
-0.124472

>  <r_i_glide_ligand_efficiency_sa>  (278) 
-0.373417

>  <r_i_glide_ligand_efficiency_ln>  (278) 
-0.782329

>  <r_i_glide_gscore>  (278) 
-3.36076

>  <r_i_glide_lipo>  (278) 
-0.394686

>  <r_i_glide_hbond>  (278) 
0

>  <r_i_glide_metal>  (278) 
-0

>  <r_i_glide_rewards>  (278) 
-1.19894

>  <r_i_glide_evdw>  (278) 
-28.047

>  <r_i_glide_ecoul>  (278) 
-4.00956

>  <r_i_glide_erotb>  (278) 
0.290805

>  <r_i_glide_esite>  (278) 
-0.0541559

>  <r_i_glide_emodel>  (278) 
-39.5997

>  <r_i_glide_energy>  (278) 
-32.0566

>  <r_i_glide_einternal>  (278) 
0.371976

>  <r_i_glide_intrahb_reward>  (278) 
-0

>  <i_i_glide_confnum>  (278) 
4

>  <i_i_glide_posenum>  (278) 
28

>  <r_i_glide_eff_state_penalty>  (278) 
0

>  <ligand_id>  (278) 
84

>  <original_smiles>  (278) 
c1cnc2ncn(C3CC4CCC(C3)N4C3C4CC5CC(C4)CC3C5)c2c1

>  <smiles>  (278) 
[H]c1nc2nc([H])n(C3([H])C([H])([H])C4([H])C([H])([H])C([H])([H])C([H])(C3([H])[H])[N+]4([H])C3([H])C4([H])C([H])([H])C5([H])C([H])([H])C([H])(C4([H])[H])C([H])([H])C3([H])C5([H])[H])c2c([H])c1[H]

$$$$
84:1:0
     RDKit          3D

 58 64  0  0  1  0  0  0  0  0999 V2000
    4.9924   -0.9478    1.7129 C   0  0  0  0  0  0  0  0  0  0  0  0
    5.7483   -0.7921    0.5291 C   0  0  0  0  0  0  0  0  0  0  0  0
    6.4831   -1.7458   -0.0814 N   0  0  0  0  0  0  0  0  0  0  0  0
    6.5389   -2.9404    0.5446 C   0  0  0  0  0  0  0  0  0  0  0  0
    7.2680   -4.0320    0.1030 N   0  0  0  0  0  0  0  0  0  0  0  0
    7.0266   -4.9595    1.0503 C   0  0  0  0  0  0  0  0  0  0  0  0
    6.1744   -4.4971    1.9966 N   0  0  0  0  0  0  0  0  0  0  0  0
    5.5530   -5.3687    3.0836 C   0  0  1  0  0  0  0  0  0  0  0  0
    4.0030   -5.1536    3.2054 C   0  0  0  0  0  0  0  0  0  0  0  0
    3.1967   -6.0061    2.1826 C   0  0  1  0  0  0  0  0  0  0  0  0
    3.6463   -5.7835    0.7216 C   0  0  0  0  0  0  0  0  0  0  0  0
    4.7794   -6.8455    0.4675 C   0  0  0  0  0  0  0  0  0  0  0  0
    4.8924   -7.5544    1.8597 C   0  0  1  0  0  0  0  0  0  0  0  0
    5.8639   -6.8648    2.8772 C   0  0  0  0  0  0  0  0  0  0  0  0
    3.5086   -7.4320    2.3728 N   0  0  1  0  0  0  0  0  0  0  0  0
    3.1630   -8.0493    3.6723 C   0  0  2  0  0  0  0  0  0  0  0  0
    3.5188   -9.5601    3.6484 C   0  0  1  0  0  0  0  0  0  0  0  0
    3.1958  -10.1654    5.0166 C   0  0  0  0  0  0  0  0  0  0  0  0
    1.6917  -10.0051    5.2942 C   0  0  2  0  0  0  0  0  0  0  0  0
    0.8919  -10.7248    4.1929 C   0  0  0  0  0  0  0  0  0  0  0  0
    1.2060  -10.1000    2.8237 C   0  0  2  0  0  0  0  0  0  0  0  0
    2.7095  -10.2636    2.5346 C   0  0  0  0  0  0  0  0  0  0  0  0
    0.8399   -8.6008    2.8276 C   0  0  0  0  0  0  0  0  0  0  0  0
    1.6396   -7.8958    3.9514 C   0  0  1  0  0  0  0  0  0  0  0  0
    1.3169   -8.5115    5.3185 C   0  0  0  0  0  0  0  0  0  0  0  0
    5.8352   -3.2295    1.7757 C   0  0  0  0  0  0  0  0  0  0  0  0
    5.0337   -2.2066    2.3574 C   0  0  0  0  0  0  0  0  0  0  0  0
    4.4179   -0.1435    2.1299 H   0  0  0  0  0  0  0  0  0  0  0  0
    5.7772    0.1708    0.0501 H   0  0  0  0  0  0  0  0  0  0  0  0
    7.4560   -5.9824    0.9734 H   0  0  0  0  0  0  0  0  0  0  0  0
    6.0224   -5.0062    3.9933 H   0  0  0  0  0  0  0  0  0  0  0  0
    3.6984   -5.4093    4.2233 H   0  0  0  0  0  0  0  0  0  0  0  0
    3.6509   -4.1356    3.0916 H   0  0  0  0  0  0  0  0  0  0  0  0
    2.1246   -5.7732    2.2660 H   0  0  0  0  0  0  0  0  0  0  0  0
    2.8140   -5.9014    0.0142 H   0  0  0  0  0  0  0  0  0  0  0  0
    4.0189   -4.7665    0.5725 H   0  0  0  0  0  0  0  0  0  0  0  0
    4.4060   -7.5906   -0.2649 H   0  0  0  0  0  0  0  0  0  0  0  0
    5.6625   -6.4457    0.0850 H   0  0  0  0  0  0  0  0  0  0  0  0
    5.1780   -8.5960    1.7169 H   0  0  0  0  0  0  0  0  0  0  0  0
    6.9017   -7.0557    2.6191 H   0  0  0  0  0  0  0  0  0  0  0  0
    5.8117   -7.3529    3.8514 H   0  0  0  0  0  0  0  0  0  0  0  0
    3.7219   -7.5662    4.4873 H   0  0  0  0  0  0  0  0  0  0  0  0
    4.5854   -9.6996    3.4745 H   0  0  0  0  0  0  0  0  0  0  0  0
    3.4807  -11.2154    5.0216 H   0  0  0  0  0  0  0  0  0  0  0  0
    3.7902   -9.6736    5.7889 H   0  0  0  0  0  0  0  0  0  0  0  0
    1.4651  -10.4405    6.2606 H   0  0  0  0  0  0  0  0  0  0  0  0
    1.1453  -11.7845    4.1835 H   0  0  0  0  0  0  0  0  0  0  0  0
   -0.1761  -10.6650    4.3950 H   0  0  0  0  0  0  0  0  0  0  0  0
    0.6247  -10.6014    2.0540 H   0  0  0  0  0  0  0  0  0  0  0  0
    2.9519   -9.8810    1.5413 H   0  0  0  0  0  0  0  0  0  0  0  0
    2.9748  -11.3183    2.5010 H   0  0  0  0  0  0  0  0  0  0  0  0
    1.0609   -8.1646    1.8496 H   0  0  0  0  0  0  0  0  0  0  0  0
   -0.2290   -8.4486    2.9736 H   0  0  0  0  0  0  0  0  0  0  0  0
    1.3707   -6.8416    3.9974 H   0  0  0  0  0  0  0  0  0  0  0  0
    0.2579   -8.3783    5.5369 H   0  0  0  0  0  0  0  0  0  0  0  0
    1.8701   -7.9880    6.0991 H   0  0  0  0  0  0  0  0  0  0  0  0
    4.4814   -2.3447    3.2797 H   0  0  0  0  0  0  0  0  0  0  0  0
    2.9272   -7.9268    1.7019 H   0  0  0  0  0  0  0  0  0  0  0  0
  1 27  1  0
  1  2  2  0
  1 28  1  0
  2  3  1  0
  2 29  1  0
  3  4  2  0
  4 26  1  0
  4  5  1  0
  5  6  2  0
  6  7  1  0
  6 30  1  0
  7  8  1  0
  7 26  1  0
  8 14  1  0
  8  9  1  0
  8 31  1  1
  9 10  1  0
  9 32  1  0
  9 33  1  0
 10 15  1  0
 10 11  1  0
 10 34  1  6
 11 12  1  0
 11 35  1  0
 11 36  1  0
 12 13  1  0
 12 37  1  0
 12 38  1  0
 13 14  1  0
 13 15  1  0
 13 39  1  6
 14 40  1  0
 14 41  1  0
 15 16  1  0
 15 58  1  6
 16 24  1  0
 16 17  1  0
 16 42  1  1
 17 22  1  0
 17 18  1  0
 17 43  1  6
 18 19  1  0
 18 44  1  0
 18 45  1  0
 19 25  1  0
 19 20  1  0
 19 46  1  1
 20 21  1  0
 20 47  1  0
 20 48  1  0
 21 22  1  0
 21 23  1  0
 21 49  1  6
 22 50  1  0
 22 51  1  0
 23 24  1  0
 23 52  1  0
 23 53  1  0
 24 25  1  0
 24 54  1  1
 25 55  1  0
 25 56  1  0
 26 27  2  0
 27 57  1  0
M  CHG  1  15   1
M  END
>  <i_m_ct_stereo_status>  (279) 
1

>  <s_m_source_file>  (279) 
/var/tmp/pbs.5076255.sched01/tmplj_yfvzq/807e0r74np.sdf

>  <i_m_source_file_index>  (279) 
36

>  <i_lp_mmshare_version>  (279) 
48012

>  <i_f3d_flags>  (279) 
0

>  <s_epik_input>  (279) 
bjFbY0hdW2NIXVtjSF1jKGMxMiluKFtjSF1uMilbQ0BIXShbQ0gyXVtDQEBIXTM0KVtDSDJdW0NASF0oW0NIMl1bQ0gyXTMpTjRbQ0BIXShbQ0BASF01NilbQ0BIXTdbQ0gyXVtDQEBIXShbQ0gyXTYpW0NIMl1bQ0BASF0oW0NIMl01KVtDSDJdNw==

>  <s_epik_cmdline>  (279) 
J2VwaWtfcHl0aG9uJywgJy1waHQnLCAnMi4wJywgJy1waCcsICc3LjAnLCAnLXRuJywgJzgnLCAnLW1hJywgJzIwMCcsICctaW1hZScsICc8aW5maWxlLm1hZT4nLCAnLW9tYWUnLCAnPG91dGZpbGUubWFlPic=

>  <r_lp_tautomer_probability>  (279) 
1

>  <r_epik_Ionization_Penalty>  (279) 
0.000764506

>  <r_epik_Ionization_Penalty_Charging>  (279) 
0.000488512

>  <r_epik_Ionization_Penalty_Neutral>  (279) 
0.000275994

>  <r_epik_State_Penalty>  (279) 
-0

>  <r_epik_Charging_Adjusted_Penalty>  (279) 
0.000488512

>  <i_epik_Tot_Q>  (279) 
1

>  <i_epik_Tot_abs_Q>  (279) 
1

>  <s_lp_Force_Field>  (279) 
OPLS3e

>  <r_lp_Energy>  (279) 
34.7718

>  <b_lp_Chiralities_Consistent>  (279) 
1

>  <s_lp_Variant>  (279) 
84:0-2

>  <s_i_glide_gridfile>  (279) 
pfpi4k_grid

>  <i_i_glide_lignum>  (279) 
36

>  <i_i_glide_rotatable_bonds>  (279) 
2

>  <r_i_docking_score>  (279) 
-3.61405

>  <r_i_glide_ligand_efficiency>  (279) 
-0.133854

>  <r_i_glide_ligand_efficiency_sa>  (279) 
-0.401561

>  <r_i_glide_ligand_efficiency_ln>  (279) 
-0.841291

>  <r_i_glide_gscore>  (279) 
-3.61405

>  <r_i_glide_lipo>  (279) 
-0.685638

>  <r_i_glide_hbond>  (279) 
-0.0296476

>  <r_i_glide_metal>  (279) 
-0

>  <r_i_glide_rewards>  (279) 
-1.26418

>  <r_i_glide_evdw>  (279) 
-26.36

>  <r_i_glide_ecoul>  (279) 
-4.04674

>  <r_i_glide_erotb>  (279) 
0.290805

>  <r_i_glide_esite>  (279) 
-0.00037984

>  <r_i_glide_emodel>  (279) 
-35.9407

>  <r_i_glide_energy>  (279) 
-30.4068

>  <r_i_glide_einternal>  (279) 
1.12798

>  <r_i_glide_intrahb_reward>  (279) 
-0

>  <i_i_glide_confnum>  (279) 
4

>  <i_i_glide_posenum>  (279) 
37

>  <r_i_glide_eff_state_penalty>  (279) 
0

>  <ligand_id>  (279) 
84

>  <original_smiles>  (279) 
c1cnc2ncn(C3CC4CCC(C3)N4C3C4CC5CC(C4)CC3C5)c2c1

>  <smiles>  (279) 
[H]c1nc2nc([H])n(C3([H])C([H])([H])C4([H])C([H])([H])C([H])([H])C([H])(C3([H])[H])[N+]4([H])C3([H])C4([H])C([H])([H])C5([H])C([H])([H])C([H])(C4([H])[H])C([H])([H])C3([H])C5([H])[H])c2c([H])c1[H]

$$$$
84:1:1
     RDKit          3D

 58 64  0  0  1  0  0  0  0  0999 V2000
    3.8196   -1.6948    0.0380 C   0  0  0  0  0  0  0  0  0  0  0  0
    4.7808   -1.4074   -0.9150 C   0  0  0  0  0  0  0  0  0  0  0  0
    6.0379   -1.9552   -1.0103 N   0  0  0  0  0  0  0  0  0  0  0  0
    6.3649   -2.8343   -0.0879 C   0  0  0  0  0  0  0  0  0  0  0  0
    7.5171   -3.6186   -0.0649 N   0  0  0  0  0  0  0  0  0  0  0  0
    7.3887   -4.4531    0.9786 C   0  0  0  0  0  0  0  0  0  0  0  0
    6.1869   -4.2363    1.6027 N   0  0  0  0  0  0  0  0  0  0  0  0
    5.6540   -5.1161    2.6681 C   0  0  1  0  0  0  0  0  0  0  0  0
    4.1647   -4.8503    2.9849 C   0  0  0  0  0  0  0  0  0  0  0  0
    3.2075   -5.5522    1.9434 C   0  0  1  0  0  0  0  0  0  0  0  0
    3.5203   -5.4164    0.4368 C   0  0  0  0  0  0  0  0  0  0  0  0
    4.6123   -6.4407    0.1302 C   0  0  0  0  0  0  0  0  0  0  0  0
    4.7429   -7.2149    1.4439 C   0  0  1  0  0  0  0  0  0  0  0  0
    5.8434   -6.6358    2.3762 C   0  0  0  0  0  0  0  0  0  0  0  0
    3.4103   -7.0156    2.0406 N   0  0  1  0  0  0  0  0  0  0  0  0
    3.1214   -7.6546    3.3232 C   0  0  2  0  0  0  0  0  0  0  0  0
    3.5163   -9.1475    3.2502 C   0  0  1  0  0  0  0  0  0  0  0  0
    3.2545   -9.7907    4.6139 C   0  0  0  0  0  0  0  0  0  0  0  0
    1.7538   -9.6822    4.9393 C   0  0  2  0  0  0  0  0  0  0  0  0
    0.9395  -10.4087    3.8480 C   0  0  0  0  0  0  0  0  0  0  0  0
    1.2015   -9.7406    2.4834 C   0  0  2  0  0  0  0  0  0  0  0  0
    2.6997   -9.8460    2.1497 C   0  0  0  0  0  0  0  0  0  0  0  0
    0.8039   -8.2422    2.5256 C   0  0  0  0  0  0  0  0  0  0  0  0
    1.6103   -7.5321    3.6398 C   0  0  1  0  0  0  0  0  0  0  0  0
    1.3400   -8.1934    5.0010 C   0  0  0  0  0  0  0  0  0  0  0  0
    5.4674   -3.1911    0.9900 C   0  0  0  0  0  0  0  0  0  0  0  0
    4.2285   -2.6002    1.0619 C   0  0  0  0  0  0  0  0  0  0  0  0
    2.8177   -1.3643    0.0340 H   0  0  0  0  0  0  0  0  0  0  0  0
    4.5155   -0.6472   -1.6514 H   0  0  0  0  0  0  0  0  0  0  0  0
    8.1044   -5.2076    1.2497 H   0  0  0  0  0  0  0  0  0  0  0  0
    6.2319   -4.8557    3.5469 H   0  0  0  0  0  0  0  0  0  0  0  0
    3.8948   -5.1132    3.9974 H   0  0  0  0  0  0  0  0  0  0  0  0
    4.0578   -3.7994    3.1203 H   0  0  0  0  0  0  0  0  0  0  0  0
    2.1618   -5.2539    2.1317 H   0  0  0  0  0  0  0  0  0  0  0  0
    2.6439   -5.4026   -0.2137 H   0  0  0  0  0  0  0  0  0  0  0  0
    3.9338   -4.5592    0.0759 H   0  0  0  0  0  0  0  0  0  0  0  0
    4.2960   -7.0432   -0.7280 H   0  0  0  0  0  0  0  0  0  0  0  0
    5.5518   -5.9722   -0.1593 H   0  0  0  0  0  0  0  0  0  0  0  0
    4.9369   -8.2514    1.1968 H   0  0  0  0  0  0  0  0  0  0  0  0
    6.8296   -6.8393    1.9631 H   0  0  0  0  0  0  0  0  0  0  0  0
    5.8370   -7.1914    3.3136 H   0  0  0  0  0  0  0  0  0  0  0  0
    3.7115   -7.1610    4.0940 H   0  0  0  0  0  0  0  0  0  0  0  0
    4.5813   -9.2469    3.0370 H   0  0  0  0  0  0  0  0  0  0  0  0
    3.5684  -10.8332    4.5920 H   0  0  0  0  0  0  0  0  0  0  0  0
    3.8522   -9.3002    5.3822 H   0  0  0  0  0  0  0  0  0  0  0  0
    1.5749  -10.1501    5.9060 H   0  0  0  0  0  0  0  0  0  0  0  0
    1.2273  -11.4629    3.8127 H   0  0  0  0  0  0  0  0  0  0  0  0
   -0.1248  -10.4009    4.0829 H   0  0  0  0  0  0  0  0  0  0  0  0
    0.6216  -10.2488    1.7152 H   0  0  0  0  0  0  0  0  0  0  0  0
    2.8994   -9.4415    1.1632 H   0  0  0  0  0  0  0  0  0  0  0  0
    2.9984  -10.9066    2.0838 H   0  0  0  0  0  0  0  0  0  0  0  0
    0.9947   -7.7896    1.5499 H   0  0  0  0  0  0  0  0  0  0  0  0
   -0.2649   -8.1241    2.6923 H   0  0  0  0  0  0  0  0  0  0  0  0
    1.3116   -6.4802    3.7059 H   0  0  0  0  0  0  0  0  0  0  0  0
    0.2865   -8.1023    5.2580 H   0  0  0  0  0  0  0  0  0  0  0  0
    1.8966   -7.6789    5.7843 H   0  0  0  0  0  0  0  0  0  0  0  0
    3.3539   -2.9597    1.5998 H   0  0  0  0  0  0  0  0  0  0  0  0
    2.7314   -7.4338    1.4187 H   0  0  0  0  0  0  0  0  0  0  0  0
  1 27  1  0
  1  2  2  0
  1 28  1  0
  2  3  1  0
  2 29  1  0
  3  4  2  0
  4 26  1  0
  4  5  1  0
  5  6  2  0
  6  7  1  0
  6 30  1  0
  7  8  1  0
  7 26  1  0
  8 14  1  0
  8  9  1  0
  8 31  1  1
  9 10  1  0
  9 32  1  0
  9 33  1  0
 10 15  1  0
 10 11  1  0
 10 34  1  6
 11 12  1  0
 11 35  1  0
 11 36  1  0
 12 13  1  0
 12 37  1  0
 12 38  1  0
 13 14  1  0
 13 15  1  0
 13 39  1  6
 14 40  1  0
 14 41  1  0
 15 16  1  0
 15 58  1  6
 16 24  1  0
 16 17  1  0
 16 42  1  1
 17 22  1  0
 17 18  1  0
 17 43  1  6
 18 19  1  0
 18 44  1  0
 18 45  1  0
 19 25  1  0
 19 20  1  0
 19 46  1  1
 20 21  1  0
 20 47  1  0
 20 48  1  0
 21 22  1  0
 21 23  1  0
 21 49  1  6
 22 50  1  0
 22 51  1  0
 23 24  1  0
 23 52  1  0
 23 53  1  0
 24 25  1  0
 24 54  1  1
 25 55  1  0
 25 56  1  0
 26 27  2  0
 27 57  1  0
M  CHG  1  15   1
M  END
>  <i_m_ct_stereo_status>  (280) 
1

>  <s_m_source_file>  (280) 
/var/tmp/pbs.5076255.sched01/tmplj_yfvzq/807e0r74np.sdf

>  <i_m_source_file_index>  (280) 
36

>  <i_lp_mmshare_version>  (280) 
48012

>  <i_f3d_flags>  (280) 
0

>  <s_epik_input>  (280) 
bjFbY0hdW2NIXVtjSF1jKGMxMiluKFtjSF1uMilbQ0BIXShbQ0gyXVtDQEBIXTM0KVtDSDJdW0NASF0oW0NIMl1bQ0gyXTMpTjRbQ0BIXShbQ0BASF01NilbQ0BIXTdbQ0gyXVtDQEBIXShbQ0gyXTYpW0NIMl1bQ0BASF0oW0NIMl01KVtDSDJdNw==

>  <s_epik_cmdline>  (280) 
J2VwaWtfcHl0aG9uJywgJy1waHQnLCAnMi4wJywgJy1waCcsICc3LjAnLCAnLXRuJywgJzgnLCAnLW1hJywgJzIwMCcsICctaW1hZScsICc8aW5maWxlLm1hZT4nLCAnLW9tYWUnLCAnPG91dGZpbGUubWFlPic=

>  <r_lp_tautomer_probability>  (280) 
1

>  <r_epik_Ionization_Penalty>  (280) 
0.000764506

>  <r_epik_Ionization_Penalty_Charging>  (280) 
0.000488512

>  <r_epik_Ionization_Penalty_Neutral>  (280) 
0.000275994

>  <r_epik_State_Penalty>  (280) 
-0

>  <r_epik_Charging_Adjusted_Penalty>  (280) 
0.000488512

>  <i_epik_Tot_Q>  (280) 
1

>  <i_epik_Tot_abs_Q>  (280) 
1

>  <s_lp_Force_Field>  (280) 
OPLS3e

>  <r_lp_Energy>  (280) 
34.7718

>  <b_lp_Chiralities_Consistent>  (280) 
1

>  <s_lp_Variant>  (280) 
84:0-2

>  <s_i_glide_gridfile>  (280) 
pfpi4k_grid

>  <i_i_glide_lignum>  (280) 
36

>  <i_i_glide_rotatable_bonds>  (280) 
2

>  <r_i_docking_score>  (280) 
-3.08368

>  <r_i_glide_ligand_efficiency>  (280) 
-0.11421

>  <r_i_glide_ligand_efficiency_sa>  (280) 
-0.342631

>  <r_i_glide_ligand_efficiency_ln>  (280) 
-0.71783

>  <r_i_glide_gscore>  (280) 
-3.08368

>  <r_i_glide_lipo>  (280) 
-0.387654

>  <r_i_glide_hbond>  (280) 
-0.0538525

>  <r_i_glide_metal>  (280) 
-0

>  <r_i_glide_rewards>  (280) 
-1.2649

>  <r_i_glide_evdw>  (280) 
-28.3081

>  <r_i_glide_ecoul>  (280) 
-4.62939

>  <r_i_glide_erotb>  (280) 
0.290805

>  <r_i_glide_esite>  (280) 
0

>  <r_i_glide_emodel>  (280) 
-29.8398

>  <r_i_glide_energy>  (280) 
-32.9375

>  <r_i_glide_einternal>  (280) 
10.3305

>  <r_i_glide_intrahb_reward>  (280) 
-0

>  <i_i_glide_confnum>  (280) 
4

>  <i_i_glide_posenum>  (280) 
1

>  <r_i_glide_eff_state_penalty>  (280) 
0

>  <ligand_id>  (280) 
84

>  <original_smiles>  (280) 
c1cnc2ncn(C3CC4CCC(C3)N4C3C4CC5CC(C4)CC3C5)c2c1

>  <smiles>  (280) 
[H]c1nc2nc([H])n(C3([H])C([H])([H])C4([H])C([H])([H])C([H])([H])C([H])(C3([H])[H])[N+]4([H])C3([H])C4([H])C([H])([H])C5([H])C([H])([H])C([H])(C4([H])[H])C([H])([H])C3([H])C5([H])[H])c2c([H])c1[H]

$$$$
84:1:2
     RDKit          3D

 58 64  0  0  1  0  0  0  0  0999 V2000
    2.7555  -11.1293    3.0211 C   0  0  0  0  0  0  0  0  0  0  0  0
    1.5852  -11.2872    3.7999 C   0  0  0  0  0  0  0  0  0  0  0  0
    0.9958  -10.3042    4.5069 N   0  0  0  0  0  0  0  0  0  0  0  0
    1.6124   -9.1179    4.5223 C   0  0  0  0  0  0  0  0  0  0  0  0
    1.1921   -8.0156    5.2335 N   0  0  0  0  0  0  0  0  0  0  0  0
    2.1714   -7.0899    5.0167 C   0  0  0  0  0  0  0  0  0  0  0  0
    3.0871   -7.5818    4.1208 N   0  0  0  0  0  0  0  0  0  0  0  0
    4.1452   -6.7320    3.4755 C   0  0  1  0  0  0  0  0  0  0  0  0
    4.1900   -6.8945    1.9193 C   0  0  0  0  0  0  0  0  0  0  0  0
    3.1630   -6.0000    1.1766 C   0  0  1  0  0  0  0  0  0  0  0  0
    1.7148   -6.1928    1.7043 C   0  0  0  0  0  0  0  0  0  0  0  0
    1.5559   -5.1439    2.8447 C   0  0  0  0  0  0  0  0  0  0  0  0
    2.9614   -4.4957    2.9341 C   0  0  1  0  0  0  0  0  0  0  0  0
    4.0078   -5.2325    3.8327 C   0  0  0  0  0  0  0  0  0  0  0  0
    3.4037   -4.5908    1.5172 N   0  0  1  0  0  0  0  0  0  0  0  0
    4.7019   -3.9931    1.1293 C   0  0  2  0  0  0  0  0  0  0  0  0
    4.7038   -2.4792    1.4764 C   0  0  1  0  0  0  0  0  0  0  0  0
    6.0706   -1.8949    1.1076 C   0  0  0  0  0  0  0  0  0  0  0  0
    6.2987   -2.0738   -0.4021 C   0  0  2  0  0  0  0  0  0  0  0  0
    5.1882   -1.3413   -1.1832 C   0  0  0  0  0  0  0  0  0  0  0  0
    3.8185   -1.9394   -0.8141 C   0  0  2  0  0  0  0  0  0  0  0  0
    3.5807   -1.7534    0.6970 C   0  0  0  0  0  0  0  0  0  0  0  0
    3.7861   -3.4444   -1.1610 C   0  0  0  0  0  0  0  0  0  0  0  0
    4.9228   -4.1607   -0.3942 C   0  0  1  0  0  0  0  0  0  0  0  0
    6.2852   -3.5680   -0.7607 C   0  0  0  0  0  0  0  0  0  0  0  0
    2.8331   -8.8565    3.7976 C   0  0  0  0  0  0  0  0  0  0  0  0
    3.3874   -9.8741    3.0029 C   0  0  0  0  0  0  0  0  0  0  0  0
    3.1678  -11.9572    2.4640 H   0  0  0  0  0  0  0  0  0  0  0  0
    1.0973  -12.2511    3.8557 H   0  0  0  0  0  0  0  0  0  0  0  0
    2.1013   -6.0979    5.4397 H   0  0  0  0  0  0  0  0  0  0  0  0
    5.0655   -7.1306    3.8831 H   0  0  0  0  0  0  0  0  0  0  0  0
    5.1931   -6.6793    1.5548 H   0  0  0  0  0  0  0  0  0  0  0  0
    4.0265   -7.9016    1.5587 H   0  0  0  0  0  0  0  0  0  0  0  0
    3.1746   -6.1998    0.0991 H   0  0  0  0  0  0  0  0  0  0  0  0
    0.9663   -6.0420    0.9043 H   0  0  0  0  0  0  0  0  0  0  0  0
    1.5612   -7.2151    2.0544 H   0  0  0  0  0  0  0  0  0  0  0  0
    0.8145   -4.3715    2.5747 H   0  0  0  0  0  0  0  0  0  0  0  0
    1.1619   -5.5525    3.7237 H   0  0  0  0  0  0  0  0  0  0  0  0
    2.8709   -3.4486    3.2576 H   0  0  0  0  0  0  0  0  0  0  0  0
    3.7948   -5.0851    4.8830 H   0  0  0  0  0  0  0  0  0  0  0  0
    4.9869   -4.7689    3.7633 H   0  0  0  0  0  0  0  0  0  0  0  0
    5.5113   -4.4970    1.6723 H   0  0  0  0  0  0  0  0  0  0  0  0
    4.5615   -2.3307    2.5464 H   0  0  0  0  0  0  0  0  0  0  0  0
    6.1043   -0.8438    1.3832 H   0  0  0  0  0  0  0  0  0  0  0  0
    6.8514   -2.3981    1.6788 H   0  0  0  0  0  0  0  0  0  0  0  0
    7.2712   -1.6677   -0.6546 H   0  0  0  0  0  0  0  0  0  0  0  0
    5.1993   -0.2819   -0.9340 H   0  0  0  0  0  0  0  0  0  0  0  0
    5.3575   -1.4092   -2.2568 H   0  0  0  0  0  0  0  0  0  0  0  0
    3.0273   -1.4330   -1.3674 H   0  0  0  0  0  0  0  0  0  0  0  0
    2.5914   -2.1239    0.9712 H   0  0  0  0  0  0  0  0  0  0  0  0
    3.5719   -0.6972    0.9520 H   0  0  0  0  0  0  0  0  0  0  0  0
    2.8100   -3.8613   -0.9041 H   0  0  0  0  0  0  0  0  0  0  0  0
    3.8888   -3.6152   -2.2308 H   0  0  0  0  0  0  0  0  0  0  0  0
    4.9433   -5.2168   -0.6592 H   0  0  0  0  0  0  0  0  0  0  0  0
    6.4672   -3.7166   -1.8235 H   0  0  0  0  0  0  0  0  0  0  0  0
    7.0758   -4.1021   -0.2304 H   0  0  0  0  0  0  0  0  0  0  0  0
    4.3005   -9.7477    2.4273 H   0  0  0  0  0  0  0  0  0  0  0  0
    2.7307   -4.0559    0.9863 H   0  0  0  0  0  0  0  0  0  0  0  0
  1 27  1  0
  1  2  2  0
  1 28  1  0
  2  3  1  0
  2 29  1  0
  3  4  2  0
  4 26  1  0
  4  5  1  0
  5  6  2  0
  6  7  1  0
  6 30  1  0
  7  8  1  0
  7 26  1  0
  8 14  1  0
  8  9  1  0
  8 31  1  1
  9 10  1  0
  9 32  1  0
  9 33  1  0
 10 15  1  0
 10 11  1  0
 10 34  1  6
 11 12  1  0
 11 35  1  0
 11 36  1  0
 12 13  1  0
 12 37  1  0
 12 38  1  0
 13 14  1  0
 13 15  1  0
 13 39  1  1
 14 40  1  0
 14 41  1  0
 15 16  1  0
 15 58  1  6
 16 24  1  0
 16 17  1  0
 16 42  1  1
 17 22  1  0
 17 18  1  0
 17 43  1  1
 18 19  1  0
 18 44  1  0
 18 45  1  0
 19 25  1  0
 19 20  1  0
 19 46  1  6
 20 21  1  0
 20 47  1  0
 20 48  1  0
 21 22  1  0
 21 23  1  0
 21 49  1  6
 22 50  1  0
 22 51  1  0
 23 24  1  0
 23 52  1  0
 23 53  1  0
 24 25  1  0
 24 54  1  1
 25 55  1  0
 25 56  1  0
 26 27  2  0
 27 57  1  0
M  CHG  1  15   1
M  END
>  <i_m_ct_stereo_status>  (281) 
1

>  <s_m_source_file>  (281) 
/var/tmp/pbs.5076255.sched01/tmplj_yfvzq/807e0r74np.sdf

>  <i_m_source_file_index>  (281) 
36

>  <i_lp_mmshare_version>  (281) 
48012

>  <i_f3d_flags>  (281) 
0

>  <s_epik_input>  (281) 
bjFbY0hdW2NIXVtjSF1jKGMxMiluKFtjSF1uMilbQ0BIXShbQ0gyXVtDQEBIXTM0KVtDSDJdW0NASF0oW0NIMl1bQ0gyXTMpTjRbQ0BIXShbQ0BASF01NilbQ0BIXTdbQ0gyXVtDQEBIXShbQ0gyXTYpW0NIMl1bQ0BASF0oW0NIMl01KVtDSDJdNw==

>  <s_epik_cmdline>  (281) 
J2VwaWtfcHl0aG9uJywgJy1waHQnLCAnMi4wJywgJy1waCcsICc3LjAnLCAnLXRuJywgJzgnLCAnLW1hJywgJzIwMCcsICctaW1hZScsICc8aW5maWxlLm1hZT4nLCAnLW9tYWUnLCAnPG91dGZpbGUubWFlPic=

>  <r_lp_tautomer_probability>  (281) 
1

>  <r_epik_Ionization_Penalty>  (281) 
0.000764506

>  <r_epik_Ionization_Penalty_Charging>  (281) 
0.000488512

>  <r_epik_Ionization_Penalty_Neutral>  (281) 
0.000275994

>  <r_epik_State_Penalty>  (281) 
-0

>  <r_epik_Charging_Adjusted_Penalty>  (281) 
0.000488512

>  <i_epik_Tot_Q>  (281) 
1

>  <i_epik_Tot_abs_Q>  (281) 
1

>  <s_lp_Force_Field>  (281) 
OPLS3e

>  <r_lp_Energy>  (281) 
34.7718

>  <b_lp_Chiralities_Consistent>  (281) 
1

>  <s_lp_Variant>  (281) 
84:0-2

>  <s_i_glide_gridfile>  (281) 
pfpi4k_grid

>  <i_i_glide_lignum>  (281) 
36

>  <i_i_glide_rotatable_bonds>  (281) 
2

>  <r_i_docking_score>  (281) 
-2.84438

>  <r_i_glide_ligand_efficiency>  (281) 
-0.105347

>  <r_i_glide_ligand_efficiency_sa>  (281) 
-0.316042

>  <r_i_glide_ligand_efficiency_ln>  (281) 
-0.662125

>  <r_i_glide_gscore>  (281) 
-2.84438

>  <r_i_glide_lipo>  (281) 
-0.517266

>  <r_i_glide_hbond>  (281) 
0

>  <r_i_glide_metal>  (281) 
-0

>  <r_i_glide_rewards>  (281) 
-0.930552

>  <r_i_glide_evdw>  (281) 
-27.1485

>  <r_i_glide_ecoul>  (281) 
-2.08273

>  <r_i_glide_erotb>  (281) 
0.290805

>  <r_i_glide_esite>  (281) 
-0.0175316

>  <r_i_glide_emodel>  (281) 
-33.2117

>  <r_i_glide_energy>  (281) 
-29.2313

>  <r_i_glide_einternal>  (281) 
1.06862

>  <r_i_glide_intrahb_reward>  (281) 
-0

>  <i_i_glide_confnum>  (281) 
4

>  <i_i_glide_posenum>  (281) 
2

>  <r_i_glide_eff_state_penalty>  (281) 
0

>  <ligand_id>  (281) 
84

>  <original_smiles>  (281) 
c1cnc2ncn(C3CC4CCC(C3)N4C3C4CC5CC(C4)CC3C5)c2c1

>  <smiles>  (281) 
[H]c1nc2nc([H])n(C3([H])C([H])([H])C4([H])C([H])([H])C([H])([H])C([H])(C3([H])[H])[N+]4([H])C3([H])C4([H])C([H])([H])C5([H])C([H])([H])C([H])(C4([H])[H])C([H])([H])C3([H])C5([H])[H])c2c([H])c1[H]

$$$$
86:0:0
     RDKit          3D

 40 44  0  0  1  0  0  0  0  0999 V2000
    2.3263    1.2463    7.3339 O   0  0  0  0  0  0  0  0  0  0  0  0
    3.5473    1.4413    7.1330 C   0  0  0  0  0  0  0  0  0  0  0  0
    4.2650    2.0944    7.9251 O   0  0  0  0  0  0  0  0  0  0  0  0
    4.1747    0.8696    5.8911 C   0  0  0  0  0  0  0  0  0  0  0  0
    5.5641    1.0400    5.6433 C   0  0  0  0  0  0  0  0  0  0  0  0
    6.1771    0.5180    4.4830 C   0  0  0  0  0  0  0  0  0  0  0  0
    5.3703   -0.1752    3.5614 C   0  0  0  0  0  0  0  0  0  0  0  0
    3.9900   -0.3228    3.7856 C   0  0  0  0  0  0  0  0  0  0  0  0
    3.3744    0.1823    4.9458 C   0  0  0  0  0  0  0  0  0  0  0  0
    3.3829   -0.9144    2.5216 C   0  0  2  0  0  0  0  0  0  0  0  0
    2.8727    0.2965    1.7086 C   0  0  0  0  0  0  0  0  0  0  0  0
    1.5161    0.6763    2.2785 C   0  0  0  0  0  0  0  0  0  0  0  0
    0.8943    1.8615    2.2220 N   0  0  0  0  0  0  0  0  0  0  0  0
   -0.3012    1.7909    2.8808 C   0  0  0  0  0  0  0  0  0  0  0  0
   -0.4249    0.5093    3.3511 C   0  0  0  0  0  0  0  0  0  0  0  0
    0.7017   -0.1645    2.9598 N   0  0  0  0  0  0  0  0  0  0  0  0
    1.0495   -1.5920    3.2372 C   0  0  0  0  0  0  0  0  0  0  0  0
    2.2492   -1.9401    2.3682 C   0  0  2  0  0  0  0  0  0  0  0  0
    2.8414   -3.3204    2.0033 C   0  0  0  0  0  0  0  0  0  0  0  0
    4.1437   -2.9135    1.2424 C   0  0  0  0  0  0  0  0  0  0  0  0
    4.5752   -1.7721    2.1507 C   0  0  1  0  0  0  0  0  0  0  0  0
    5.8045   -0.8816    2.2746 C   0  0  0  0  0  0  0  0  0  0  0  0
    6.1673    1.5952    6.3461 H   0  0  0  0  0  0  0  0  0  0  0  0
    7.2344    0.6543    4.2967 H   0  0  0  0  0  0  0  0  0  0  0  0
    2.3143    0.0849    5.1089 H   0  0  0  0  0  0  0  0  0  0  0  0
    3.5296    1.1588    1.7875 H   0  0  0  0  0  0  0  0  0  0  0  0
    2.7339    0.0623    0.6545 H   0  0  0  0  0  0  0  0  0  0  0  0
   -0.9610    2.6418    2.9618 H   0  0  0  0  0  0  0  0  0  0  0  0
   -1.2206    0.0452    3.9193 H   0  0  0  0  0  0  0  0  0  0  0  0
    1.2597   -1.7079    4.2982 H   0  0  0  0  0  0  0  0  0  0  0  0
    0.2059   -2.2185    2.9791 H   0  0  0  0  0  0  0  0  0  0  0  0
    1.8175   -1.7724    1.3760 H   0  0  0  0  0  0  0  0  0  0  0  0
    3.0558   -3.8919    2.9070 H   0  0  0  0  0  0  0  0  0  0  0  0
    2.1791   -3.9209    1.3789 H   0  0  0  0  0  0  0  0  0  0  0  0
    4.8690   -3.7268    1.1891 H   0  0  0  0  0  0  0  0  0  0  0  0
    3.9380   -2.5483    0.2351 H   0  0  0  0  0  0  0  0  0  0  0  0
    4.7716   -2.4122    3.0222 H   0  0  0  0  0  0  0  0  0  0  0  0
    5.8872   -0.1900    1.4382 H   0  0  0  0  0  0  0  0  0  0  0  0
    6.7218   -1.4508    2.3855 H   0  0  0  0  0  0  0  0  0  0  0  0
    1.2355    2.7020    1.7622 H   0  0  0  0  0  0  0  0  0  0  0  0
  1  2  2  0
  2  3  1  0
  2  4  1  0
  4  9  2  0
  4  5  1  0
  5  6  2  0
  5 23  1  0
  6  7  1  0
  6 24  1  0
  7 22  1  0
  7  8  2  0
  8  9  1  0
  8 10  1  0
  9 25  1  0
 10 18  1  0
 10 21  1  0
 10 11  1  6
 11 12  1  0
 11 26  1  0
 11 27  1  0
 12 16  1  0
 12 13  2  0
 13 14  1  0
 13 40  1  0
 14 15  2  0
 14 28  1  0
 15 16  1  0
 15 29  1  0
 16 17  1  0
 17 18  1  0
 17 30  1  0
 17 31  1  0
 18 19  1  0
 18 32  1  6
 19 20  1  0
 19 33  1  0
 19 34  1  0
 20 21  1  0
 20 35  1  0
 20 36  1  0
 21 22  1  0
 21 37  1  1
 22 38  1  0
 22 39  1  0
M  CHG  2   3  -1  13   1
M  END
>  <i_m_ct_stereo_status>  (282) 
1

>  <s_m_source_file>  (282) 
/var/tmp/pbs.5076255.sched01/tmplj_yfvzq/807e0r74np.sdf

>  <i_m_source_file_index>  (282) 
38

>  <i_lp_mmshare_version>  (282) 
48012

>  <i_f3d_flags>  (282) 
0

>  <s_epik_input>  (282) 
Tz1DKFtPSF0pYyhbY0hdMSlbY0hdW2NIXWMoYzFbQ0BdMjM0KVtDSDJdW0NAQEhdNFtDSDJdW0NIMl1bQ0BIXTNbQ0gyXW41YyhbQ0gyXTIpbltjSF1bY0hdNQ==

>  <s_epik_cmdline>  (282) 
J2VwaWtfcHl0aG9uJywgJy1waHQnLCAnMi4wJywgJy1waCcsICc3LjAnLCAnLXRuJywgJzgnLCAnLW1hJywgJzIwMCcsICctaW1hZScsICc8aW5maWxlLm1hZT4nLCAnLW9tYWUnLCAnPG91dGZpbGUubWFlPic=

>  <r_lp_tautomer_probability>  (282) 
1

>  <r_epik_Ionization_Penalty>  (282) 
0.00879807

>  <r_epik_Ionization_Penalty_Charging>  (282) 
0.00170894

>  <r_epik_Ionization_Penalty_Neutral>  (282) 
0.00708913

>  <r_epik_State_Penalty>  (282) 
0.00527835

>  <r_epik_Charging_Adjusted_Penalty>  (282) 
0.00698729

>  <i_epik_Tot_Q>  (282) 
0

>  <i_epik_Tot_abs_Q>  (282) 
2

>  <s_lp_Force_Field>  (282) 
OPLS3e

>  <r_lp_Energy>  (282) 
89.206

>  <b_lp_Chiralities_Consistent>  (282) 
1

>  <s_lp_Variant>  (282) 
86:0-1

>  <s_i_glide_gridfile>  (282) 
pfpi4k_grid

>  <i_i_glide_lignum>  (282) 
38

>  <i_i_glide_rotatable_bonds>  (282) 
1

>  <r_i_docking_score>  (282) 
-3.64331

>  <r_i_glide_ligand_efficiency>  (282) 
-0.165605

>  <r_i_glide_ligand_efficiency_sa>  (282) 
-0.464032

>  <r_i_glide_ligand_efficiency_ln>  (282) 
-0.890559

>  <r_i_glide_gscore>  (282) 
-3.64331

>  <r_i_glide_lipo>  (282) 
-0.507848

>  <r_i_glide_hbond>  (282) 
-0.0634069

>  <r_i_glide_metal>  (282) 
-0

>  <r_i_glide_rewards>  (282) 
-1.40217

>  <r_i_glide_evdw>  (282) 
-17.2342

>  <r_i_glide_ecoul>  (282) 
-4.51925

>  <r_i_glide_erotb>  (282) 
0

>  <r_i_glide_esite>  (282) 
-0.130289

>  <r_i_glide_emodel>  (282) 
-28.625

>  <r_i_glide_energy>  (282) 
-21.7534

>  <r_i_glide_einternal>  (282) 
0.00376924

>  <r_i_glide_intrahb_reward>  (282) 
-0

>  <i_i_glide_confnum>  (282) 
1

>  <i_i_glide_posenum>  (282) 
2

>  <r_i_glide_eff_state_penalty>  (282) 
0

>  <ligand_id>  (282) 
86

>  <original_smiles>  (282) 
O=C(O)c1ccc2c(c1)C13Cc4nccn4CC1CCC3C2

>  <smiles>  (282) 
[H]c1c([H])c2c(c([H])c1C(=O)[O-])C13C([H])([H])c4n(c([H])c([H])[n+]4[H])C([H])([H])C1([H])C([H])([H])C([H])([H])C3([H])C2([H])[H]

$$$$
86:0:1
     RDKit          3D

 40 44  0  0  1  0  0  0  0  0999 V2000
   -0.5850    7.3964    6.0779 O   0  0  0  0  0  0  0  0  0  0  0  0
    0.6493    7.5624    6.1826 C   0  0  0  0  0  0  0  0  0  0  0  0
    1.1554    8.6737    6.4532 O   0  0  0  0  0  0  0  0  0  0  0  0
    1.5606    6.3824    5.9763 C   0  0  0  0  0  0  0  0  0  0  0  0
    2.9515    6.5790    5.7674 C   0  0  0  0  0  0  0  0  0  0  0  0
    3.8311    5.4888    5.5656 C   0  0  0  0  0  0  0  0  0  0  0  0
    3.2892    4.1944    5.5691 C   0  0  0  0  0  0  0  0  0  0  0  0
    1.9049    3.9939    5.7487 C   0  0  0  0  0  0  0  0  0  0  0  0
    1.0277    5.0714    5.9606 C   0  0  0  0  0  0  0  0  0  0  0  0
    1.6162    2.5236    5.4918 C   0  0  2  0  0  0  0  0  0  0  0  0
    1.1894    2.4577    4.0034 C   0  0  0  0  0  0  0  0  0  0  0  0
   -0.2808    2.8225    3.9355 C   0  0  0  0  0  0  0  0  0  0  0  0
   -0.9677    3.3228    2.8944 N   0  0  0  0  0  0  0  0  0  0  0  0
   -2.2700    3.5400    3.2727 C   0  0  0  0  0  0  0  0  0  0  0  0
   -2.3832    3.1620    4.5864 C   0  0  0  0  0  0  0  0  0  0  0  0
   -1.1509    2.7127    4.9731 N   0  0  0  0  0  0  0  0  0  0  0  0
   -0.7651    2.1951    6.3182 C   0  0  0  0  0  0  0  0  0  0  0  0
    0.6226    1.5752    6.1837 C   0  0  2  0  0  0  0  0  0  0  0  0
    1.3857    0.6305    7.1393 C   0  0  0  0  0  0  0  0  0  0  0  0
    2.7831    0.5349    6.4432 C   0  0  0  0  0  0  0  0  0  0  0  0
    2.9290    1.9978    6.0462 C   0  0  1  0  0  0  0  0  0  0  0  0
    4.0378    2.8640    5.4565 C   0  0  0  0  0  0  0  0  0  0  0  0
    3.3515    7.5835    5.7480 H   0  0  0  0  0  0  0  0  0  0  0  0
    4.8919    5.6484    5.4065 H   0  0  0  0  0  0  0  0  0  0  0  0
   -0.0313    4.9215    6.0864 H   0  0  0  0  0  0  0  0  0  0  0  0
    1.7508    3.1507    3.3741 H   0  0  0  0  0  0  0  0  0  0  0  0
    1.2979    1.4565    3.5823 H   0  0  0  0  0  0  0  0  0  0  0  0
   -3.0033    3.9532    2.5966 H   0  0  0  0  0  0  0  0  0  0  0  0
   -3.2276    3.1843    5.2612 H   0  0  0  0  0  0  0  0  0  0  0  0
   -0.7634    3.0175    7.0371 H   0  0  0  0  0  0  0  0  0  0  0  0
   -1.5100    1.4607    6.6340 H   0  0  0  0  0  0  0  0  0  0  0  0
    0.3951    0.7882    5.4586 H   0  0  0  0  0  0  0  0  0  0  0  0
    1.4588    1.0716    8.1343 H   0  0  0  0  0  0  0  0  0  0  0  0
    0.9138   -0.3483    7.2437 H   0  0  0  0  0  0  0  0  0  0  0  0
    3.5675    0.1889    7.1169 H   0  0  0  0  0  0  0  0  0  0  0  0
    2.7641   -0.1021    5.5590 H   0  0  0  0  0  0  0  0  0  0  0  0
    2.9901    2.3722    7.0780 H   0  0  0  0  0  0  0  0  0  0  0  0
    4.2235    2.6091    4.4161 H   0  0  0  0  0  0  0  0  0  0  0  0
    4.9619    2.8392    6.0351 H   0  0  0  0  0  0  0  0  0  0  0  0
   -0.5553    3.5963    1.9933 H   0  0  0  0  0  0  0  0  0  0  0  0
  1  2  2  0
  2  3  1  0
  2  4  1  0
  4  9  2  0
  4  5  1  0
  5  6  2  0
  5 23  1  0
  6  7  1  0
  6 24  1  0
  7 22  1  0
  7  8  2  0
  8  9  1  0
  8 10  1  0
  9 25  1  0
 10 18  1  0
 10 21  1  0
 10 11  1  6
 11 12  1  0
 11 26  1  0
 11 27  1  0
 12 16  1  0
 12 13  2  0
 13 14  1  0
 13 40  1  0
 14 15  2  0
 14 28  1  0
 15 16  1  0
 15 29  1  0
 16 17  1  0
 17 18  1  0
 17 30  1  0
 17 31  1  0
 18 19  1  0
 18 32  1  6
 19 20  1  0
 19 33  1  0
 19 34  1  0
 20 21  1  0
 20 35  1  0
 20 36  1  0
 21 22  1  0
 21 37  1  1
 22 38  1  0
 22 39  1  0
M  CHG  2   3  -1  13   1
M  END
>  <i_m_ct_stereo_status>  (283) 
1

>  <s_m_source_file>  (283) 
/var/tmp/pbs.5076255.sched01/tmplj_yfvzq/807e0r74np.sdf

>  <i_m_source_file_index>  (283) 
38

>  <i_lp_mmshare_version>  (283) 
48012

>  <i_f3d_flags>  (283) 
0

>  <s_epik_input>  (283) 
Tz1DKFtPSF0pYyhbY0hdMSlbY0hdW2NIXWMoYzFbQ0BdMjM0KVtDSDJdW0NAQEhdNFtDSDJdW0NIMl1bQ0BIXTNbQ0gyXW41YyhbQ0gyXTIpbltjSF1bY0hdNQ==

>  <s_epik_cmdline>  (283) 
J2VwaWtfcHl0aG9uJywgJy1waHQnLCAnMi4wJywgJy1waCcsICc3LjAnLCAnLXRuJywgJzgnLCAnLW1hJywgJzIwMCcsICctaW1hZScsICc8aW5maWxlLm1hZT4nLCAnLW9tYWUnLCAnPG91dGZpbGUubWFlPic=

>  <r_lp_tautomer_probability>  (283) 
1

>  <r_epik_Ionization_Penalty>  (283) 
0.00879807

>  <r_epik_Ionization_Penalty_Charging>  (283) 
0.00170894

>  <r_epik_Ionization_Penalty_Neutral>  (283) 
0.00708913

>  <r_epik_State_Penalty>  (283) 
0.00527835

>  <r_epik_Charging_Adjusted_Penalty>  (283) 
0.00698729

>  <i_epik_Tot_Q>  (283) 
0

>  <i_epik_Tot_abs_Q>  (283) 
2

>  <s_lp_Force_Field>  (283) 
OPLS3e

>  <r_lp_Energy>  (283) 
89.206

>  <b_lp_Chiralities_Consistent>  (283) 
1

>  <s_lp_Variant>  (283) 
86:0-1

>  <s_i_glide_gridfile>  (283) 
pfpi4k_grid

>  <i_i_glide_lignum>  (283) 
38

>  <i_i_glide_rotatable_bonds>  (283) 
1

>  <r_i_docking_score>  (283) 
-3.57847

>  <r_i_glide_ligand_efficiency>  (283) 
-0.162658

>  <r_i_glide_ligand_efficiency_sa>  (283) 
-0.455774

>  <r_i_glide_ligand_efficiency_ln>  (283) 
-0.874709

>  <r_i_glide_gscore>  (283) 
-3.57847

>  <r_i_glide_lipo>  (283) 
0

>  <r_i_glide_hbond>  (283) 
-0.343928

>  <r_i_glide_metal>  (283) 
-0

>  <r_i_glide_rewards>  (283) 
-1.40217

>  <r_i_glide_evdw>  (283) 
-13.7351

>  <r_i_glide_ecoul>  (283) 
-6.45703

>  <r_i_glide_erotb>  (283) 
0

>  <r_i_glide_esite>  (283) 
-0.17706

>  <r_i_glide_emodel>  (283) 
-26.6492

>  <r_i_glide_energy>  (283) 
-20.1922

>  <r_i_glide_einternal>  (283) 
0.378061

>  <r_i_glide_intrahb_reward>  (283) 
-0

>  <i_i_glide_confnum>  (283) 
1

>  <i_i_glide_posenum>  (283) 
33

>  <r_i_glide_eff_state_penalty>  (283) 
0

>  <ligand_id>  (283) 
86

>  <original_smiles>  (283) 
O=C(O)c1ccc2c(c1)C13Cc4nccn4CC1CCC3C2

>  <smiles>  (283) 
[H]c1c([H])c2c(c([H])c1C(=O)[O-])C13C([H])([H])c4n(c([H])c([H])[n+]4[H])C([H])([H])C1([H])C([H])([H])C([H])([H])C3([H])C2([H])[H]

$$$$
86:0:2
     RDKit          3D

 40 44  0  0  1  0  0  0  0  0999 V2000
    0.1977    5.4489    7.0128 O   0  0  0  0  0  0  0  0  0  0  0  0
    1.4308    5.2615    6.9209 C   0  0  0  0  0  0  0  0  0  0  0  0
    2.2746    6.0569    7.3968 O   0  0  0  0  0  0  0  0  0  0  0  0
    1.9256    4.0290    6.2047 C   0  0  0  0  0  0  0  0  0  0  0  0
    3.3104    3.8558    5.9403 C   0  0  0  0  0  0  0  0  0  0  0  0
    3.7983    2.7090    5.2724 C   0  0  0  0  0  0  0  0  0  0  0  0
    2.8723    1.7422    4.8525 C   0  0  0  0  0  0  0  0  0  0  0  0
    1.4923    1.9200    5.0837 C   0  0  0  0  0  0  0  0  0  0  0  0
    1.0008    3.0489    5.7653 C   0  0  0  0  0  0  0  0  0  0  0  0
    0.7576    0.8141    4.3417 C   0  0  2  0  0  0  0  0  0  0  0  0
    0.3622    1.4449    2.9879 C   0  0  0  0  0  0  0  0  0  0  0  0
   -0.9144    2.2281    3.2200 C   0  0  0  0  0  0  0  0  0  0  0  0
   -1.3855    3.2549    2.5110 N   0  0  0  0  0  0  0  0  0  0  0  0
   -2.5501    3.7179    3.0592 C   0  0  0  0  0  0  0  0  0  0  0  0
   -2.7994    2.9408    4.1588 C   0  0  0  0  0  0  0  0  0  0  0  0
   -1.7949    2.0148    4.2272 N   0  0  0  0  0  0  0  0  0  0  0  0
   -1.6182    0.9360    5.2370 C   0  0  0  0  0  0  0  0  0  0  0  0
   -0.5006    0.0272    4.7398 C   0  0  2  0  0  0  0  0  0  0  0  0
   -0.1049   -1.3900    5.2019 C   0  0  0  0  0  0  0  0  0  0  0  0
    1.2036   -1.6360    4.3821 C   0  0  0  0  0  0  0  0  0  0  0  0
    1.8201   -0.2506    4.5284 C   0  0  1  0  0  0  0  0  0  0  0  0
    3.1632    0.3946    4.1870 C   0  0  0  0  0  0  0  0  0  0  0  0
    4.0123    4.6201    6.2433 H   0  0  0  0  0  0  0  0  0  0  0  0
    4.8542    2.5769    5.0867 H   0  0  0  0  0  0  0  0  0  0  0  0
   -0.0558    3.1935    5.9346 H   0  0  0  0  0  0  0  0  0  0  0  0
    1.1226    2.1230    2.5980 H   0  0  0  0  0  0  0  0  0  0  0  0
    0.1538    0.7010    2.2174 H   0  0  0  0  0  0  0  0  0  0  0  0
   -3.0920    4.5524    2.6472 H   0  0  0  0  0  0  0  0  0  0  0  0
   -3.6131    2.9561    4.8681 H   0  0  0  0  0  0  0  0  0  0  0  0
   -1.3706    1.3915    6.1976 H   0  0  0  0  0  0  0  0  0  0  0  0
   -2.5623    0.4010    5.3266 H   0  0  0  0  0  0  0  0  0  0  0  0
   -0.9533   -0.3139    3.8044 H   0  0  0  0  0  0  0  0  0  0  0  0
    0.0856   -1.3970    6.2755 H   0  0  0  0  0  0  0  0  0  0  0  0
   -0.8693   -2.1409    4.9891 H   0  0  0  0  0  0  0  0  0  0  0  0
    1.8226   -2.4296    4.8028 H   0  0  0  0  0  0  0  0  0  0  0  0
    1.0011   -1.8519    3.3332 H   0  0  0  0  0  0  0  0  0  0  0  0
    1.9738   -0.3285    5.6145 H   0  0  0  0  0  0  0  0  0  0  0  0
    3.2925    0.5056    3.1110 H   0  0  0  0  0  0  0  0  0  0  0  0
    4.0169   -0.1254    4.6243 H   0  0  0  0  0  0  0  0  0  0  0  0
   -0.8434    3.6984    1.7514 H   0  0  0  0  0  0  0  0  0  0  0  0
  1  2  2  0
  2  3  1  0
  2  4  1  0
  4  9  2  0
  4  5  1  0
  5  6  2  0
  5 23  1  0
  6  7  1  0
  6 24  1  0
  7 22  1  0
  7  8  2  0
  8  9  1  0
  8 10  1  0
  9 25  1  0
 10 18  1  0
 10 21  1  0
 10 11  1  6
 11 12  1  0
 11 26  1  0
 11 27  1  0
 12 16  1  0
 12 13  2  0
 13 14  1  0
 13 40  1  0
 14 15  2  0
 14 28  1  0
 15 16  1  0
 15 29  1  0
 16 17  1  0
 17 18  1  0
 17 30  1  0
 17 31  1  0
 18 19  1  0
 18 32  1  6
 19 20  1  0
 19 33  1  0
 19 34  1  0
 20 21  1  0
 20 35  1  0
 20 36  1  0
 21 22  1  0
 21 37  1  1
 22 38  1  0
 22 39  1  0
M  CHG  2   3  -1  13   1
M  END
>  <i_m_ct_stereo_status>  (284) 
1

>  <s_m_source_file>  (284) 
/var/tmp/pbs.5076255.sched01/tmplj_yfvzq/807e0r74np.sdf

>  <i_m_source_file_index>  (284) 
38

>  <i_lp_mmshare_version>  (284) 
48012

>  <i_f3d_flags>  (284) 
0

>  <s_epik_input>  (284) 
Tz1DKFtPSF0pYyhbY0hdMSlbY0hdW2NIXWMoYzFbQ0BdMjM0KVtDSDJdW0NAQEhdNFtDSDJdW0NIMl1bQ0BIXTNbQ0gyXW41YyhbQ0gyXTIpbltjSF1bY0hdNQ==

>  <s_epik_cmdline>  (284) 
J2VwaWtfcHl0aG9uJywgJy1waHQnLCAnMi4wJywgJy1waCcsICc3LjAnLCAnLXRuJywgJzgnLCAnLW1hJywgJzIwMCcsICctaW1hZScsICc8aW5maWxlLm1hZT4nLCAnLW9tYWUnLCAnPG91dGZpbGUubWFlPic=

>  <r_lp_tautomer_probability>  (284) 
1

>  <r_epik_Ionization_Penalty>  (284) 
0.00879807

>  <r_epik_Ionization_Penalty_Charging>  (284) 
0.00170894

>  <r_epik_Ionization_Penalty_Neutral>  (284) 
0.00708913

>  <r_epik_State_Penalty>  (284) 
0.00527835

>  <r_epik_Charging_Adjusted_Penalty>  (284) 
0.00698729

>  <i_epik_Tot_Q>  (284) 
0

>  <i_epik_Tot_abs_Q>  (284) 
2

>  <s_lp_Force_Field>  (284) 
OPLS3e

>  <r_lp_Energy>  (284) 
89.206

>  <b_lp_Chiralities_Consistent>  (284) 
1

>  <s_lp_Variant>  (284) 
86:0-1

>  <s_i_glide_gridfile>  (284) 
pfpi4k_grid

>  <i_i_glide_lignum>  (284) 
38

>  <i_i_glide_rotatable_bonds>  (284) 
1

>  <r_i_docking_score>  (284) 
-3.20433

>  <r_i_glide_ligand_efficiency>  (284) 
-0.145652

>  <r_i_glide_ligand_efficiency_sa>  (284) 
-0.408121

>  <r_i_glide_ligand_efficiency_ln>  (284) 
-0.783256

>  <r_i_glide_gscore>  (284) 
-3.20433

>  <r_i_glide_lipo>  (284) 
0

>  <r_i_glide_hbond>  (284) 
-0.177157

>  <r_i_glide_metal>  (284) 
-0

>  <r_i_glide_rewards>  (284) 
-1.40217

>  <r_i_glide_evdw>  (284) 
-15.669

>  <r_i_glide_ecoul>  (284) 
-4.42069

>  <r_i_glide_erotb>  (284) 
0

>  <r_i_glide_esite>  (284) 
-0.178452

>  <r_i_glide_emodel>  (284) 
-25.9594

>  <r_i_glide_energy>  (284) 
-20.0897

>  <r_i_glide_einternal>  (284) 
0.0904524

>  <r_i_glide_intrahb_reward>  (284) 
-0

>  <i_i_glide_confnum>  (284) 
2

>  <i_i_glide_posenum>  (284) 
32

>  <r_i_glide_eff_state_penalty>  (284) 
0

>  <ligand_id>  (284) 
86

>  <original_smiles>  (284) 
O=C(O)c1ccc2c(c1)C13Cc4nccn4CC1CCC3C2

>  <smiles>  (284) 
[H]c1c([H])c2c(c([H])c1C(=O)[O-])C13C([H])([H])c4n(c([H])c([H])[n+]4[H])C([H])([H])C1([H])C([H])([H])C([H])([H])C3([H])C2([H])[H]

$$$$
87:0:0
     RDKit          3D

 78 82  0  0  1  0  0  0  0  0999 V2000
    2.0019  -10.2687    4.4158 C   0  0  0  0  0  0  0  0  0  0  0  0
    1.5392   -9.3855    3.2339 C   0  0  2  0  0  0  0  0  0  0  0  0
    2.6564   -9.1763    2.1931 C   0  0  0  0  0  0  0  0  0  0  0  0
    3.8424   -8.2615    2.5942 C   0  0  0  0  0  0  0  0  0  0  0  0
    3.6543   -6.7067    2.5214 C   0  0  1  0  0  0  0  0  0  0  0  0
    2.9347   -6.4249    1.1885 C   0  0  0  0  0  0  0  0  0  0  0  0
    2.7566   -6.2354    3.6864 C   0  0  0  0  0  0  0  0  0  0  0  0
    3.0370   -5.1537    4.4559 C   0  0  0  0  0  0  0  0  0  0  0  0
    4.2223   -4.2225    4.2859 C   0  0  0  0  0  0  0  0  0  0  0  0
    5.0062   -4.4142    2.9649 C   0  0  2  0  0  0  0  0  0  0  0  0
    4.7403   -3.2865    1.8743 C   0  0  2  0  0  0  0  0  0  0  0  0
    5.4847   -2.0245    2.4139 C   0  0  0  0  0  0  0  0  0  0  0  0
    3.2134   -2.9560    1.8135 C   0  0  0  0  0  0  0  0  0  0  0  0
    2.6417   -2.3649    0.5180 C   0  0  0  0  0  0  0  0  0  0  0  0
    3.2473   -2.9190   -0.7743 C   0  0  1  0  0  0  0  0  0  0  0  0
    2.6565   -2.2598   -1.8763 O   0  0  0  0  0  0  0  0  0  0  0  0
    4.7914   -2.7817   -0.7844 C   0  0  0  0  0  0  0  0  0  0  0  0
    5.3256   -3.3225   -2.1366 C   0  0  0  0  0  0  0  0  0  0  0  0
    5.2162   -1.2941   -0.7460 C   0  0  0  0  0  0  0  0  0  0  0  0
    5.3687   -3.5986    0.4473 C   0  0  2  0  0  0  0  0  0  0  0  0
    5.4517   -5.1025    0.1250 C   0  0  0  0  0  0  0  0  0  0  0  0
    5.9010   -6.0165    1.2747 C   0  0  0  0  0  0  0  0  0  0  0  0
    5.0696   -5.9370    2.5725 C   0  0  2  0  0  0  0  0  0  0  0  0
    5.9564   -6.6264    3.6532 C   0  0  0  0  0  0  0  0  0  0  0  0
    2.1474   -5.0564    5.6774 C   0  0  1  0  0  0  0  0  0  0  0  0
    1.7251   -3.7205    5.9196 O   0  0  0  0  0  0  0  0  0  0  0  0
    1.0085   -6.0579    5.3851 C   0  0  1  0  0  0  0  0  0  0  0  0
   -0.0416   -5.3405    4.7728 O   0  0  0  0  0  0  0  0  0  0  0  0
    1.6731   -7.0582    4.4054 C   0  0  1  0  0  0  0  0  0  0  0  0
    0.7709   -8.1007    3.6664 C   0  0  1  0  0  0  0  0  0  0  0  0
   -0.1864   -7.5502    2.5606 C   0  0  0  0  0  0  0  0  0  0  0  0
   -1.5131   -7.3074    3.0217 O   0  0  0  0  0  0  0  0  0  0  0  0
    2.8166   -9.8327    4.9962 H   0  0  0  0  0  0  0  0  0  0  0  0
    2.3508  -11.2427    4.0683 H   0  0  0  0  0  0  0  0  0  0  0  0
    1.1821  -10.4729    5.1078 H   0  0  0  0  0  0  0  0  0  0  0  0
    0.8126  -10.0231    2.7355 H   0  0  0  0  0  0  0  0  0  0  0  0
    3.0848  -10.1591    1.9951 H   0  0  0  0  0  0  0  0  0  0  0  0
    2.2261   -8.8957    1.2325 H   0  0  0  0  0  0  0  0  0  0  0  0
    4.1787   -8.5614    3.5825 H   0  0  0  0  0  0  0  0  0  0  0  0
    4.6527   -8.5313    1.9239 H   0  0  0  0  0  0  0  0  0  0  0  0
    3.4317   -6.9927    0.3969 H   0  0  0  0  0  0  0  0  0  0  0  0
    2.9895   -5.3803    0.9152 H   0  0  0  0  0  0  0  0  0  0  0  0
    1.8773   -6.6891    1.1769 H   0  0  0  0  0  0  0  0  0  0  0  0
    3.8778   -3.1995    4.4324 H   0  0  0  0  0  0  0  0  0  0  0  0
    4.8873   -4.4390    5.1212 H   0  0  0  0  0  0  0  0  0  0  0  0
    6.0371   -4.1912    3.2371 H   0  0  0  0  0  0  0  0  0  0  0  0
    5.2223   -1.0984    1.9144 H   0  0  0  0  0  0  0  0  0  0  0  0
    6.5609   -2.1348    2.3109 H   0  0  0  0  0  0  0  0  0  0  0  0
    5.3041   -1.8484    3.4715 H   0  0  0  0  0  0  0  0  0  0  0  0
    2.5887   -3.7926    2.1462 H   0  0  0  0  0  0  0  0  0  0  0  0
    3.0119   -2.1979    2.5602 H   0  0  0  0  0  0  0  0  0  0  0  0
    1.5877   -2.5983    0.5189 H   0  0  0  0  0  0  0  0  0  0  0  0
    2.7049   -1.2777    0.5445 H   0  0  0  0  0  0  0  0  0  0  0  0
    2.9637   -3.9728   -0.8607 H   0  0  0  0  0  0  0  0  0  0  0  0
    1.9216   -1.7279   -1.5339 H   0  0  0  0  0  0  0  0  0  0  0  0
    6.4120   -3.3776   -2.1455 H   0  0  0  0  0  0  0  0  0  0  0  0
    5.0242   -2.6828   -2.9628 H   0  0  0  0  0  0  0  0  0  0  0  0
    4.9267   -4.3069   -2.3705 H   0  0  0  0  0  0  0  0  0  0  0  0
    6.2620   -1.1940   -0.4729 H   0  0  0  0  0  0  0  0  0  0  0  0
    4.6436   -0.7002   -0.0469 H   0  0  0  0  0  0  0  0  0  0  0  0
    5.0655   -0.8091   -1.7092 H   0  0  0  0  0  0  0  0  0  0  0  0
    6.4276   -3.3213    0.4987 H   0  0  0  0  0  0  0  0  0  0  0  0
    4.5868   -5.4634   -0.4234 H   0  0  0  0  0  0  0  0  0  0  0  0
    6.2161   -5.1942   -0.6197 H   0  0  0  0  0  0  0  0  0  0  0  0
    5.9531   -7.0388    0.9077 H   0  0  0  0  0  0  0  0  0  0  0  0
    6.9406   -5.7582    1.5020 H   0  0  0  0  0  0  0  0  0  0  0  0
    6.8782   -6.0784    3.8489 H   0  0  0  0  0  0  0  0  0  0  0  0
    6.2779   -7.6220    3.3466 H   0  0  0  0  0  0  0  0  0  0  0  0
    5.4401   -6.7331    4.6075 H   0  0  0  0  0  0  0  0  0  0  0  0
    2.7229   -5.3982    6.5361 H   0  0  0  0  0  0  0  0  0  0  0  0
    1.2900   -3.3910    5.1484 H   0  0  0  0  0  0  0  0  0  0  0  0
    0.6200   -6.5454    6.2733 H   0  0  0  0  0  0  0  0  0  0  0  0
    0.3201   -4.8870    4.0296 H   0  0  0  0  0  0  0  0  0  0  0  0
    2.2926   -7.6668    5.0480 H   0  0  0  0  0  0  0  0  0  0  0  0
    0.1042   -8.4816    4.4357 H   0  0  0  0  0  0  0  0  0  0  0  0
    0.1595   -6.5904    2.1741 H   0  0  0  0  0  0  0  0  0  0  0  0
   -0.2596   -8.2648    1.7272 H   0  0  0  0  0  0  0  0  0  0  0  0
   -1.8279   -8.0770    3.4776 H   0  0  0  0  0  0  0  0  0  0  0  0
  1  2  1  0
  1 33  1  0
  1 34  1  0
  1 35  1  0
  2 30  1  0
  2  3  1  0
  2 36  1  6
  3  4  1  0
  3 37  1  0
  3 38  1  0
  4  5  1  0
  4 39  1  0
  4 40  1  0
  5 23  1  0
  5  6  1  6
  5  7  1  0
  6 41  1  0
  6 42  1  0
  6 43  1  0
  7 29  1  0
  7  8  2  0
  8  9  1  0
  8 25  1  0
  9 10  1  0
  9 44  1  0
  9 45  1  0
 10 23  1  0
 10 11  1  0
 10 46  1  1
 11 20  1  0
 11 12  1  1
 11 13  1  0
 12 47  1  0
 12 48  1  0
 12 49  1  0
 13 14  1  0
 13 50  1  0
 13 51  1  0
 14 15  1  0
 14 52  1  0
 14 53  1  0
 15 16  1  0
 15 17  1  0
 15 54  1  6
 16 55  1  0
 17 18  1  0
 17 19  1  0
 17 20  1  0
 18 56  1  0
 18 57  1  0
 18 58  1  0
 19 59  1  0
 19 60  1  0
 19 61  1  0
 20 21  1  0
 20 62  1  1
 21 22  1  0
 21 63  1  0
 21 64  1  0
 22 23  1  0
 22 65  1  0
 22 66  1  0
 23 24  1  1
 24 67  1  0
 24 68  1  0
 24 69  1  0
 25 26  1  0
 25 27  1  0
 25 70  1  1
 26 71  1  0
 27 28  1  0
 27 29  1  0
 27 72  1  1
 28 73  1  0
 29 30  1  0
 29 74  1  1
 30 31  1  0
 30 75  1  1
 31 32  1  0
 31 76  1  0
 31 77  1  0
 32 78  1  0
M  END
>  <i_m_ct_stereo_status>  (285) 
1

>  <s_m_source_file>  (285) 
/var/tmp/pbs.5076255.sched01/tmplj_yfvzq/807e0r74np.sdf

>  <i_m_source_file_index>  (285) 
39

>  <i_lp_mmshare_version>  (285) 
48012

>  <i_f3d_flags>  (285) 
0

>  <s_epik_input>  (285) 
W0NIMl0xW0NIMl1bQ0BASF0oW0NIM10pW0NASF0oW0NIMl1bT0hdKVtDQEBIXTJbQ0BIXShbT0hdKVtDQEhdKFtPSF0pQyg9QzJbQ0BdMTNbQ0gzXSlbQ0gyXVtDQEBIXTRbQ0BAXTUoW0NIM10pW0NASF0oQyhbQ0gzXSkoW0NIM10pW0NASF0oW09IXSlbQ0gyXVtDSDJdNSlbQ0gyXVtDSDJdW0NAXTM0W0NIM10=

>  <s_epik_cmdline>  (285) 
J2VwaWtfcHl0aG9uJywgJy1waHQnLCAnMi4wJywgJy1waCcsICc3LjAnLCAnLXRuJywgJzgnLCAnLW1hJywgJzIwMCcsICctaW1hZScsICc8aW5maWxlLm1hZT4nLCAnLW9tYWUnLCAnPG91dGZpbGUubWFlPic=

>  <r_lp_tautomer_probability>  (285) 
1

>  <r_epik_Ionization_Penalty>  (285) 
4.04455e-06

>  <r_epik_Ionization_Penalty_Charging>  (285) 
0

>  <r_epik_Ionization_Penalty_Neutral>  (285) 
4.04455e-06

>  <r_epik_State_Penalty>  (285) 
-0

>  <r_epik_Charging_Adjusted_Penalty>  (285) 
0

>  <i_epik_Tot_Q>  (285) 
0

>  <i_epik_Tot_abs_Q>  (285) 
0

>  <s_lp_Force_Field>  (285) 
OPLS3e

>  <r_lp_Energy>  (285) 
103.818

>  <b_lp_Chiralities_Consistent>  (285) 
1

>  <s_lp_Variant>  (285) 
87:0-1

>  <s_i_glide_gridfile>  (285) 
pfpi4k_grid

>  <i_i_glide_lignum>  (285) 
39

>  <i_i_glide_rotatable_bonds>  (285) 
5

>  <r_i_docking_score>  (285) 
-3.15965

>  <r_i_glide_ligand_efficiency>  (285) 
-0.0987392

>  <r_i_glide_ligand_efficiency_sa>  (285) 
-0.313477

>  <r_i_glide_ligand_efficiency_ln>  (285) 
-0.707533

>  <r_i_glide_gscore>  (285) 
-3.15965

>  <r_i_glide_lipo>  (285) 
-0.500256

>  <r_i_glide_hbond>  (285) 
-0.16

>  <r_i_glide_metal>  (285) 
-0

>  <r_i_glide_rewards>  (285) 
-0.363665

>  <r_i_glide_evdw>  (285) 
-19.4053

>  <r_i_glide_ecoul>  (285) 
-8.43872

>  <r_i_glide_erotb>  (285) 
0.100338

>  <r_i_glide_esite>  (285) 
0

>  <r_i_glide_emodel>  (285) 
-31.7597

>  <r_i_glide_energy>  (285) 
-27.844

>  <r_i_glide_einternal>  (285) 
2.83771

>  <r_i_glide_intrahb_reward>  (285) 
-0

>  <i_i_glide_confnum>  (285) 
1

>  <i_i_glide_posenum>  (285) 
32

>  <r_i_glide_eff_state_penalty>  (285) 
0

>  <ligand_id>  (285) 
87

>  <original_smiles>  (285) 
CC1CCC2(C)C3=C(CC4C5(C)CCC(O)C(C)(C)C5CCC42C)C(O)C(O)C3C1CO

>  <smiles>  (285) 
[H]OC([H])([H])C1([H])C2([H])C3=C(C([H])([H])C4([H])C5(C([H])([H])[H])C([H])([H])C([H])([H])C([H])(O[H])C(C([H])([H])[H])(C([H])([H])[H])C5([H])C([H])([H])C([H])([H])C4(C([H])([H])[H])C3(C([H])([H])[H])C([H])([H])C([H])([H])C1([H])C([H])([H])[H])C([H])(O[H])C2([H])O[H]

$$$$
87:0:1
     RDKit          3D

 78 82  0  0  1  0  0  0  0  0999 V2000
    2.5246  -10.2324    4.1364 C   0  0  0  0  0  0  0  0  0  0  0  0
    2.0911   -9.3324    2.9517 C   0  0  2  0  0  0  0  0  0  0  0  0
    3.2766   -8.9927    2.0257 C   0  0  0  0  0  0  0  0  0  0  0  0
    4.3425   -8.0056    2.5671 C   0  0  0  0  0  0  0  0  0  0  0  0
    4.0266   -6.4761    2.5230 C   0  0  1  0  0  0  0  0  0  0  0  0
    3.4274   -6.1875    1.1415 C   0  0  0  0  0  0  0  0  0  0  0  0
    2.9997   -6.1179    3.6348 C   0  0  0  0  0  0  0  0  0  0  0  0
    3.1272   -5.0811    4.4573 C   0  0  0  0  0  0  0  0  0  0  0  0
    4.2304   -4.0341    4.4404 C   0  0  0  0  0  0  0  0  0  0  0  0
    5.1312   -4.1019    3.1814 C   0  0  2  0  0  0  0  0  0  0  0  0
    4.8784   -2.9519    2.1175 C   0  0  2  0  0  0  0  0  0  0  0  0
    5.4495   -1.6516    2.7717 C   0  0  0  0  0  0  0  0  0  0  0  0
    3.3343   -2.7464    1.9387 C   0  0  0  0  0  0  0  0  0  0  0  0
    2.8275   -2.1444    0.6304 C   0  0  0  0  0  0  0  0  0  0  0  0
    3.5864   -2.5598   -0.6219 C   0  0  1  0  0  0  0  0  0  0  0  0
    3.0320   -1.8269   -1.7070 O   0  0  0  0  0  0  0  0  0  0  0  0
    5.1205   -2.3245   -0.4866 C   0  0  0  0  0  0  0  0  0  0  0  0
    5.8101   -2.7562   -1.8070 C   0  0  0  0  0  0  0  0  0  0  0  0
    5.4180   -0.8139   -0.3555 C   0  0  0  0  0  0  0  0  0  0  0  0
    5.6673   -3.1462    0.7512 C   0  0  2  0  0  0  0  0  0  0  0  0
    5.9410   -4.6222    0.3794 C   0  0  0  0  0  0  0  0  0  0  0  0
    6.3259   -5.5516    1.5320 C   0  0  0  0  0  0  0  0  0  0  0  0
    5.3656   -5.5937    2.7430 C   0  0  2  0  0  0  0  0  0  0  0  0
    6.2066   -6.2554    3.8751 C   0  0  0  0  0  0  0  0  0  0  0  0
    2.1220   -5.0978    5.6014 C   0  0  1  0  0  0  0  0  0  0  0  0
    1.5484   -3.8235    5.8058 O   0  0  0  0  0  0  0  0  0  0  0  0
    1.1070   -6.1771    5.1674 C   0  0  1  0  0  0  0  0  0  0  0  0
    0.0609   -5.5352    4.4872 O   0  0  0  0  0  0  0  0  0  0  0  0
    1.9346   -7.0714    4.2144 C   0  0  1  0  0  0  0  0  0  0  0  0
    1.1841   -8.1355    3.3603 C   0  0  1  0  0  0  0  0  0  0  0  0
    0.2733   -7.6070    2.2125 C   0  0  0  0  0  0  0  0  0  0  0  0
   -1.1022   -7.5131    2.5462 O   0  0  0  0  0  0  0  0  0  0  0  0
    3.2457   -9.7606    4.8037 H   0  0  0  0  0  0  0  0  0  0  0  0
    2.9820  -11.1576    3.7831 H   0  0  0  0  0  0  0  0  0  0  0  0
    1.6674  -10.5325    4.7425 H   0  0  0  0  0  0  0  0  0  0  0  0
    1.4680  -10.0040    2.3648 H   0  0  0  0  0  0  0  0  0  0  0  0
    3.7994   -9.9283    1.8326 H   0  0  0  0  0  0  0  0  0  0  0  0
    2.9115   -8.7043    1.0417 H   0  0  0  0  0  0  0  0  0  0  0  0
    4.6140   -8.3198    3.5706 H   0  0  0  0  0  0  0  0  0  0  0  0
    5.2316   -8.1804    1.9645 H   0  0  0  0  0  0  0  0  0  0  0  0
    3.9900   -6.6789    0.3478 H   0  0  0  0  0  0  0  0  0  0  0  0
    3.4143   -5.1369    0.9153 H   0  0  0  0  0  0  0  0  0  0  0  0
    2.3912   -6.5214    1.0295 H   0  0  0  0  0  0  0  0  0  0  0  0
    3.7899   -3.0502    4.5892 H   0  0  0  0  0  0  0  0  0  0  0  0
    4.8385   -4.2318    5.3197 H   0  0  0  0  0  0  0  0  0  0  0  0
    6.1066   -3.8099    3.5608 H   0  0  0  0  0  0  0  0  0  0  0  0
    5.1456   -0.7305    2.2935 H   0  0  0  0  0  0  0  0  0  0  0  0
    6.5370   -1.6455    2.7421 H   0  0  0  0  0  0  0  0  0  0  0  0
    5.1785   -1.5451    3.8189 H   0  0  0  0  0  0  0  0  0  0  0  0
    2.7616   -3.6391    2.1877 H   0  0  0  0  0  0  0  0  0  0  0  0
    3.0148   -2.0358    2.6914 H   0  0  0  0  0  0  0  0  0  0  0  0
    1.8107   -2.4832    0.5148 H   0  0  0  0  0  0  0  0  0  0  0  0
    2.7583   -1.0592    0.7028 H   0  0  0  0  0  0  0  0  0  0  0  0
    3.3958   -3.6198   -0.8001 H   0  0  0  0  0  0  0  0  0  0  0  0
    2.1296   -1.5818   -1.4850 H   0  0  0  0  0  0  0  0  0  0  0  0
    6.8991   -2.7217   -1.7242 H   0  0  0  0  0  0  0  0  0  0  0  0
    5.5242   -2.1063   -2.6327 H   0  0  0  0  0  0  0  0  0  0  0  0
    5.5229   -3.7587   -2.1157 H   0  0  0  0  0  0  0  0  0  0  0  0
    6.4249   -0.6317    0.0208 H   0  0  0  0  0  0  0  0  0  0  0  0
    4.7302   -0.2990    0.3014 H   0  0  0  0  0  0  0  0  0  0  0  0
    5.3108   -0.3017   -1.3127 H   0  0  0  0  0  0  0  0  0  0  0  0
    6.6889   -2.7748    0.9130 H   0  0  0  0  0  0  0  0  0  0  0  0
    5.1684   -5.0286   -0.2691 H   0  0  0  0  0  0  0  0  0  0  0  0
    6.8136   -4.6366   -0.2615 H   0  0  0  0  0  0  0  0  0  0  0  0
    6.4912   -6.5490    1.1343 H   0  0  0  0  0  0  0  0  0  0  0  0
    7.3152   -5.2229    1.8783 H   0  0  0  0  0  0  0  0  0  0  0  0
    7.0598   -5.6441    4.1769 H   0  0  0  0  0  0  0  0  0  0  0  0
    6.6399   -7.2062    3.5644 H   0  0  0  0  0  0  0  0  0  0  0  0
    5.6219   -6.4465    4.7751 H   0  0  0  0  0  0  0  0  0  0  0  0
    2.6435   -5.4173    6.5027 H   0  0  0  0  0  0  0  0  0  0  0  0
    2.1968   -3.2720    6.2333 H   0  0  0  0  0  0  0  0  0  0  0  0
    0.6750   -6.7291    6.0083 H   0  0  0  0  0  0  0  0  0  0  0  0
    0.4631   -4.8709    3.9222 H   0  0  0  0  0  0  0  0  0  0  0  0
    2.5445   -7.6518    4.8936 H   0  0  0  0  0  0  0  0  0  0  0  0
    0.4876   -8.6051    4.0558 H   0  0  0  0  0  0  0  0  0  0  0  0
    0.5406   -6.5866    1.9180 H   0  0  0  0  0  0  0  0  0  0  0  0
    0.3627   -8.2424    1.3285 H   0  0  0  0  0  0  0  0  0  0  0  0
   -1.3874   -8.3390    2.9305 H   0  0  0  0  0  0  0  0  0  0  0  0
  1  2  1  0
  1 33  1  0
  1 34  1  0
  1 35  1  0
  2 30  1  0
  2  3  1  0
  2 36  1  6
  3  4  1  0
  3 37  1  0
  3 38  1  0
  4  5  1  0
  4 39  1  0
  4 40  1  0
  5 23  1  0
  5  6  1  6
  5  7  1  0
  6 41  1  0
  6 42  1  0
  6 43  1  0
  7 29  1  0
  7  8  2  0
  8  9  1  0
  8 25  1  0
  9 10  1  0
  9 44  1  0
  9 45  1  0
 10 23  1  0
 10 11  1  0
 10 46  1  1
 11 20  1  0
 11 12  1  1
 11 13  1  0
 12 47  1  0
 12 48  1  0
 12 49  1  0
 13 14  1  0
 13 50  1  0
 13 51  1  0
 14 15  1  0
 14 52  1  0
 14 53  1  0
 15 16  1  0
 15 17  1  0
 15 54  1  6
 16 55  1  0
 17 18  1  0
 17 19  1  0
 17 20  1  0
 18 56  1  0
 18 57  1  0
 18 58  1  0
 19 59  1  0
 19 60  1  0
 19 61  1  0
 20 21  1  0
 20 62  1  1
 21 22  1  0
 21 63  1  0
 21 64  1  0
 22 23  1  0
 22 65  1  0
 22 66  1  0
 23 24  1  1
 24 67  1  0
 24 68  1  0
 24 69  1  0
 25 26  1  0
 25 27  1  0
 25 70  1  1
 26 71  1  0
 27 28  1  0
 27 29  1  0
 27 72  1  1
 28 73  1  0
 29 30  1  0
 29 74  1  1
 30 31  1  0
 30 75  1  1
 31 32  1  0
 31 76  1  0
 31 77  1  0
 32 78  1  0
M  END
>  <i_m_ct_stereo_status>  (286) 
1

>  <s_m_source_file>  (286) 
/var/tmp/pbs.5076255.sched01/tmplj_yfvzq/807e0r74np.sdf

>  <i_m_source_file_index>  (286) 
39

>  <i_lp_mmshare_version>  (286) 
48012

>  <i_f3d_flags>  (286) 
0

>  <s_epik_input>  (286) 
W0NIMl0xW0NIMl1bQ0BASF0oW0NIM10pW0NASF0oW0NIMl1bT0hdKVtDQEBIXTJbQ0BIXShbT0hdKVtDQEhdKFtPSF0pQyg9QzJbQ0BdMTNbQ0gzXSlbQ0gyXVtDQEBIXTRbQ0BAXTUoW0NIM10pW0NASF0oQyhbQ0gzXSkoW0NIM10pW0NASF0oW09IXSlbQ0gyXVtDSDJdNSlbQ0gyXVtDSDJdW0NAXTM0W0NIM10=

>  <s_epik_cmdline>  (286) 
J2VwaWtfcHl0aG9uJywgJy1waHQnLCAnMi4wJywgJy1waCcsICc3LjAnLCAnLXRuJywgJzgnLCAnLW1hJywgJzIwMCcsICctaW1hZScsICc8aW5maWxlLm1hZT4nLCAnLW9tYWUnLCAnPG91dGZpbGUubWFlPic=

>  <r_lp_tautomer_probability>  (286) 
1

>  <r_epik_Ionization_Penalty>  (286) 
4.04455e-06

>  <r_epik_Ionization_Penalty_Charging>  (286) 
0

>  <r_epik_Ionization_Penalty_Neutral>  (286) 
4.04455e-06

>  <r_epik_State_Penalty>  (286) 
-0

>  <r_epik_Charging_Adjusted_Penalty>  (286) 
0

>  <i_epik_Tot_Q>  (286) 
0

>  <i_epik_Tot_abs_Q>  (286) 
0

>  <s_lp_Force_Field>  (286) 
OPLS3e

>  <r_lp_Energy>  (286) 
103.818

>  <b_lp_Chiralities_Consistent>  (286) 
1

>  <s_lp_Variant>  (286) 
87:0-1

>  <s_i_glide_gridfile>  (286) 
pfpi4k_grid

>  <i_i_glide_lignum>  (286) 
39

>  <i_i_glide_rotatable_bonds>  (286) 
5

>  <r_i_docking_score>  (286) 
-2.98782

>  <r_i_glide_ligand_efficiency>  (286) 
-0.0933695

>  <r_i_glide_ligand_efficiency_sa>  (286) 
-0.29643

>  <r_i_glide_ligand_efficiency_ln>  (286) 
-0.669055

>  <r_i_glide_gscore>  (286) 
-2.98782

>  <r_i_glide_lipo>  (286) 
-0.450269

>  <r_i_glide_hbond>  (286) 
-0.16

>  <r_i_glide_metal>  (286) 
-0

>  <r_i_glide_rewards>  (286) 
-0.363665

>  <r_i_glide_evdw>  (286) 
-20.4249

>  <r_i_glide_ecoul>  (286) 
-7.28655

>  <r_i_glide_erotb>  (286) 
0.100338

>  <r_i_glide_esite>  (286) 
0

>  <r_i_glide_emodel>  (286) 
-31.0826

>  <r_i_glide_energy>  (286) 
-27.7114

>  <r_i_glide_einternal>  (286) 
3.02479

>  <r_i_glide_intrahb_reward>  (286) 
-0

>  <i_i_glide_confnum>  (286) 
3

>  <i_i_glide_posenum>  (286) 
38

>  <r_i_glide_eff_state_penalty>  (286) 
0

>  <ligand_id>  (286) 
87

>  <original_smiles>  (286) 
CC1CCC2(C)C3=C(CC4C5(C)CCC(O)C(C)(C)C5CCC42C)C(O)C(O)C3C1CO

>  <smiles>  (286) 
[H]OC([H])([H])C1([H])C2([H])C3=C(C([H])([H])C4([H])C5(C([H])([H])[H])C([H])([H])C([H])([H])C([H])(O[H])C(C([H])([H])[H])(C([H])([H])[H])C5([H])C([H])([H])C([H])([H])C4(C([H])([H])[H])C3(C([H])([H])[H])C([H])([H])C([H])([H])C1([H])C([H])([H])[H])C([H])(O[H])C2([H])O[H]

$$$$
87:0:2
     RDKit          3D

 78 82  0  0  1  0  0  0  0  0999 V2000
    2.8256  -10.5007    3.9167 C   0  0  0  0  0  0  0  0  0  0  0  0
    2.3746   -9.5969    2.7478 C   0  0  2  0  0  0  0  0  0  0  0  0
    3.5619   -9.1783    1.8565 C   0  0  0  0  0  0  0  0  0  0  0  0
    4.5583   -8.1462    2.4353 C   0  0  0  0  0  0  0  0  0  0  0  0
    4.1604   -6.6292    2.4364 C   0  0  1  0  0  0  0  0  0  0  0  0
    3.5214   -6.3266    1.0632 C   0  0  0  0  0  0  0  0  0  0  0  0
    3.1163   -6.3630    3.5357 C   0  0  0  0  0  0  0  0  0  0  0  0
    3.1613   -5.3152    4.3826 C   0  0  0  0  0  0  0  0  0  0  0  0
    4.2159   -4.2340    4.4006 C   0  0  0  0  0  0  0  0  0  0  0  0
    5.1490   -4.2240    3.1612 C   0  0  2  0  0  0  0  0  0  0  0  0
    4.8574   -3.0578    2.1203 C   0  0  2  0  0  0  0  0  0  0  0  0
    5.3596   -1.7526    2.8197 C   0  0  0  0  0  0  0  0  0  0  0  0
    3.3176   -2.9093    1.9201 C   0  0  0  0  0  0  0  0  0  0  0  0
    2.8086   -2.3075    0.6099 C   0  0  0  0  0  0  0  0  0  0  0  0
    3.6016   -2.6631   -0.6384 C   0  0  1  0  0  0  0  0  0  0  0  0
    3.0191   -1.9643   -1.7277 O   0  0  0  0  0  0  0  0  0  0  0  0
    5.1126   -2.3566   -0.4685 C   0  0  0  0  0  0  0  0  0  0  0  0
    5.8510   -2.7235   -1.7862 C   0  0  0  0  0  0  0  0  0  0  0  0
    5.3395   -0.8322   -0.2903 C   0  0  0  0  0  0  0  0  0  0  0  0
    5.6758   -3.1857    0.7624 C   0  0  2  0  0  0  0  0  0  0  0  0
    6.0326   -4.6337    0.3524 C   0  0  0  0  0  0  0  0  0  0  0  0
    6.4333   -5.5762    1.4906 C   0  0  0  0  0  0  0  0  0  0  0  0
    5.4550   -5.6960    2.6864 C   0  0  2  0  0  0  0  0  0  0  0  0
    6.3139   -6.3424    3.8187 C   0  0  0  0  0  0  0  0  0  0  0  0
    2.1409   -5.4169    5.4949 C   0  0  1  0  0  0  0  0  0  0  0  0
    1.5053   -4.1762    5.7546 O   0  0  0  0  0  0  0  0  0  0  0  0
    1.1914   -6.5359    5.0052 C   0  0  1  0  0  0  0  0  0  0  0  0
    0.1079   -5.9687    4.2857 O   0  0  0  0  0  0  0  0  0  0  0  0
    2.1107   -7.3807    4.0770 C   0  0  1  0  0  0  0  0  0  0  0  0
    1.4277   -8.4473    3.1686 C   0  0  1  0  0  0  0  0  0  0  0  0
    0.5687   -7.9157    1.9970 C   0  0  0  0  0  0  0  0  0  0  0  0
   -0.7642   -8.3630    2.1055 O   0  0  0  0  0  0  0  0  0  0  0  0
    3.5114  -10.0067    4.6027 H   0  0  0  0  0  0  0  0  0  0  0  0
    3.3316  -11.3910    3.5448 H   0  0  0  0  0  0  0  0  0  0  0  0
    1.9722  -10.8493    4.4991 H   0  0  0  0  0  0  0  0  0  0  0  0
    1.7775  -10.2593    2.1210 H   0  0  0  0  0  0  0  0  0  0  0  0
    4.1368  -10.0817    1.6594 H   0  0  0  0  0  0  0  0  0  0  0  0
    3.2071   -8.8817    0.8741 H   0  0  0  0  0  0  0  0  0  0  0  0
    4.8306   -8.4663    3.4396 H   0  0  0  0  0  0  0  0  0  0  0  0
    5.4648   -8.2553    1.8373 H   0  0  0  0  0  0  0  0  0  0  0  0
    4.0618   -6.8104    0.2472 H   0  0  0  0  0  0  0  0  0  0  0  0
    3.4834   -5.2708    0.8430 H   0  0  0  0  0  0  0  0  0  0  0  0
    2.4983   -6.6625    0.9991 H   0  0  0  0  0  0  0  0  0  0  0  0
    3.7369   -3.2736    4.5780 H   0  0  0  0  0  0  0  0  0  0  0  0
    4.8179   -4.4175    5.2893 H   0  0  0  0  0  0  0  0  0  0  0  0
    6.1033   -3.8986    3.5645 H   0  0  0  0  0  0  0  0  0  0  0  0
    5.0155   -0.8342    2.3562 H   0  0  0  0  0  0  0  0  0  0  0  0
    6.4463   -1.6968    2.8225 H   0  0  0  0  0  0  0  0  0  0  0  0
    5.0552   -1.6838    3.8616 H   0  0  0  0  0  0  0  0  0  0  0  0
    2.7848   -3.8286    2.1210 H   0  0  0  0  0  0  0  0  0  0  0  0
    2.9371   -2.2528    2.6986 H   0  0  0  0  0  0  0  0  0  0  0  0
    1.8013   -2.6708    0.4638 H   0  0  0  0  0  0  0  0  0  0  0  0
    2.6960   -1.2343    0.7135 H   0  0  0  0  0  0  0  0  0  0  0  0
    3.4686   -3.7224   -0.8295 H   0  0  0  0  0  0  0  0  0  0  0  0
    2.1370   -1.6783   -1.4753 H   0  0  0  0  0  0  0  0  0  0  0  0
    6.9382   -2.6378   -1.6813 H   0  0  0  0  0  0  0  0  0  0  0  0
    5.5447   -2.0602   -2.5973 H   0  0  0  0  0  0  0  0  0  0  0  0
    5.6141   -3.7341   -2.1218 H   0  0  0  0  0  0  0  0  0  0  0  0
    6.3390   -0.6100    0.0946 H   0  0  0  0  0  0  0  0  0  0  0  0
    4.6170   -0.3643    0.3767 H   0  0  0  0  0  0  0  0  0  0  0  0
    5.2172   -0.3035   -1.2382 H   0  0  0  0  0  0  0  0  0  0  0  0
    6.6678   -2.7738    0.9556 H   0  0  0  0  0  0  0  0  0  0  0  0
    5.2759   -5.0683   -0.2859 H   0  0  0  0  0  0  0  0  0  0  0  0
    6.9059   -4.5924   -0.2963 H   0  0  0  0  0  0  0  0  0  0  0  0
    6.6576   -6.5565    1.0766 H   0  0  0  0  0  0  0  0  0  0  0  0
    7.3915   -5.2051    1.8641 H   0  0  0  0  0  0  0  0  0  0  0  0
    7.1293   -5.6940    4.1449 H   0  0  0  0  0  0  0  0  0  0  0  0
    6.7961   -7.2624    3.4913 H   0  0  0  0  0  0  0  0  0  0  0  0
    5.7218   -6.5801    4.7003 H   0  0  0  0  0  0  0  0  0  0  0  0
    2.6638   -5.7471    6.3951 H   0  0  0  0  0  0  0  0  0  0  0  0
    1.0909   -3.8998    4.9507 H   0  0  0  0  0  0  0  0  0  0  0  0
    0.7775   -7.1238    5.8268 H   0  0  0  0  0  0  0  0  0  0  0  0
   -0.4711   -6.6826    4.0545 H   0  0  0  0  0  0  0  0  0  0  0  0
    2.7210   -7.9568    4.7696 H   0  0  0  0  0  0  0  0  0  0  0  0
    0.7219   -8.9346    3.8461 H   0  0  0  0  0  0  0  0  0  0  0  0
    0.5432   -6.8307    1.9700 H   0  0  0  0  0  0  0  0  0  0  0  0
    0.9616   -8.2516    1.0364 H   0  0  0  0  0  0  0  0  0  0  0  0
   -0.7821   -9.2869    1.8857 H   0  0  0  0  0  0  0  0  0  0  0  0
  1  2  1  0
  1 33  1  0
  1 34  1  0
  1 35  1  0
  2 30  1  0
  2  3  1  0
  2 36  1  6
  3  4  1  0
  3 37  1  0
  3 38  1  0
  4  5  1  0
  4 39  1  0
  4 40  1  0
  5 23  1  0
  5  6  1  6
  5  7  1  0
  6 41  1  0
  6 42  1  0
  6 43  1  0
  7 29  1  0
  7  8  2  0
  8  9  1  0
  8 25  1  0
  9 10  1  0
  9 44  1  0
  9 45  1  0
 10 23  1  0
 10 11  1  0
 10 46  1  1
 11 20  1  0
 11 12  1  1
 11 13  1  0
 12 47  1  0
 12 48  1  0
 12 49  1  0
 13 14  1  0
 13 50  1  0
 13 51  1  0
 14 15  1  0
 14 52  1  0
 14 53  1  0
 15 16  1  0
 15 17  1  0
 15 54  1  6
 16 55  1  0
 17 18  1  0
 17 19  1  0
 17 20  1  0
 18 56  1  0
 18 57  1  0
 18 58  1  0
 19 59  1  0
 19 60  1  0
 19 61  1  0
 20 21  1  0
 20 62  1  1
 21 22  1  0
 21 63  1  0
 21 64  1  0
 22 23  1  0
 22 65  1  0
 22 66  1  0
 23 24  1  1
 24 67  1  0
 24 68  1  0
 24 69  1  0
 25 26  1  0
 25 27  1  0
 25 70  1  1
 26 71  1  0
 27 28  1  0
 27 29  1  0
 27 72  1  1
 28 73  1  0
 29 30  1  0
 29 74  1  1
 30 31  1  0
 30 75  1  1
 31 32  1  0
 31 76  1  0
 31 77  1  0
 32 78  1  0
M  END
>  <i_m_ct_stereo_status>  (287) 
1

>  <s_m_source_file>  (287) 
/var/tmp/pbs.5076255.sched01/tmplj_yfvzq/807e0r74np.sdf

>  <i_m_source_file_index>  (287) 
39

>  <i_lp_mmshare_version>  (287) 
48012

>  <i_f3d_flags>  (287) 
0

>  <s_epik_input>  (287) 
W0NIMl0xW0NIMl1bQ0BASF0oW0NIM10pW0NASF0oW0NIMl1bT0hdKVtDQEBIXTJbQ0BIXShbT0hdKVtDQEhdKFtPSF0pQyg9QzJbQ0BdMTNbQ0gzXSlbQ0gyXVtDQEBIXTRbQ0BAXTUoW0NIM10pW0NASF0oQyhbQ0gzXSkoW0NIM10pW0NASF0oW09IXSlbQ0gyXVtDSDJdNSlbQ0gyXVtDSDJdW0NAXTM0W0NIM10=

>  <s_epik_cmdline>  (287) 
J2VwaWtfcHl0aG9uJywgJy1waHQnLCAnMi4wJywgJy1waCcsICc3LjAnLCAnLXRuJywgJzgnLCAnLW1hJywgJzIwMCcsICctaW1hZScsICc8aW5maWxlLm1hZT4nLCAnLW9tYWUnLCAnPG91dGZpbGUubWFlPic=

>  <r_lp_tautomer_probability>  (287) 
1

>  <r_epik_Ionization_Penalty>  (287) 
4.04455e-06

>  <r_epik_Ionization_Penalty_Charging>  (287) 
0

>  <r_epik_Ionization_Penalty_Neutral>  (287) 
4.04455e-06

>  <r_epik_State_Penalty>  (287) 
-0

>  <r_epik_Charging_Adjusted_Penalty>  (287) 
0

>  <i_epik_Tot_Q>  (287) 
0

>  <i_epik_Tot_abs_Q>  (287) 
0

>  <s_lp_Force_Field>  (287) 
OPLS3e

>  <r_lp_Energy>  (287) 
103.818

>  <b_lp_Chiralities_Consistent>  (287) 
1

>  <s_lp_Variant>  (287) 
87:0-1

>  <s_i_glide_gridfile>  (287) 
pfpi4k_grid

>  <i_i_glide_lignum>  (287) 
39

>  <i_i_glide_rotatable_bonds>  (287) 
5

>  <r_i_docking_score>  (287) 
-2.82182

>  <r_i_glide_ligand_efficiency>  (287) 
-0.088182

>  <r_i_glide_ligand_efficiency_sa>  (287) 
-0.27996

>  <r_i_glide_ligand_efficiency_ln>  (287) 
-0.631883

>  <r_i_glide_gscore>  (287) 
-2.82182

>  <r_i_glide_lipo>  (287) 
-0.444294

>  <r_i_glide_hbond>  (287) 
-0.16

>  <r_i_glide_metal>  (287) 
-0

>  <r_i_glide_rewards>  (287) 
-0.363665

>  <r_i_glide_evdw>  (287) 
-21.7043

>  <r_i_glide_ecoul>  (287) 
-5.79326

>  <r_i_glide_erotb>  (287) 
0.100338

>  <r_i_glide_esite>  (287) 
0

>  <r_i_glide_emodel>  (287) 
-31.0519

>  <r_i_glide_energy>  (287) 
-27.4975

>  <r_i_glide_einternal>  (287) 
3.02911

>  <r_i_glide_intrahb_reward>  (287) 
-0

>  <i_i_glide_confnum>  (287) 
4

>  <i_i_glide_posenum>  (287) 
12

>  <r_i_glide_eff_state_penalty>  (287) 
0

>  <ligand_id>  (287) 
87

>  <original_smiles>  (287) 
CC1CCC2(C)C3=C(CC4C5(C)CCC(O)C(C)(C)C5CCC42C)C(O)C(O)C3C1CO

>  <smiles>  (287) 
[H]OC([H])([H])C1([H])C2([H])C3=C(C([H])([H])C4([H])C5(C([H])([H])[H])C([H])([H])C([H])([H])C([H])(O[H])C(C([H])([H])[H])(C([H])([H])[H])C5([H])C([H])([H])C([H])([H])C4(C([H])([H])[H])C3(C([H])([H])[H])C([H])([H])C([H])([H])C1([H])C([H])([H])[H])C([H])(O[H])C2([H])O[H]

$$$$
88:0:0
     RDKit          3D

 73 77  0  0  1  0  0  0  0  0999 V2000
   -0.6364   -7.2556    4.6141 C   0  0  0  0  0  0  0  0  0  0  0  0
   -0.6843   -7.6340    3.1467 C   0  0  0  0  0  0  0  0  0  0  0  0
   -1.8288   -8.5219    2.7524 C   0  0  0  0  0  0  0  0  0  0  0  0
    0.1940   -7.2181    2.1830 C   0  0  0  0  0  0  0  0  0  0  0  0
    1.3454   -6.2848    2.3811 C   0  0  0  0  0  0  0  0  0  0  0  0
    2.6893   -6.6848    1.7494 C   0  0  0  0  0  0  0  0  0  0  0  0
    3.3941   -5.6139    0.8748 C   0  0  2  0  0  0  0  0  0  0  0  0
    4.5461   -6.3752    0.1258 C   0  0  0  0  0  0  0  0  0  0  0  0
    3.9173   -4.3069    1.6299 C   0  0  2  0  0  0  0  0  0  0  0  0
    2.8856   -3.5965    2.6229 C   0  0  0  0  0  0  0  0  0  0  0  0
    2.2104   -2.2802    2.1374 C   0  0  0  0  0  0  0  0  0  0  0  0
    2.7369   -0.9562    2.6968 C   0  0  2  0  0  0  0  0  0  0  0  0
    1.5936   -0.2895    3.4798 C   0  0  0  0  0  0  0  0  0  0  0  0
    3.6904    0.0006    1.9603 C   0  0  2  0  0  0  0  0  0  0  0  0
    4.3753   -0.1016    0.5798 C   0  0  0  0  0  0  0  0  0  0  0  0
    3.7996   -1.0297   -0.5081 C   0  0  1  0  0  0  0  0  0  0  0  0
    4.2666   -0.6760   -1.8108 O   0  0  0  0  0  0  0  0  0  0  0  0
    3.3484   -1.0577   -2.8386 C   0  0  1  0  0  0  0  0  0  0  0  0
    3.9064   -0.5893   -4.1876 C   0  0  0  0  0  0  0  0  0  0  0  0
    3.7541    0.8018   -4.3556 O   0  0  0  0  0  0  0  0  0  0  0  0
    3.1633   -2.5896   -2.8140 C   0  0  0  0  0  0  0  0  0  0  0  0
    2.9751   -3.1346   -1.3885 C   0  0  0  0  0  0  0  0  0  0  0  0
    4.0276   -2.5451   -0.4286 C   0  0  1  0  0  0  0  0  0  0  0  0
    5.3341   -3.2448   -0.6003 C   0  0  0  0  0  0  0  0  0  0  0  0
    4.6913   -3.2127    0.8006 C   0  0  2  0  0  0  0  0  0  0  0  0
    5.7064   -2.5340    1.7497 C   0  0  0  0  0  0  0  0  0  0  0  0
    5.2922   -1.8506    3.0731 C   0  0  0  0  0  0  0  0  0  0  0  0
    4.1905   -0.7696    3.1604 C   0  0  2  0  0  0  0  0  0  0  0  0
    4.4309   -0.0048    4.4736 C   0  0  0  0  0  0  0  0  0  0  0  0
   -1.5385   -6.7062    4.9011 H   0  0  0  0  0  0  0  0  0  0  0  0
    0.2109   -6.6420    4.9204 H   0  0  0  0  0  0  0  0  0  0  0  0
   -0.5945   -8.1651    5.2197 H   0  0  0  0  0  0  0  0  0  0  0  0
   -2.7717   -8.0274    3.0055 H   0  0  0  0  0  0  0  0  0  0  0  0
   -1.7564   -9.4684    3.2915 H   0  0  0  0  0  0  0  0  0  0  0  0
   -1.8137   -8.7298    1.6814 H   0  0  0  0  0  0  0  0  0  0  0  0
    0.0383   -7.5424    1.1709 H   0  0  0  0  0  0  0  0  0  0  0  0
    1.0007   -5.3679    1.9092 H   0  0  0  0  0  0  0  0  0  0  0  0
    1.5136   -6.0654    3.4394 H   0  0  0  0  0  0  0  0  0  0  0  0
    3.3638   -7.0453    2.5286 H   0  0  0  0  0  0  0  0  0  0  0  0
    2.4871   -7.5608    1.1260 H   0  0  0  0  0  0  0  0  0  0  0  0
    2.6177   -5.3374    0.1624 H   0  0  0  0  0  0  0  0  0  0  0  0
    5.3086   -6.7126    0.8476 H   0  0  0  0  0  0  0  0  0  0  0  0
    5.0166   -5.8499   -0.6528 H   0  0  0  0  0  0  0  0  0  0  0  0
    4.1641   -7.2922   -0.3411 H   0  0  0  0  0  0  0  0  0  0  0  0
    4.6680   -4.7384    2.2995 H   0  0  0  0  0  0  0  0  0  0  0  0
    2.0567   -4.1719    2.8858 H   0  0  0  0  0  0  0  0  0  0  0  0
    3.3573   -3.4405    3.6006 H   0  0  0  0  0  0  0  0  0  0  0  0
    2.0386   -2.2114    1.0754 H   0  0  0  0  0  0  0  0  0  0  0  0
    1.1804   -2.3770    2.4940 H   0  0  0  0  0  0  0  0  0  0  0  0
    1.8289    0.7396    3.7552 H   0  0  0  0  0  0  0  0  0  0  0  0
    1.3817   -0.8440    4.3977 H   0  0  0  0  0  0  0  0  0  0  0  0
    0.6830   -0.2417    2.8782 H   0  0  0  0  0  0  0  0  0  0  0  0
    3.4668    1.0444    2.1662 H   0  0  0  0  0  0  0  0  0  0  0  0
    4.2369    0.8958    0.1813 H   0  0  0  0  0  0  0  0  0  0  0  0
    5.4560   -0.0997    0.6713 H   0  0  0  0  0  0  0  0  0  0  0  0
    2.7253   -0.8312   -0.4517 H   0  0  0  0  0  0  0  0  0  0  0  0
    2.3758   -0.5810   -2.6723 H   0  0  0  0  0  0  0  0  0  0  0  0
    4.9498   -0.9060   -4.3135 H   0  0  0  0  0  0  0  0  0  0  0  0
    3.3538   -1.0545   -5.0030 H   0  0  0  0  0  0  0  0  0  0  0  0
    3.0467    1.1236   -3.7864 H   0  0  0  0  0  0  0  0  0  0  0  0
    2.3155   -2.8758   -3.4362 H   0  0  0  0  0  0  0  0  0  0  0  0
    4.0379   -3.0765   -3.2529 H   0  0  0  0  0  0  0  0  0  0  0  0
    1.9586   -2.9505   -1.0365 H   0  0  0  0  0  0  0  0  0  0  0  0
    3.0857   -4.2025   -1.4833 H   0  0  0  0  0  0  0  0  0  0  0  0
    5.2843   -4.0740   -1.2735 H   0  0  0  0  0  0  0  0  0  0  0  0
    6.2159   -2.5717   -0.7500 H   0  0  0  0  0  0  0  0  0  0  0  0
    6.4332   -3.3066    2.0041 H   0  0  0  0  0  0  0  0  0  0  0  0
    6.3203   -1.8289    1.1972 H   0  0  0  0  0  0  0  0  0  0  0  0
    5.1209   -2.5998    3.8430 H   0  0  0  0  0  0  0  0  0  0  0  0
    6.2088   -1.3720    3.4132 H   0  0  0  0  0  0  0  0  0  0  0  0
    5.4589    0.3547    4.5475 H   0  0  0  0  0  0  0  0  0  0  0  0
    4.2306   -0.6461    5.3338 H   0  0  0  0  0  0  0  0  0  0  0  0
    3.8002    0.8723    4.5614 H   0  0  0  0  0  0  0  0  0  0  0  0
  1  2  1  0
  1 30  1  0
  1 31  1  0
  1 32  1  0
  2  3  1  0
  2  4  2  3
  3 33  1  0
  3 34  1  0
  3 35  1  0
  4  5  1  0
  4 36  1  0
  5  6  1  0
  5 37  1  0
  5 38  1  0
  6  7  1  0
  6 39  1  0
  6 40  1  0
  7  8  1  0
  7  9  1  0
  7 41  1  6
  8 42  1  0
  8 43  1  0
  8 44  1  0
  9 25  1  0
  9 10  1  0
  9 45  1  1
 10 11  1  0
 10 46  1  0
 10 47  1  0
 11 12  1  0
 11 48  1  0
 11 49  1  0
 12 28  1  0
 12 13  1  1
 12 14  1  0
 13 50  1  0
 13 51  1  0
 13 52  1  0
 14 28  1  0
 14 15  1  0
 14 53  1  1
 15 16  1  0
 15 54  1  0
 15 55  1  0
 16 23  1  0
 16 17  1  0
 16 56  1  6
 17 18  1  0
 18 19  1  0
 18 21  1  0
 18 57  1  1
 19 20  1  0
 19 58  1  0
 19 59  1  0
 20 60  1  0
 21 22  1  0
 21 61  1  0
 21 62  1  0
 23 22  1  6
 22 63  1  0
 22 64  1  0
 23 25  1  0
 23 24  1  0
 25 24  1  6
 24 65  1  0
 24 66  1  0
 25 26  1  0
 26 27  1  0
 26 67  1  0
 26 68  1  0
 27 28  1  0
 27 69  1  0
 27 70  1  0
 28 29  1  1
 29 71  1  0
 29 72  1  0
 29 73  1  0
M  END
>  <i_m_ct_stereo_status>  (288) 
1

>  <s_m_source_file>  (288) 
/var/tmp/pbs.5076255.sched01/tmplj_yfvzq/807e0r74np.sdf

>  <i_m_source_file_index>  (288) 
40

>  <i_lp_mmshare_version>  (288) 
48012

>  <i_f3d_flags>  (288) 
0

>  <s_epik_input>  (288) 
W0NIM11DKFtDSDNdKT1bQ0hdW0NIMl1bQ0gyXVtDQEhdKFtDSDNdKVtDQEBIXShbQ0BdMShbQ0BdMjM0KVtDSDJdNClbQ0gyXVtDSDJdW0NAXTUoW0NIM10pW0NAQEhdKFtDQF01KFtDSDNdKVtDSDJdW0NIMl0xKVtDSDJdW0NASF0yT1tDQEBIXShbQ0gyXVtPSF0pW0NIMl1bQ0gyXTM=

>  <s_epik_cmdline>  (288) 
J2VwaWtfcHl0aG9uJywgJy1waHQnLCAnMi4wJywgJy1waCcsICc3LjAnLCAnLXRuJywgJzgnLCAnLW1hJywgJzIwMCcsICctaW1hZScsICc8aW5maWxlLm1hZT4nLCAnLW9tYWUnLCAnPG91dGZpbGUubWFlPic=

>  <r_lp_tautomer_probability>  (288) 
1

>  <r_epik_Ionization_Penalty>  (288) 
1.2939e-07

>  <r_epik_Ionization_Penalty_Charging>  (288) 
0

>  <r_epik_Ionization_Penalty_Neutral>  (288) 
1.2939e-07

>  <r_epik_State_Penalty>  (288) 
-0

>  <r_epik_Charging_Adjusted_Penalty>  (288) 
0

>  <i_epik_Tot_Q>  (288) 
0

>  <i_epik_Tot_abs_Q>  (288) 
0

>  <s_lp_Force_Field>  (288) 
OPLS3e

>  <r_lp_Energy>  (288) 
95.0101

>  <b_lp_Chiralities_Consistent>  (288) 
1

>  <s_lp_Variant>  (288) 
88:0-1

>  <s_i_glide_gridfile>  (288) 
pfpi4k_grid

>  <i_i_glide_lignum>  (288) 
40

>  <i_i_glide_rotatable_bonds>  (288) 
6

>  <r_i_docking_score>  (288) 
-2.96788

>  <r_i_glide_ligand_efficiency>  (288) 
-0.102341

>  <r_i_glide_ligand_efficiency_sa>  (288) 
-0.314423

>  <r_i_glide_ligand_efficiency_ln>  (288) 
-0.679569

>  <r_i_glide_gscore>  (288) 
-2.96788

>  <r_i_glide_lipo>  (288) 
-0.795755

>  <r_i_glide_hbond>  (288) 
0

>  <r_i_glide_metal>  (288) 
-0

>  <r_i_glide_rewards>  (288) 
-0.677475

>  <r_i_glide_evdw>  (288) 
-27.0685

>  <r_i_glide_ecoul>  (288) 
-5.01317

>  <r_i_glide_erotb>  (288) 
0.610748

>  <r_i_glide_esite>  (288) 
0

>  <r_i_glide_emodel>  (288) 
-32.0798

>  <r_i_glide_energy>  (288) 
-32.0816

>  <r_i_glide_einternal>  (288) 
8.34152

>  <r_i_glide_intrahb_reward>  (288) 
-0

>  <i_i_glide_confnum>  (288) 
4

>  <i_i_glide_posenum>  (288) 
23

>  <r_i_glide_eff_state_penalty>  (288) 
0

>  <ligand_id>  (288) 
88

>  <original_smiles>  (288) 
CC(C)=CCCC(C)C1CCC2(C)C3CC4OC(CO)CCC45CC15CCC32C

>  <smiles>  (288) 
[H]OC([H])([H])C1([H])OC2([H])C([H])([H])C3([H])C4(C([H])([H])[H])C([H])([H])C([H])([H])C([H])(C([H])(C([H])([H])[H])C([H])([H])C([H])([H])C([H])=C(C([H])([H])[H])C([H])([H])[H])C5(C([H])([H])C([H])([H])C34C([H])([H])[H])C([H])([H])C25C([H])([H])C1([H])[H]

$$$$
88:0:1
     RDKit          3D

 73 77  0  0  1  0  0  0  0  0999 V2000
    0.7819    0.5724    3.2648 C   0  0  0  0  0  0  0  0  0  0  0  0
   -0.5430    0.3704    4.0259 C   0  0  0  0  0  0  0  0  0  0  0  0
   -1.4418    1.5956    3.9904 C   0  0  0  0  0  0  0  0  0  0  0  0
   -0.9658   -0.7177    4.6745 C   0  0  0  0  0  0  0  0  0  0  0  0
   -0.1980   -1.9888    4.7848 C   0  0  0  0  0  0  0  0  0  0  0  0
   -0.1417   -2.7093    6.1288 C   0  0  0  0  0  0  0  0  0  0  0  0
    0.4729   -4.1761    6.1667 C   0  0  2  0  0  0  0  0  0  0  0  0
    0.4616   -4.5305    7.6860 C   0  0  0  0  0  0  0  0  0  0  0  0
    1.8968   -4.3676    5.4468 C   0  0  2  0  0  0  0  0  0  0  0  0
    2.0540   -3.8814    3.9676 C   0  0  0  0  0  0  0  0  0  0  0  0
    2.0465   -4.8584    2.7947 C   0  0  0  0  0  0  0  0  0  0  0  0
    3.4003   -5.2145    2.1561 C   0  0  2  0  0  0  0  0  0  0  0  0
    3.3402   -4.7495    0.6903 C   0  0  0  0  0  0  0  0  0  0  0  0
    4.1891   -6.4911    2.4604 C   0  0  2  0  0  0  0  0  0  0  0  0
    3.9159   -7.6632    3.4064 C   0  0  0  0  0  0  0  0  0  0  0  0
    2.4682   -7.9315    3.9100 C   0  0  1  0  0  0  0  0  0  0  0  0
    2.3407   -9.2691    4.3793 O   0  0  0  0  0  0  0  0  0  0  0  0
    0.9847   -9.7412    4.3547 C   0  0  1  0  0  0  0  0  0  0  0  0
    0.9574  -11.1940    4.8765 C   0  0  0  0  0  0  0  0  0  0  0  0
    0.6134  -12.0705    3.8236 O   0  0  0  0  0  0  0  0  0  0  0  0
    0.0764   -8.8207    5.1952 C   0  0  0  0  0  0  0  0  0  0  0  0
    0.3635   -7.3334    4.9604 C   0  0  0  0  0  0  0  0  0  0  0  0
    1.8801   -7.0527    5.0519 C   0  0  1  0  0  0  0  0  0  0  0  0
    2.3480   -7.0292    6.4628 C   0  0  0  0  0  0  0  0  0  0  0  0
    2.5944   -5.8031    5.5755 C   0  0  2  0  0  0  0  0  0  0  0  0
    4.1270   -5.5504    5.5685 C   0  0  0  0  0  0  0  0  0  0  0  0
    4.8611   -4.7755    4.4367 C   0  0  0  0  0  0  0  0  0  0  0  0
    4.7245   -5.1530    2.9359 C   0  0  2  0  0  0  0  0  0  0  0  0
    5.9355   -4.5404    2.2197 C   0  0  0  0  0  0  0  0  0  0  0  0
    0.5964    0.7732    2.2059 H   0  0  0  0  0  0  0  0  0  0  0  0
    1.4834   -0.2626    3.2869 H   0  0  0  0  0  0  0  0  0  0  0  0
    1.3186    1.4329    3.6684 H   0  0  0  0  0  0  0  0  0  0  0  0
   -1.6913    1.8471    2.9572 H   0  0  0  0  0  0  0  0  0  0  0  0
   -0.9292    2.4332    4.4660 H   0  0  0  0  0  0  0  0  0  0  0  0
   -2.3610    1.3839    4.5331 H   0  0  0  0  0  0  0  0  0  0  0  0
   -1.9366   -0.7555    5.1374 H   0  0  0  0  0  0  0  0  0  0  0  0
   -0.6106   -2.6572    4.0168 H   0  0  0  0  0  0  0  0  0  0  0  0
    0.8488   -1.7426    4.5532 H   0  0  0  0  0  0  0  0  0  0  0  0
    0.3995   -2.0703    6.8140 H   0  0  0  0  0  0  0  0  0  0  0  0
   -1.1641   -2.7772    6.4799 H   0  0  0  0  0  0  0  0  0  0  0  0
   -0.2776   -4.7576    5.6377 H   0  0  0  0  0  0  0  0  0  0  0  0
    1.1986   -3.9354    8.2338 H   0  0  0  0  0  0  0  0  0  0  0  0
    0.6544   -5.5415    7.9014 H   0  0  0  0  0  0  0  0  0  0  0  0
   -0.5341   -4.3877    8.1275 H   0  0  0  0  0  0  0  0  0  0  0  0
    2.5170   -3.7076    6.0568 H   0  0  0  0  0  0  0  0  0  0  0  0
    1.1821   -3.4318    3.6578 H   0  0  0  0  0  0  0  0  0  0  0  0
    2.8039   -3.0994    3.8942 H   0  0  0  0  0  0  0  0  0  0  0  0
    1.4322   -5.7354    2.9635 H   0  0  0  0  0  0  0  0  0  0  0  0
    1.4933   -4.3848    2.0012 H   0  0  0  0  0  0  0  0  0  0  0  0
    4.1786   -5.1363    0.1163 H   0  0  0  0  0  0  0  0  0  0  0  0
    3.3535   -3.6588    0.6179 H   0  0  0  0  0  0  0  0  0  0  0  0
    2.4408   -5.1223    0.2000 H   0  0  0  0  0  0  0  0  0  0  0  0
    4.6830   -6.8597    1.5620 H   0  0  0  0  0  0  0  0  0  0  0  0
    4.1166   -8.5333    2.7927 H   0  0  0  0  0  0  0  0  0  0  0  0
    4.6904   -7.7535    4.1524 H   0  0  0  0  0  0  0  0  0  0  0  0
    1.8501   -7.8177    3.0204 H   0  0  0  0  0  0  0  0  0  0  0  0
    0.6437   -9.7035    3.3205 H   0  0  0  0  0  0  0  0  0  0  0  0
    1.9225  -11.4837    5.2930 H   0  0  0  0  0  0  0  0  0  0  0  0
    0.2207  -11.3231    5.6697 H   0  0  0  0  0  0  0  0  0  0  0  0
    1.0053  -12.9079    3.9851 H   0  0  0  0  0  0  0  0  0  0  0  0
   -0.9681   -9.0412    4.9604 H   0  0  0  0  0  0  0  0  0  0  0  0
    0.1922   -9.0393    6.2576 H   0  0  0  0  0  0  0  0  0  0  0  0
   -0.0626   -6.9983    4.0154 H   0  0  0  0  0  0  0  0  0  0  0  0
   -0.1868   -6.8204    5.7538 H   0  0  0  0  0  0  0  0  0  0  0  0
    1.5367   -7.0943    7.1925 H   0  0  0  0  0  0  0  0  0  0  0  0
    3.2190   -7.6289    6.7197 H   0  0  0  0  0  0  0  0  0  0  0  0
    4.3446   -5.0310    6.4951 H   0  0  0  0  0  0  0  0  0  0  0  0
    4.6380   -6.4933    5.7205 H   0  0  0  0  0  0  0  0  0  0  0  0
    4.6840   -3.7097    4.5601 H   0  0  0  0  0  0  0  0  0  0  0  0
    5.9162   -4.8799    4.6931 H   0  0  0  0  0  0  0  0  0  0  0  0
    6.8662   -4.8580    2.6813 H   0  0  0  0  0  0  0  0  0  0  0  0
    5.8905   -3.4514    2.2233 H   0  0  0  0  0  0  0  0  0  0  0  0
    6.0043   -4.8615    1.1805 H   0  0  0  0  0  0  0  0  0  0  0  0
  1  2  1  0
  1 30  1  0
  1 31  1  0
  1 32  1  0
  2  3  1  0
  2  4  2  3
  3 33  1  0
  3 34  1  0
  3 35  1  0
  4  5  1  0
  4 36  1  0
  5  6  1  0
  5 37  1  0
  5 38  1  0
  6  7  1  0
  6 39  1  0
  6 40  1  0
  7  8  1  0
  7  9  1  0
  7 41  1  6
  8 42  1  0
  8 43  1  0
  8 44  1  0
  9 25  1  0
  9 10  1  0
  9 45  1  1
 10 11  1  0
 10 46  1  0
 10 47  1  0
 11 12  1  0
 11 48  1  0
 11 49  1  0
 12 28  1  0
 12 13  1  6
 12 14  1  0
 13 50  1  0
 13 51  1  0
 13 52  1  0
 14 28  1  0
 14 15  1  0
 14 53  1  6
 15 16  1  0
 15 54  1  0
 15 55  1  0
 16 23  1  0
 16 17  1  0
 16 56  1  6
 17 18  1  0
 18 19  1  0
 18 21  1  0
 18 57  1  6
 19 20  1  0
 19 58  1  0
 19 59  1  0
 20 60  1  0
 21 22  1  0
 21 61  1  0
 21 62  1  0
 23 22  1  1
 22 63  1  0
 22 64  1  0
 23 25  1  0
 23 24  1  0
 25 24  1  1
 24 65  1  0
 24 66  1  0
 25 26  1  0
 26 27  1  0
 26 67  1  0
 26 68  1  0
 27 28  1  0
 27 69  1  0
 27 70  1  0
 28 29  1  6
 29 71  1  0
 29 72  1  0
 29 73  1  0
M  END
>  <i_m_ct_stereo_status>  (289) 
1

>  <s_m_source_file>  (289) 
/var/tmp/pbs.5076255.sched01/tmplj_yfvzq/807e0r74np.sdf

>  <i_m_source_file_index>  (289) 
40

>  <i_lp_mmshare_version>  (289) 
48012

>  <i_f3d_flags>  (289) 
0

>  <s_epik_input>  (289) 
W0NIM11DKFtDSDNdKT1bQ0hdW0NIMl1bQ0gyXVtDQEhdKFtDSDNdKVtDQEBIXShbQ0BdMShbQ0BdMjM0KVtDSDJdNClbQ0gyXVtDSDJdW0NAXTUoW0NIM10pW0NAQEhdKFtDQF01KFtDSDNdKVtDSDJdW0NIMl0xKVtDSDJdW0NASF0yT1tDQEBIXShbQ0gyXVtPSF0pW0NIMl1bQ0gyXTM=

>  <s_epik_cmdline>  (289) 
J2VwaWtfcHl0aG9uJywgJy1waHQnLCAnMi4wJywgJy1waCcsICc3LjAnLCAnLXRuJywgJzgnLCAnLW1hJywgJzIwMCcsICctaW1hZScsICc8aW5maWxlLm1hZT4nLCAnLW9tYWUnLCAnPG91dGZpbGUubWFlPic=

>  <r_lp_tautomer_probability>  (289) 
1

>  <r_epik_Ionization_Penalty>  (289) 
1.2939e-07

>  <r_epik_Ionization_Penalty_Charging>  (289) 
0

>  <r_epik_Ionization_Penalty_Neutral>  (289) 
1.2939e-07

>  <r_epik_State_Penalty>  (289) 
-0

>  <r_epik_Charging_Adjusted_Penalty>  (289) 
0

>  <i_epik_Tot_Q>  (289) 
0

>  <i_epik_Tot_abs_Q>  (289) 
0

>  <s_lp_Force_Field>  (289) 
OPLS3e

>  <r_lp_Energy>  (289) 
95.0101

>  <b_lp_Chiralities_Consistent>  (289) 
1

>  <s_lp_Variant>  (289) 
88:0-1

>  <s_i_glide_gridfile>  (289) 
pfpi4k_grid

>  <i_i_glide_lignum>  (289) 
40

>  <i_i_glide_rotatable_bonds>  (289) 
6

>  <r_i_docking_score>  (289) 
-1.34058

>  <r_i_glide_ligand_efficiency>  (289) 
-0.046227

>  <r_i_glide_ligand_efficiency_sa>  (289) 
-0.142024

>  <r_i_glide_ligand_efficiency_ln>  (289) 
-0.306959

>  <r_i_glide_gscore>  (289) 
-1.34058

>  <r_i_glide_lipo>  (289) 
-0.0370214

>  <r_i_glide_hbond>  (289) 
0

>  <r_i_glide_metal>  (289) 
-0

>  <r_i_glide_rewards>  (289) 
-0.677475

>  <r_i_glide_evdw>  (289) 
-17.3504

>  <r_i_glide_ecoul>  (289) 
-2.4621

>  <r_i_glide_erotb>  (289) 
0.610748

>  <r_i_glide_esite>  (289) 
0

>  <r_i_glide_emodel>  (289) 
-15.5187

>  <r_i_glide_energy>  (289) 
-19.8125

>  <r_i_glide_einternal>  (289) 
6.92524

>  <r_i_glide_intrahb_reward>  (289) 
-0

>  <i_i_glide_confnum>  (289) 
3

>  <i_i_glide_posenum>  (289) 
2

>  <r_i_glide_eff_state_penalty>  (289) 
0

>  <ligand_id>  (289) 
88

>  <original_smiles>  (289) 
CC(C)=CCCC(C)C1CCC2(C)C3CC4OC(CO)CCC45CC15CCC32C

>  <smiles>  (289) 
[H]OC([H])([H])C1([H])OC2([H])C([H])([H])C3([H])C4(C([H])([H])[H])C([H])([H])C([H])([H])C([H])(C([H])(C([H])([H])[H])C([H])([H])C([H])([H])C([H])=C(C([H])([H])[H])C([H])([H])[H])C5(C([H])([H])C([H])([H])C34C([H])([H])[H])C([H])([H])C25C([H])([H])C1([H])[H]

$$$$
89:0:0
     RDKit          3D

 60 63  0  0  1  0  0  0  0  0999 V2000
    1.7339   -2.1594    4.4633 C   0  0  0  0  0  0  0  0  0  0  0  0
    3.0049   -2.2718    5.3152 C   0  0  0  0  0  0  0  0  0  0  0  0
    3.1582   -1.5398    6.2987 O   0  0  0  0  0  0  0  0  0  0  0  0
    3.9300   -3.1668    4.9406 O   0  0  0  0  0  0  0  0  0  0  0  0
    3.7819   -3.9999    3.8055 C   0  0  2  0  0  0  0  0  0  0  0  0
    4.8675   -5.0477    3.5537 C   0  0  1  0  0  0  0  0  0  0  0  0
    4.5654   -6.3442    3.9875 O   0  0  0  0  0  0  0  0  0  0  0  0
    4.7090   -4.7418    2.0405 C   0  0  1  0  0  0  0  0  0  0  0  0
    6.0222   -4.2990    1.4388 C   0  0  0  0  0  0  0  0  0  0  0  0
    6.1837   -2.9815    1.3921 C   0  0  0  0  0  0  0  0  0  0  0  0
    7.3901   -2.2892    0.7609 C   0  0  0  0  0  0  0  0  0  0  0  0
    4.9922   -2.2108    1.9953 C   0  0  1  0  0  0  0  0  0  0  0  0
    5.4517   -1.4084    3.2199 C   0  0  0  0  0  0  0  0  0  0  0  0
    4.2799   -1.2681    0.9638 C   0  0  1  0  0  0  0  0  0  0  0  0
    5.1631   -0.1359    0.5316 C   0  0  0  0  0  0  0  0  0  0  0  0
    3.5484   -1.9171   -0.2459 C   0  0  1  0  0  0  0  0  0  0  0  0
    3.0214   -1.0519   -1.1918 O   0  0  0  0  0  0  0  0  0  0  0  0
    4.3799   -2.8013   -1.1104 C   0  0  1  0  0  0  0  0  0  0  0  0
    4.2238   -4.2797   -1.0729 C   0  0  1  0  0  0  0  0  0  0  0  0
    3.2693   -4.9801   -0.1037 C   0  0  0  0  0  0  0  0  0  0  0  0
    3.8904   -5.6808    1.1344 C   0  0  1  0  0  0  0  0  0  0  0  0
    4.6283   -6.9606    0.7658 C   0  0  0  0  0  0  0  0  0  0  0  0
    3.7396   -3.4608   -2.2894 C   0  0  0  0  0  0  0  0  0  0  0  0
    2.2391   -3.3476   -2.5984 C   0  0  0  0  0  0  0  0  0  0  0  0
    4.5064   -3.6305   -3.5840 C   0  0  0  0  0  0  0  0  0  0  0  0
    4.0643   -3.3896    2.4119 C   0  0  2  0  0  0  0  0  0  0  0  0
    1.7571   -2.7098    3.5227 H   0  0  0  0  0  0  0  0  0  0  0  0
    1.5286   -1.1023    4.2773 H   0  0  0  0  0  0  0  0  0  0  0  0
    0.8771   -2.5124    5.0449 H   0  0  0  0  0  0  0  0  0  0  0  0
    2.7972   -4.5087    3.8342 H   0  0  0  0  0  0  0  0  0  0  0  0
    5.8709   -4.7436    3.9465 H   0  0  0  0  0  0  0  0  0  0  0  0
    3.7340   -6.5648    3.5764 H   0  0  0  0  0  0  0  0  0  0  0  0
    6.7508   -5.0233    1.0609 H   0  0  0  0  0  0  0  0  0  0  0  0
    7.6052   -1.3657    1.3088 H   0  0  0  0  0  0  0  0  0  0  0  0
    7.2161   -2.0403   -0.2825 H   0  0  0  0  0  0  0  0  0  0  0  0
    8.2397   -2.9664    0.8395 H   0  0  0  0  0  0  0  0  0  0  0  0
    4.6578   -0.8220    3.6776 H   0  0  0  0  0  0  0  0  0  0  0  0
    6.2776   -0.7025    3.0094 H   0  0  0  0  0  0  0  0  0  0  0  0
    5.8530   -2.1014    3.9561 H   0  0  0  0  0  0  0  0  0  0  0  0
    3.5079   -0.7721    1.5826 H   0  0  0  0  0  0  0  0  0  0  0  0
    5.8324   -0.3566   -0.3027 H   0  0  0  0  0  0  0  0  0  0  0  0
    5.7515    0.3500    1.2975 H   0  0  0  0  0  0  0  0  0  0  0  0
    4.4555    0.6179    0.1823 H   0  0  0  0  0  0  0  0  0  0  0  0
    2.6681   -2.4225    0.1719 H   0  0  0  0  0  0  0  0  0  0  0  0
    2.0666   -1.0331   -1.0631 H   0  0  0  0  0  0  0  0  0  0  0  0
    5.3637   -2.3701   -1.3198 H   0  0  0  0  0  0  0  0  0  0  0  0
    5.1474   -4.8340   -1.2642 H   0  0  0  0  0  0  0  0  0  0  0  0
    2.4142   -4.3652    0.2092 H   0  0  0  0  0  0  0  0  0  0  0  0
    2.7575   -5.7486   -0.6662 H   0  0  0  0  0  0  0  0  0  0  0  0
    3.0104   -6.0095    1.7055 H   0  0  0  0  0  0  0  0  0  0  0  0
    5.4354   -6.7608    0.0794 H   0  0  0  0  0  0  0  0  0  0  0  0
    3.9500   -7.6788    0.2785 H   0  0  0  0  0  0  0  0  0  0  0  0
    5.0281   -7.4624    1.6397 H   0  0  0  0  0  0  0  0  0  0  0  0
    1.9005   -4.2100   -3.1545 H   0  0  0  0  0  0  0  0  0  0  0  0
    2.0263   -2.4748   -3.2309 H   0  0  0  0  0  0  0  0  0  0  0  0
    1.6276   -3.2774   -1.6876 H   0  0  0  0  0  0  0  0  0  0  0  0
    4.1617   -4.5273   -4.0819 H   0  0  0  0  0  0  0  0  0  0  0  0
    5.5746   -3.7427   -3.3816 H   0  0  0  0  0  0  0  0  0  0  0  0
    4.3541   -2.7728   -4.2450 H   0  0  0  0  0  0  0  0  0  0  0  0
    3.0597   -3.2986    1.9983 H   0  0  0  0  0  0  0  0  0  0  0  0
  1  2  1  0
  1 27  1  0
  1 28  1  0
  1 29  1  0
  2  3  2  0
  2  4  1  0
  4  5  1  0
  5 26  1  0
  5  6  1  0
  5 30  1  6
  6  7  1  0
  6  8  1  0
  6 31  1  1
  7 32  1  0
  8 21  1  0
  8 26  1  0
  8  9  1  6
  9 10  2  0
  9 33  1  0
 10 11  1  0
 10 12  1  0
 11 34  1  0
 11 35  1  0
 11 36  1  0
 12 13  1  1
 12 14  1  0
 12 26  1  0
 13 37  1  0
 13 38  1  0
 13 39  1  0
 14 15  1  0
 14 16  1  0
 14 40  1  1
 15 41  1  0
 15 42  1  0
 15 43  1  0
 16 17  1  0
 16 18  1  0
 16 44  1  1
 17 45  1  0
 18 23  1  0
 18 19  1  0
 18 46  1  6
 19 20  1  0
 19 23  1  0
 19 47  1  6
 20 21  1  0
 20 48  1  0
 20 49  1  0
 21 22  1  0
 21 50  1  1
 22 51  1  0
 22 52  1  0
 22 53  1  0
 23 24  1  0
 23 25  1  0
 24 54  1  0
 24 55  1  0
 24 56  1  0
 25 57  1  0
 25 58  1  0
 25 59  1  0
 26 60  1  6
M  END
>  <i_m_ct_stereo_status>  (290) 
1

>  <s_m_source_file>  (290) 
/var/tmp/pbs.5076255.sched01/tmpr9sv22dd/120oksnzf6p.sdf

>  <i_m_source_file_index>  (290) 
1

>  <i_lp_mmshare_version>  (290) 
48012

>  <i_f3d_flags>  (290) 
0

>  <s_epik_input>  (290) 
W0NIM11DKD1PKU9bQ0BIXShbQ0BIXTFbT0hdKVtDQEhdKFtDQF0xMjMpW0NAQF0oW0NIM10pKEMoPVtDSF0yKVtDSDNdKVtDQEBIXShbQ0gzXSlbQ0BASF0oW09IXSlbQ0BIXTRbQ0BIXShDNChbQ0gzXSlbQ0gzXSlbQ0gyXVtDQEhdM1tDSDNd

>  <s_epik_cmdline>  (290) 
J2VwaWtfcHl0aG9uJywgJy1waHQnLCAnMi4wJywgJy1waCcsICc3LjAnLCAnLXRuJywgJzgnLCAnLW1hJywgJzIwMCcsICctaW1hZScsICc8aW5maWxlLm1hZT4nLCAnLW9tYWUnLCAnPG91dGZpbGUubWFlPic=

>  <r_lp_tautomer_probability>  (290) 
1

>  <r_epik_Ionization_Penalty>  (290) 
9.58672e-07

>  <r_epik_Ionization_Penalty_Charging>  (290) 
0

>  <r_epik_Ionization_Penalty_Neutral>  (290) 
9.58672e-07

>  <r_epik_State_Penalty>  (290) 
-0

>  <r_epik_Charging_Adjusted_Penalty>  (290) 
0

>  <i_epik_Tot_Q>  (290) 
0

>  <i_epik_Tot_abs_Q>  (290) 
0

>  <s_epik_Chemistry_Notes>  (290) 
This compound has an ester and may undergo hydrolysis at high or low pH.

>  <s_lp_Force_Field>  (290) 
OPLS3e

>  <r_lp_Energy>  (290) 
49.6892

>  <b_lp_Chiralities_Consistent>  (290) 
1

>  <s_lp_Variant>  (290) 
89:0-1

>  <s_i_glide_gridfile>  (290) 
pfpi4k_grid

>  <i_i_glide_lignum>  (290) 
1

>  <i_i_glide_rotatable_bonds>  (290) 
4

>  <r_i_docking_score>  (290) 
-3.34099

>  <r_i_glide_ligand_efficiency>  (290) 
-0.128499

>  <r_i_glide_ligand_efficiency_sa>  (290) 
-0.380679

>  <r_i_glide_ligand_efficiency_ln>  (290) 
-0.78462

>  <r_i_glide_gscore>  (290) 
-3.34099

>  <r_i_glide_lipo>  (290) 
-1.05173

>  <r_i_glide_hbond>  (290) 
-0.0902337

>  <r_i_glide_metal>  (290) 
-0

>  <r_i_glide_rewards>  (290) 
-0.93748

>  <r_i_glide_evdw>  (290) 
0.0776377

>  <r_i_glide_ecoul>  (290) 
-9.41036

>  <r_i_glide_erotb>  (290) 
0.14613

>  <r_i_glide_esite>  (290) 
0

>  <r_i_glide_emodel>  (290) 
-4.87894

>  <r_i_glide_energy>  (290) 
-9.33273

>  <r_i_glide_einternal>  (290) 
6.74948

>  <r_i_glide_intrahb_reward>  (290) 
-0

>  <i_i_glide_confnum>  (290) 
3

>  <i_i_glide_posenum>  (290) 
14

>  <r_i_glide_eff_state_penalty>  (290) 
0

>  <ligand_id>  (290) 
89

>  <original_smiles>  (290) 
CC(=O)OC1C(O)C23C=C(C)C(C)(C(C)C(O)C4C(CC2C)C4(C)C)C13

>  <smiles>  (290) 
[H]OC1([H])C([H])(C([H])([H])[H])C2(C([H])([H])[H])C(C([H])([H])[H])=C([H])C3(C([H])(O[H])C([H])(OC(=O)C([H])([H])[H])C23[H])C([H])(C([H])([H])[H])C([H])([H])C2([H])C1([H])C2(C([H])([H])[H])C([H])([H])[H]

$$$$
89:0:1
     RDKit          3D

 60 63  0  0  1  0  0  0  0  0999 V2000
    4.4105   -5.1082    7.4923 C   0  0  0  0  0  0  0  0  0  0  0  0
    3.4881   -4.9006    6.2962 C   0  0  0  0  0  0  0  0  0  0  0  0
    2.2649   -4.7881    6.4393 O   0  0  0  0  0  0  0  0  0  0  0  0
    4.1472   -4.8509    5.1372 O   0  0  0  0  0  0  0  0  0  0  0  0
    3.4495   -4.6388    3.9132 C   0  0  2  0  0  0  0  0  0  0  0  0
    2.8790   -5.8782    3.2500 C   0  0  1  0  0  0  0  0  0  0  0  0
    1.4907   -6.1002    3.4190 O   0  0  0  0  0  0  0  0  0  0  0  0
    3.3406   -5.3116    1.8945 C   0  0  1  0  0  0  0  0  0  0  0  0
    4.2766   -6.2687    1.2215 C   0  0  0  0  0  0  0  0  0  0  0  0
    5.5604   -6.0025    1.4733 C   0  0  0  0  0  0  0  0  0  0  0  0
    6.7253   -6.8139    0.9854 C   0  0  0  0  0  0  0  0  0  0  0  0
    5.7856   -4.8222    2.3623 C   0  0  1  0  0  0  0  0  0  0  0  0
    6.4653   -5.4085    3.6285 C   0  0  0  0  0  0  0  0  0  0  0  0
    6.6002   -3.6668    1.6322 C   0  0  1  0  0  0  0  0  0  0  0  0
    8.0711   -4.0233    1.2643 C   0  0  0  0  0  0  0  0  0  0  0  0
    5.9400   -2.8095    0.4881 C   0  0  1  0  0  0  0  0  0  0  0  0
    6.8650   -1.8382    0.0251 O   0  0  0  0  0  0  0  0  0  0  0  0
    5.4799   -3.6015   -0.7076 C   0  0  1  0  0  0  0  0  0  0  0  0
    4.0496   -4.0043   -0.8727 C   0  0  1  0  0  0  0  0  0  0  0  0
    2.8638   -3.5783   -0.0152 C   0  0  0  0  0  0  0  0  0  0  0  0
    2.3144   -4.6825    0.9278 C   0  0  1  0  0  0  0  0  0  0  0  0
    1.4715   -5.7401    0.1971 C   0  0  0  0  0  0  0  0  0  0  0  0
    4.6867   -3.0472   -1.8731 C   0  0  0  0  0  0  0  0  0  0  0  0
    4.3122   -1.5825   -1.9308 C   0  0  0  0  0  0  0  0  0  0  0  0
    5.0191   -3.5529   -3.2553 C   0  0  0  0  0  0  0  0  0  0  0  0
    4.3107   -4.3745    2.6523 C   0  0  2  0  0  0  0  0  0  0  0  0
    5.4289   -5.3128    7.1579 H   0  0  0  0  0  0  0  0  0  0  0  0
    4.0712   -5.9513    8.0961 H   0  0  0  0  0  0  0  0  0  0  0  0
    4.4300   -4.2170    8.1223 H   0  0  0  0  0  0  0  0  0  0  0  0
    2.6807   -3.8599    3.9945 H   0  0  0  0  0  0  0  0  0  0  0  0
    3.4490   -6.7731    3.5362 H   0  0  0  0  0  0  0  0  0  0  0  0
    1.4078   -6.7760    4.0789 H   0  0  0  0  0  0  0  0  0  0  0  0
    3.9471   -7.1016    0.6061 H   0  0  0  0  0  0  0  0  0  0  0  0
    7.4852   -6.9938    1.7461 H   0  0  0  0  0  0  0  0  0  0  0  0
    7.1749   -6.3388    0.1082 H   0  0  0  0  0  0  0  0  0  0  0  0
    6.3125   -7.7862    0.7290 H   0  0  0  0  0  0  0  0  0  0  0  0
    6.5191   -4.6681    4.4203 H   0  0  0  0  0  0  0  0  0  0  0  0
    7.4822   -5.7459    3.4616 H   0  0  0  0  0  0  0  0  0  0  0  0
    5.9143   -6.2598    4.0437 H   0  0  0  0  0  0  0  0  0  0  0  0
    6.6357   -2.9187    2.4065 H   0  0  0  0  0  0  0  0  0  0  0  0
    8.1952   -4.5206    0.3095 H   0  0  0  0  0  0  0  0  0  0  0  0
    8.5805   -4.6021    2.0315 H   0  0  0  0  0  0  0  0  0  0  0  0
    8.6659   -3.1247    1.1324 H   0  0  0  0  0  0  0  0  0  0  0  0
    5.1156   -2.2390    0.8872 H   0  0  0  0  0  0  0  0  0  0  0  0
    7.0745   -1.2622    0.7503 H   0  0  0  0  0  0  0  0  0  0  0  0
    6.1827   -4.3797   -0.9711 H   0  0  0  0  0  0  0  0  0  0  0  0
    4.0210   -5.0601   -1.0912 H   0  0  0  0  0  0  0  0  0  0  0  0
    3.0749   -2.6655    0.5421 H   0  0  0  0  0  0  0  0  0  0  0  0
    2.0675   -3.2944   -0.7090 H   0  0  0  0  0  0  0  0  0  0  0  0
    1.6529   -4.1433    1.5994 H   0  0  0  0  0  0  0  0  0  0  0  0
    2.0809   -6.2470   -0.5277 H   0  0  0  0  0  0  0  0  0  0  0  0
    0.7043   -5.3001   -0.4241 H   0  0  0  0  0  0  0  0  0  0  0  0
    1.0027   -6.4595    0.8626 H   0  0  0  0  0  0  0  0  0  0  0  0
    3.4329   -1.4559   -2.5675 H   0  0  0  0  0  0  0  0  0  0  0  0
    5.1452   -0.9990   -2.3316 H   0  0  0  0  0  0  0  0  0  0  0  0
    4.0757   -1.2107   -0.9315 H   0  0  0  0  0  0  0  0  0  0  0  0
    4.1867   -3.4042   -3.9407 H   0  0  0  0  0  0  0  0  0  0  0  0
    5.2501   -4.6108   -3.2105 H   0  0  0  0  0  0  0  0  0  0  0  0
    5.9047   -3.0368   -3.6083 H   0  0  0  0  0  0  0  0  0  0  0  0
    4.1183   -3.3304    2.4299 H   0  0  0  0  0  0  0  0  0  0  0  0
  1  2  1  0
  1 27  1  0
  1 28  1  0
  1 29  1  0
  2  3  2  0
  2  4  1  0
  4  5  1  0
  5 26  1  0
  5  6  1  0
  5 30  1  1
  6  7  1  0
  6  8  1  0
  6 31  1  1
  7 32  1  0
  8 21  1  0
  8 26  1  0
  8  9  1  6
  9 10  2  0
  9 33  1  0
 10 11  1  0
 10 12  1  0
 11 34  1  0
 11 35  1  0
 11 36  1  0
 12 13  1  1
 12 14  1  0
 12 26  1  0
 13 37  1  0
 13 38  1  0
 13 39  1  0
 14 15  1  0
 14 16  1  0
 14 40  1  1
 15 41  1  0
 15 42  1  0
 15 43  1  0
 16 17  1  0
 16 18  1  0
 16 44  1  1
 17 45  1  0
 18 23  1  0
 18 19  1  0
 18 46  1  6
 19 20  1  0
 19 23  1  0
 19 47  1  6
 20 21  1  0
 20 48  1  0
 20 49  1  0
 21 22  1  0
 21 50  1  1
 22 51  1  0
 22 52  1  0
 22 53  1  0
 23 24  1  0
 23 25  1  0
 24 54  1  0
 24 55  1  0
 24 56  1  0
 25 57  1  0
 25 58  1  0
 25 59  1  0
 26 60  1  6
M  END
>  <i_m_ct_stereo_status>  (291) 
1

>  <s_m_source_file>  (291) 
/var/tmp/pbs.5076255.sched01/tmpr9sv22dd/120oksnzf6p.sdf

>  <i_m_source_file_index>  (291) 
1

>  <i_lp_mmshare_version>  (291) 
48012

>  <i_f3d_flags>  (291) 
0

>  <s_epik_input>  (291) 
W0NIM11DKD1PKU9bQ0BIXShbQ0BIXTFbT0hdKVtDQEhdKFtDQF0xMjMpW0NAQF0oW0NIM10pKEMoPVtDSF0yKVtDSDNdKVtDQEBIXShbQ0gzXSlbQ0BASF0oW09IXSlbQ0BIXTRbQ0BIXShDNChbQ0gzXSlbQ0gzXSlbQ0gyXVtDQEhdM1tDSDNd

>  <s_epik_cmdline>  (291) 
J2VwaWtfcHl0aG9uJywgJy1waHQnLCAnMi4wJywgJy1waCcsICc3LjAnLCAnLXRuJywgJzgnLCAnLW1hJywgJzIwMCcsICctaW1hZScsICc8aW5maWxlLm1hZT4nLCAnLW9tYWUnLCAnPG91dGZpbGUubWFlPic=

>  <r_lp_tautomer_probability>  (291) 
1

>  <r_epik_Ionization_Penalty>  (291) 
9.58672e-07

>  <r_epik_Ionization_Penalty_Charging>  (291) 
0

>  <r_epik_Ionization_Penalty_Neutral>  (291) 
9.58672e-07

>  <r_epik_State_Penalty>  (291) 
-0

>  <r_epik_Charging_Adjusted_Penalty>  (291) 
0

>  <i_epik_Tot_Q>  (291) 
0

>  <i_epik_Tot_abs_Q>  (291) 
0

>  <s_epik_Chemistry_Notes>  (291) 
This compound has an ester and may undergo hydrolysis at high or low pH.

>  <s_lp_Force_Field>  (291) 
OPLS3e

>  <r_lp_Energy>  (291) 
49.6892

>  <b_lp_Chiralities_Consistent>  (291) 
1

>  <s_lp_Variant>  (291) 
89:0-1

>  <s_i_glide_gridfile>  (291) 
pfpi4k_grid

>  <i_i_glide_lignum>  (291) 
1

>  <i_i_glide_rotatable_bonds>  (291) 
4

>  <r_i_docking_score>  (291) 
-2.39943

>  <r_i_glide_ligand_efficiency>  (291) 
-0.0922857

>  <r_i_glide_ligand_efficiency_sa>  (291) 
-0.273396

>  <r_i_glide_ligand_efficiency_ln>  (291) 
-0.563498

>  <r_i_glide_gscore>  (291) 
-2.39943

>  <r_i_glide_lipo>  (291) 
-0.716972

>  <r_i_glide_hbond>  (291) 
-0.0497587

>  <r_i_glide_metal>  (291) 
-0

>  <r_i_glide_rewards>  (291) 
-0.93748

>  <r_i_glide_evdw>  (291) 
-10.1549

>  <r_i_glide_ecoul>  (291) 
-2.22402

>  <r_i_glide_erotb>  (291) 
0.14613

>  <r_i_glide_esite>  (291) 
0

>  <r_i_glide_emodel>  (291) 
-9.71328

>  <r_i_glide_energy>  (291) 
-12.379

>  <r_i_glide_einternal>  (291) 
1.73257

>  <r_i_glide_intrahb_reward>  (291) 
-0

>  <i_i_glide_confnum>  (291) 
1

>  <i_i_glide_posenum>  (291) 
29

>  <r_i_glide_eff_state_penalty>  (291) 
0

>  <ligand_id>  (291) 
89

>  <original_smiles>  (291) 
CC(=O)OC1C(O)C23C=C(C)C(C)(C(C)C(O)C4C(CC2C)C4(C)C)C13

>  <smiles>  (291) 
[H]OC1([H])C([H])(C([H])([H])[H])C2(C([H])([H])[H])C(C([H])([H])[H])=C([H])C3(C([H])(O[H])C([H])(OC(=O)C([H])([H])[H])C23[H])C([H])(C([H])([H])[H])C([H])([H])C2([H])C1([H])C2(C([H])([H])[H])C([H])([H])[H]

$$$$
90:0:0
     RDKit          3D

 17 18  0  0  1  0  0  0  0  0999 V2000
  -10.4179   -4.7953   -7.6730 C   0  0  0  0  0  0  0  0  0  0  0  0
   -9.1985   -5.0555   -6.8157 C   0  0  0  0  0  0  0  0  0  0  0  0
   -8.8724   -4.1936   -5.7412 C   0  0  0  0  0  0  0  0  0  0  0  0
   -7.7598   -4.4869   -4.9857 C   0  0  0  0  0  0  0  0  0  0  0  0
   -7.0331   -5.5952   -5.3104 N   0  0  0  0  0  0  0  0  0  0  0  0
   -5.8890   -6.1598   -4.7703 C   0  0  0  0  0  0  0  0  0  0  0  0
   -5.6172   -7.2765   -5.5140 C   0  0  0  0  0  0  0  0  0  0  0  0
   -6.5633   -7.4373   -6.5217 N   0  0  0  0  0  0  0  0  0  0  0  0
   -7.4129   -6.4164   -6.4003 C   0  0  0  0  0  0  0  0  0  0  0  0
   -8.4894   -6.1268   -7.1517 N   0  0  0  0  0  0  0  0  0  0  0  0
  -10.9499   -3.9008   -7.3451 H   0  0  0  0  0  0  0  0  0  0  0  0
  -11.1073   -5.6409   -7.6226 H   0  0  0  0  0  0  0  0  0  0  0  0
  -10.1148   -4.6684   -8.7136 H   0  0  0  0  0  0  0  0  0  0  0  0
   -9.4816   -3.3229   -5.5063 H   0  0  0  0  0  0  0  0  0  0  0  0
   -7.4259   -3.8897   -4.1424 H   0  0  0  0  0  0  0  0  0  0  0  0
   -5.4044   -5.7045   -3.9210 H   0  0  0  0  0  0  0  0  0  0  0  0
   -4.8062   -7.9845   -5.4049 H   0  0  0  0  0  0  0  0  0  0  0  0
  1  2  1  0
  1 11  1  0
  1 12  1  0
  1 13  1  0
  2 10  2  0
  2  3  1  0
  3  4  2  0
  3 14  1  0
  4  5  1  0
  4 15  1  0
  5  9  1  0
  5  6  1  0
  6  7  2  0
  6 16  1  0
  7  8  1  0
  7 17  1  0
  8  9  2  0
  9 10  1  0
M  END
>  <i_m_ct_stereo_status>  (292) 
1

>  <s_m_source_file>  (292) 
/var/tmp/pbs.5076255.sched01/tmpr9sv22dd/120oksnzf6p.sdf

>  <i_m_source_file_index>  (292) 
2

>  <i_lp_mmshare_version>  (292) 
48012

>  <i_f3d_flags>  (292) 
0

>  <s_epik_input>  (292) 
W2NIXTFbY0hdYyhbQ0gzXSluYyhuMTIpbltjSF1bY0hdMg==

>  <s_epik_cmdline>  (292) 
J2VwaWtfcHl0aG9uJywgJy1waHQnLCAnMi4wJywgJy1waCcsICc3LjAnLCAnLXRuJywgJzgnLCAnLW1hJywgJzIwMCcsICctaW1hZScsICc8aW5maWxlLm1hZT4nLCAnLW9tYWUnLCAnPG91dGZpbGUubWFlPic=

>  <r_epik_Ionization_Penalty>  (292) 
0.00060519

>  <r_epik_Ionization_Penalty_Charging>  (292) 
0.00060519

>  <r_epik_Ionization_Penalty_Neutral>  (292) 
6.30848e-12

>  <r_epik_State_Penalty>  (292) 
0.000381387

>  <r_epik_Charging_Adjusted_Penalty>  (292) 
0.000986577

>  <i_epik_Tot_Q>  (292) 
0

>  <i_epik_Tot_abs_Q>  (292) 
0

>  <s_lp_Force_Field>  (292) 
OPLS3e

>  <r_lp_Energy>  (292) 
13.85

>  <b_lp_Chiralities_Consistent>  (292) 
1

>  <s_lp_Variant>  (292) 
90:0-1

>  <s_i_glide_gridfile>  (292) 
pfpi4k_grid

>  <i_i_glide_lignum>  (292) 
2

>  <i_i_glide_rotatable_bonds>  (292) 
0

>  <r_i_docking_score>  (292) 
-5.68584

>  <r_i_glide_ligand_efficiency>  (292) 
-0.568584

>  <r_i_glide_ligand_efficiency_sa>  (292) 
-1.22498

>  <r_i_glide_ligand_efficiency_ln>  (292) 
-1.72163

>  <r_i_glide_gscore>  (292) 
-5.68584

>  <r_i_glide_lipo>  (292) 
-1.55596

>  <r_i_glide_hbond>  (292) 
0

>  <r_i_glide_metal>  (292) 
-0

>  <r_i_glide_rewards>  (292) 
-3.12322

>  <r_i_glide_evdw>  (292) 
-20.2493

>  <r_i_glide_ecoul>  (292) 
0.0386741

>  <r_i_glide_erotb>  (292) 
0

>  <r_i_glide_esite>  (292) 
0

>  <r_i_glide_emodel>  (292) 
-29.4127

>  <r_i_glide_energy>  (292) 
-20.2107

>  <r_i_glide_einternal>  (292) 
0

>  <r_i_glide_intrahb_reward>  (292) 
-0

>  <i_i_glide_confnum>  (292) 
2

>  <i_i_glide_posenum>  (292) 
2

>  <r_i_glide_eff_state_penalty>  (292) 
0

>  <ligand_id>  (292) 
90

>  <original_smiles>  (292) 
Cc1ccn2ccnc2n1

>  <smiles>  (292) 
[H]c1nc2nc(C([H])([H])[H])c([H])c([H])n2c1[H]

$$$$
90:0:1
     RDKit          3D

 17 18  0  0  1  0  0  0  0  0999 V2000
    3.2334   -5.6660    0.6548 C   0  0  0  0  0  0  0  0  0  0  0  0
    2.3498   -6.6923    1.3316 C   0  0  0  0  0  0  0  0  0  0  0  0
    2.8701   -7.9560    1.7076 C   0  0  0  0  0  0  0  0  0  0  0  0
    2.0325   -8.8631    2.3182 C   0  0  0  0  0  0  0  0  0  0  0  0
    0.7410   -8.4902    2.5385 N   0  0  0  0  0  0  0  0  0  0  0  0
   -0.3402   -9.1292    3.1234 C   0  0  0  0  0  0  0  0  0  0  0  0
   -1.3876   -8.2530    3.0661 C   0  0  0  0  0  0  0  0  0  0  0  0
   -0.9962   -7.0554    2.4785 N   0  0  0  0  0  0  0  0  0  0  0  0
    0.2835   -7.2101    2.1395 C   0  0  0  0  0  0  0  0  0  0  0  0
    1.0882   -6.3220    1.5270 N   0  0  0  0  0  0  0  0  0  0  0  0
    4.2462   -6.0462    0.5149 H   0  0  0  0  0  0  0  0  0  0  0  0
    3.2847   -4.7570    1.2568 H   0  0  0  0  0  0  0  0  0  0  0  0
    2.8227   -5.4102   -0.3204 H   0  0  0  0  0  0  0  0  0  0  0  0
    3.9038   -8.2218    1.5184 H   0  0  0  0  0  0  0  0  0  0  0  0
    2.3367   -9.8564    2.6403 H   0  0  0  0  0  0  0  0  0  0  0  0
   -0.2605  -10.1315    3.5211 H   0  0  0  0  0  0  0  0  0  0  0  0
   -2.4015   -8.3891    3.4138 H   0  0  0  0  0  0  0  0  0  0  0  0
  1  2  1  0
  1 11  1  0
  1 12  1  0
  1 13  1  0
  2 10  2  0
  2  3  1  0
  3  4  2  0
  3 14  1  0
  4  5  1  0
  4 15  1  0
  5  9  1  0
  5  6  1  0
  6  7  2  0
  6 16  1  0
  7  8  1  0
  7 17  1  0
  8  9  2  0
  9 10  1  0
M  END
>  <i_m_ct_stereo_status>  (293) 
1

>  <s_m_source_file>  (293) 
/var/tmp/pbs.5076255.sched01/tmpr9sv22dd/120oksnzf6p.sdf

>  <i_m_source_file_index>  (293) 
2

>  <i_lp_mmshare_version>  (293) 
48012

>  <i_f3d_flags>  (293) 
0

>  <s_epik_input>  (293) 
W2NIXTFbY0hdYyhbQ0gzXSluYyhuMTIpbltjSF1bY0hdMg==

>  <s_epik_cmdline>  (293) 
J2VwaWtfcHl0aG9uJywgJy1waHQnLCAnMi4wJywgJy1waCcsICc3LjAnLCAnLXRuJywgJzgnLCAnLW1hJywgJzIwMCcsICctaW1hZScsICc8aW5maWxlLm1hZT4nLCAnLW9tYWUnLCAnPG91dGZpbGUubWFlPic=

>  <r_epik_Ionization_Penalty>  (293) 
0.00060519

>  <r_epik_Ionization_Penalty_Charging>  (293) 
0.00060519

>  <r_epik_Ionization_Penalty_Neutral>  (293) 
6.30848e-12

>  <r_epik_State_Penalty>  (293) 
0.000381387

>  <r_epik_Charging_Adjusted_Penalty>  (293) 
0.000986577

>  <i_epik_Tot_Q>  (293) 
0

>  <i_epik_Tot_abs_Q>  (293) 
0

>  <s_lp_Force_Field>  (293) 
OPLS3e

>  <r_lp_Energy>  (293) 
13.85

>  <b_lp_Chiralities_Consistent>  (293) 
1

>  <s_lp_Variant>  (293) 
90:0-1

>  <s_i_glide_gridfile>  (293) 
pfpi4k_grid

>  <i_i_glide_lignum>  (293) 
2

>  <i_i_glide_rotatable_bonds>  (293) 
0

>  <r_i_docking_score>  (293) 
-4.21122

>  <r_i_glide_ligand_efficiency>  (293) 
-0.421122

>  <r_i_glide_ligand_efficiency_sa>  (293) 
-0.907279

>  <r_i_glide_ligand_efficiency_ln>  (293) 
-1.27513

>  <r_i_glide_gscore>  (293) 
-4.21122

>  <r_i_glide_lipo>  (293) 
-0.0126054

>  <r_i_glide_hbond>  (293) 
-0.257517

>  <r_i_glide_metal>  (293) 
-0

>  <r_i_glide_rewards>  (293) 
-2.25

>  <r_i_glide_evdw>  (293) 
-14.8845

>  <r_i_glide_ecoul>  (293) 
-5.66319

>  <r_i_glide_erotb>  (293) 
0

>  <r_i_glide_esite>  (293) 
-0.0973912

>  <r_i_glide_emodel>  (293) 
-27.3625

>  <r_i_glide_energy>  (293) 
-20.5477

>  <r_i_glide_einternal>  (293) 
0

>  <r_i_glide_intrahb_reward>  (293) 
-0

>  <i_i_glide_confnum>  (293) 
2

>  <i_i_glide_posenum>  (293) 
10

>  <r_i_glide_eff_state_penalty>  (293) 
0

>  <ligand_id>  (293) 
90

>  <original_smiles>  (293) 
Cc1ccn2ccnc2n1

>  <smiles>  (293) 
[H]c1nc2nc(C([H])([H])[H])c([H])c([H])n2c1[H]

$$$$
90:0:2
     RDKit          3D

 17 18  0  0  1  0  0  0  0  0999 V2000
    0.5050   -5.7200    7.2479 C   0  0  0  0  0  0  0  0  0  0  0  0
    0.2610   -6.7803    6.1946 C   0  0  0  0  0  0  0  0  0  0  0  0
    0.5558   -8.1403    6.4584 C   0  0  0  0  0  0  0  0  0  0  0  0
    0.3059   -9.0696    5.4731 C   0  0  0  0  0  0  0  0  0  0  0  0
   -0.2038   -8.6237    4.2905 N   0  0  0  0  0  0  0  0  0  0  0  0
   -0.5510   -9.2688    3.1166 C   0  0  0  0  0  0  0  0  0  0  0  0
   -1.0152   -8.3081    2.2653 C   0  0  0  0  0  0  0  0  0  0  0  0
   -0.9861   -7.0561    2.8718 N   0  0  0  0  0  0  0  0  0  0  0  0
   -0.4816   -7.2504    4.0918 C   0  0  0  0  0  0  0  0  0  0  0  0
   -0.2497   -6.3367    5.0515 N   0  0  0  0  0  0  0  0  0  0  0  0
    0.9139   -6.1551    8.1616 H   0  0  0  0  0  0  0  0  0  0  0  0
   -0.4298   -5.2129    7.4966 H   0  0  0  0  0  0  0  0  0  0  0  0
    1.2120   -4.9757    6.8749 H   0  0  0  0  0  0  0  0  0  0  0  0
    0.9643   -8.4641    7.4107 H   0  0  0  0  0  0  0  0  0  0  0  0
    0.4865  -10.1367    5.5812 H   0  0  0  0  0  0  0  0  0  0  0  0
   -0.4427  -10.3385    3.0268 H   0  0  0  0  0  0  0  0  0  0  0  0
   -1.3801   -8.4220    1.2556 H   0  0  0  0  0  0  0  0  0  0  0  0
  1  2  1  0
  1 11  1  0
  1 12  1  0
  1 13  1  0
  2 10  2  0
  2  3  1  0
  3  4  2  0
  3 14  1  0
  4  5  1  0
  4 15  1  0
  5  9  1  0
  5  6  1  0
  6  7  2  0
  6 16  1  0
  7  8  1  0
  7 17  1  0
  8  9  2  0
  9 10  1  0
M  END
>  <i_m_ct_stereo_status>  (294) 
1

>  <s_m_source_file>  (294) 
/var/tmp/pbs.5076255.sched01/tmpr9sv22dd/120oksnzf6p.sdf

>  <i_m_source_file_index>  (294) 
2

>  <i_lp_mmshare_version>  (294) 
48012

>  <i_f3d_flags>  (294) 
0

>  <s_epik_input>  (294) 
W2NIXTFbY0hdYyhbQ0gzXSluYyhuMTIpbltjSF1bY0hdMg==

>  <s_epik_cmdline>  (294) 
J2VwaWtfcHl0aG9uJywgJy1waHQnLCAnMi4wJywgJy1waCcsICc3LjAnLCAnLXRuJywgJzgnLCAnLW1hJywgJzIwMCcsICctaW1hZScsICc8aW5maWxlLm1hZT4nLCAnLW9tYWUnLCAnPG91dGZpbGUubWFlPic=

>  <r_epik_Ionization_Penalty>  (294) 
0.00060519

>  <r_epik_Ionization_Penalty_Charging>  (294) 
0.00060519

>  <r_epik_Ionization_Penalty_Neutral>  (294) 
6.30848e-12

>  <r_epik_State_Penalty>  (294) 
0.000381387

>  <r_epik_Charging_Adjusted_Penalty>  (294) 
0.000986577

>  <i_epik_Tot_Q>  (294) 
0

>  <i_epik_Tot_abs_Q>  (294) 
0

>  <s_lp_Force_Field>  (294) 
OPLS3e

>  <r_lp_Energy>  (294) 
13.85

>  <b_lp_Chiralities_Consistent>  (294) 
1

>  <s_lp_Variant>  (294) 
90:0-1

>  <s_i_glide_gridfile>  (294) 
pfpi4k_grid

>  <i_i_glide_lignum>  (294) 
2

>  <i_i_glide_rotatable_bonds>  (294) 
0

>  <r_i_docking_score>  (294) 
-3.72195

>  <r_i_glide_ligand_efficiency>  (294) 
-0.372195

>  <r_i_glide_ligand_efficiency_sa>  (294) 
-0.80187

>  <r_i_glide_ligand_efficiency_ln>  (294) 
-1.12698

>  <r_i_glide_gscore>  (294) 
-3.72195

>  <r_i_glide_lipo>  (294) 
0

>  <r_i_glide_hbond>  (294) 
-0.16

>  <r_i_glide_metal>  (294) 
-0

>  <r_i_glide_rewards>  (294) 
-2.25

>  <r_i_glide_evdw>  (294) 
-12.8519

>  <r_i_glide_ecoul>  (294) 
-3.76361

>  <r_i_glide_erotb>  (294) 
0

>  <r_i_glide_esite>  (294) 
-0.104817

>  <r_i_glide_emodel>  (294) 
-22.6383

>  <r_i_glide_energy>  (294) 
-16.6155

>  <r_i_glide_einternal>  (294) 
0

>  <r_i_glide_intrahb_reward>  (294) 
-0

>  <i_i_glide_confnum>  (294) 
2

>  <i_i_glide_posenum>  (294) 
5

>  <r_i_glide_eff_state_penalty>  (294) 
0

>  <ligand_id>  (294) 
90

>  <original_smiles>  (294) 
Cc1ccn2ccnc2n1

>  <smiles>  (294) 
[H]c1nc2nc(C([H])([H])[H])c([H])c([H])n2c1[H]

$$$$
92:0:0
     RDKit          3D

 25 29  0  0  1  0  0  0  0  0999 V2000
    2.2234   -3.2127   -2.1777 C   0  0  0  0  0  0  0  0  0  0  0  0
    2.8108   -2.7250   -3.5238 C   0  0  0  0  0  0  0  0  0  0  0  0
    4.2761   -2.3827   -3.3541 C   0  0  1  0  0  0  0  0  0  0  0  0
    4.5971   -1.4109   -2.1767 C   0  0  1  0  0  0  0  0  0  0  0  0
    3.7753   -1.6150   -0.8641 C   0  0  2  0  0  0  0  0  0  0  0  0
    4.8530   -1.8242    0.2266 C   0  0  0  0  0  0  0  0  0  0  0  0
    5.6028   -2.8941   -0.5287 C   0  0  1  0  0  0  0  0  0  0  0  0
    4.5295   -3.8049   -1.1848 C   0  0  1  0  0  0  0  0  0  0  0  0
    3.2014   -3.0594   -0.9750 C   0  0  2  0  0  0  0  0  0  0  0  0
    5.0876   -3.4323   -2.5716 C   0  0  2  0  0  0  0  0  0  0  0  0
    5.8198   -2.2943   -1.9033 C   0  0  1  0  0  0  0  0  0  0  0  0
    1.8991   -4.2505   -2.2633 H   0  0  0  0  0  0  0  0  0  0  0  0
    1.3150   -2.6638   -1.9766 H   0  0  0  0  0  0  0  0  0  0  0  0
    2.6770   -3.4849   -4.2854 H   0  0  0  0  0  0  0  0  0  0  0  0
    2.2609   -1.8550   -3.8720 H   0  0  0  0  0  0  0  0  0  0  0  0
    4.7873   -2.0594   -4.2616 H   0  0  0  0  0  0  0  0  0  0  0  0
    4.8623   -0.3959   -2.4573 H   0  0  0  0  0  0  0  0  0  0  0  0
    3.0313   -0.8404   -0.6574 H   0  0  0  0  0  0  0  0  0  0  0  0
    5.4472   -0.9331    0.3954 H   0  0  0  0  0  0  0  0  0  0  0  0
    4.4438   -2.1679    1.1738 H   0  0  0  0  0  0  0  0  0  0  0  0
    6.4623   -3.4071   -0.0895 H   0  0  0  0  0  0  0  0  0  0  0  0
    4.5861   -4.8678   -0.9532 H   0  0  0  0  0  0  0  0  0  0  0  0
    2.7178   -3.3724   -0.0468 H   0  0  0  0  0  0  0  0  0  0  0  0
    5.7386   -4.1384   -3.0903 H   0  0  0  0  0  0  0  0  0  0  0  0
    6.8065   -2.0521   -2.2981 H   0  0  0  0  0  0  0  0  0  0  0  0
  1  9  1  0
  1  2  1  0
  1 12  1  0
  1 13  1  0
  2  3  1  0
  2 14  1  0
  2 15  1  0
  3 10  1  0
  3  4  1  0
  3 16  1  6
  4 11  1  0
  4  5  1  0
  4 17  1  6
  5  9  1  0
  5  6  1  0
  5 18  1  1
  6  7  1  0
  6 19  1  0
  6 20  1  0
  7 11  1  0
  7  8  1  0
  7 21  1  1
  8  9  1  0
  8 10  1  0
  8 22  1  1
  9 23  1  1
 10 11  1  0
 10 24  1  6
 11 25  1  6
M  END
>  <i_m_ct_stereo_status>  (295) 
1

>  <s_m_source_file>  (295) 
/var/tmp/pbs.5076255.sched01/tmpr9sv22dd/120oksnzf6p.sdf

>  <i_m_source_file_index>  (295) 
4

>  <i_lp_mmshare_version>  (295) 
48012

>  <i_f3d_flags>  (295) 
0

>  <s_epik_input>  (295) 
W0NAQEhdMTJbQ0BIXTNbQ0BIXTRbQ0BASF0oW0NIMl1bQ0gyXTEpW0NAQEhdNVtDQEhdKFtDSDJdNClbQ0BIXTNbQ0BIXTI1

>  <s_epik_cmdline>  (295) 
J2VwaWtfcHl0aG9uJywgJy1waHQnLCAnMi4wJywgJy1waCcsICc3LjAnLCAnLXRuJywgJzgnLCAnLW1hJywgJzIwMCcsICctaW1hZScsICc8aW5maWxlLm1hZT4nLCAnLW9tYWUnLCAnPG91dGZpbGUubWFlPic=

>  <r_lp_tautomer_probability>  (295) 
1

>  <r_epik_Ionization_Penalty>  (295) 
0

>  <r_epik_Ionization_Penalty_Charging>  (295) 
0

>  <r_epik_Ionization_Penalty_Neutral>  (295) 
0

>  <r_epik_State_Penalty>  (295) 
-0

>  <r_epik_Charging_Adjusted_Penalty>  (295) 
0

>  <i_epik_Tot_Q>  (295) 
0

>  <i_epik_Tot_abs_Q>  (295) 
0

>  <s_lp_Force_Field>  (295) 
OPLS3e

>  <r_lp_Energy>  (295) 
70.4751

>  <b_lp_Chiralities_Consistent>  (295) 
1

>  <s_lp_Variant>  (295) 
92:0-1

>  <s_i_glide_gridfile>  (295) 
pfpi4k_grid

>  <i_i_glide_lignum>  (295) 
4

>  <i_i_glide_rotatable_bonds>  (295) 
0

>  <r_i_docking_score>  (295) 
-3.90866

>  <r_i_glide_ligand_efficiency>  (295) 
-0.355333

>  <r_i_glide_ligand_efficiency_sa>  (295) 
-0.790253

>  <r_i_glide_ligand_efficiency_ln>  (295) 
-1.15032

>  <r_i_glide_gscore>  (295) 
-3.90866

>  <r_i_glide_lipo>  (295) 
-0.709694

>  <r_i_glide_hbond>  (295) 
0

>  <r_i_glide_metal>  (295) 
-0

>  <r_i_glide_rewards>  (295) 
-2.25

>  <r_i_glide_evdw>  (295) 
-17.5905

>  <r_i_glide_ecoul>  (295) 
-0.462951

>  <r_i_glide_erotb>  (295) 
0

>  <r_i_glide_esite>  (295) 
0

>  <r_i_glide_emodel>  (295) 
-22.2991

>  <r_i_glide_energy>  (295) 
-18.0535

>  <r_i_glide_einternal>  (295) 
0

>  <r_i_glide_intrahb_reward>  (295) 
-0

>  <i_i_glide_confnum>  (295) 
1

>  <i_i_glide_posenum>  (295) 
1

>  <r_i_glide_eff_state_penalty>  (295) 
0

>  <ligand_id>  (295) 
92

>  <original_smiles>  (295) 
C1CC2C3C4CC5C(C14)C2C53

>  <smiles>  (295) 
[H]C1([H])C([H])([H])C2([H])C3([H])C4([H])C([H])([H])C5([H])C([H])(C14[H])C2([H])C53[H]

$$$$
92:0:1
     RDKit          3D

 25 29  0  0  1  0  0  0  0  0999 V2000
    5.0919   -3.7124   -3.0405 C   0  0  0  0  0  0  0  0  0  0  0  0
    3.8846   -2.8468   -3.4872 C   0  0  0  0  0  0  0  0  0  0  0  0
    3.4315   -1.9467   -2.3486 C   0  0  1  0  0  0  0  0  0  0  0  0
    3.1832   -2.6892   -1.0023 C   0  0  1  0  0  0  0  0  0  0  0  0
    4.1684   -3.8404   -0.6422 C   0  0  2  0  0  0  0  0  0  0  0  0
    4.7254   -3.4218    0.7424 C   0  0  0  0  0  0  0  0  0  0  0  0
    5.1026   -2.0162    0.3238 C   0  0  1  0  0  0  0  0  0  0  0  0
    5.7078   -2.1369   -1.1005 C   0  0  1  0  0  0  0  0  0  0  0  0
    5.4192   -3.5832   -1.5286 C   0  0  2  0  0  0  0  0  0  0  0  0
    4.5850   -1.2213   -1.6199 C   0  0  2  0  0  0  0  0  0  0  0  0
    3.8416   -1.4793   -0.3348 C   0  0  1  0  0  0  0  0  0  0  0  0
    5.9777   -3.4353   -3.6098 H   0  0  0  0  0  0  0  0  0  0  0  0
    4.8981   -4.7565   -3.2825 H   0  0  0  0  0  0  0  0  0  0  0  0
    4.1501   -2.2506   -4.3582 H   0  0  0  0  0  0  0  0  0  0  0  0
    3.0640   -3.4935   -3.8001 H   0  0  0  0  0  0  0  0  0  0  0  0
    2.6141   -1.2682   -2.5957 H   0  0  0  0  0  0  0  0  0  0  0  0
    2.1404   -2.8332   -0.7166 H   0  0  0  0  0  0  0  0  0  0  0  0
    3.7547   -4.8451   -0.7060 H   0  0  0  0  0  0  0  0  0  0  0  0
    3.9586   -3.4387    1.5183 H   0  0  0  0  0  0  0  0  0  0  0  0
    5.5747   -4.0230    1.0688 H   0  0  0  0  0  0  0  0  0  0  0  0
    5.6076   -1.3480    1.0234 H   0  0  0  0  0  0  0  0  0  0  0  0
    6.7225   -1.7611   -1.2285 H   0  0  0  0  0  0  0  0  0  0  0  0
    6.2313   -4.2525   -1.2484 H   0  0  0  0  0  0  0  0  0  0  0  0
    4.8010   -0.1752   -1.8468 H   0  0  0  0  0  0  0  0  0  0  0  0
    3.2328   -0.6822    0.1009 H   0  0  0  0  0  0  0  0  0  0  0  0
  1  9  1  0
  1  2  1  0
  1 12  1  0
  1 13  1  0
  2  3  1  0
  2 14  1  0
  2 15  1  0
  3 10  1  0
  3  4  1  0
  3 16  1  6
  4 11  1  0
  4  5  1  0
  4 17  1  1
  5  9  1  0
  5  6  1  0
  5 18  1  1
  6  7  1  0
  6 19  1  0
  6 20  1  0
  7 11  1  0
  7  8  1  0
  7 21  1  1
  8  9  1  0
  8 10  1  0
  8 22  1  1
  9 23  1  1
 10 11  1  0
 10 24  1  6
 11 25  1  1
M  END
>  <i_m_ct_stereo_status>  (296) 
1

>  <s_m_source_file>  (296) 
/var/tmp/pbs.5076255.sched01/tmpr9sv22dd/120oksnzf6p.sdf

>  <i_m_source_file_index>  (296) 
4

>  <i_lp_mmshare_version>  (296) 
48012

>  <i_f3d_flags>  (296) 
0

>  <s_epik_input>  (296) 
W0NAQEhdMTJbQ0BIXTNbQ0BIXTRbQ0BASF0oW0NIMl1bQ0gyXTEpW0NAQEhdNVtDQEhdKFtDSDJdNClbQ0BIXTNbQ0BIXTI1

>  <s_epik_cmdline>  (296) 
J2VwaWtfcHl0aG9uJywgJy1waHQnLCAnMi4wJywgJy1waCcsICc3LjAnLCAnLXRuJywgJzgnLCAnLW1hJywgJzIwMCcsICctaW1hZScsICc8aW5maWxlLm1hZT4nLCAnLW9tYWUnLCAnPG91dGZpbGUubWFlPic=

>  <r_lp_tautomer_probability>  (296) 
1

>  <r_epik_Ionization_Penalty>  (296) 
0

>  <r_epik_Ionization_Penalty_Charging>  (296) 
0

>  <r_epik_Ionization_Penalty_Neutral>  (296) 
0

>  <r_epik_State_Penalty>  (296) 
-0

>  <r_epik_Charging_Adjusted_Penalty>  (296) 
0

>  <i_epik_Tot_Q>  (296) 
0

>  <i_epik_Tot_abs_Q>  (296) 
0

>  <s_lp_Force_Field>  (296) 
OPLS3e

>  <r_lp_Energy>  (296) 
70.4751

>  <b_lp_Chiralities_Consistent>  (296) 
1

>  <s_lp_Variant>  (296) 
92:0-1

>  <s_i_glide_gridfile>  (296) 
pfpi4k_grid

>  <i_i_glide_lignum>  (296) 
4

>  <i_i_glide_rotatable_bonds>  (296) 
0

>  <r_i_docking_score>  (296) 
-3.47849

>  <r_i_glide_ligand_efficiency>  (296) 
-0.316226

>  <r_i_glide_ligand_efficiency_sa>  (296) 
-0.703281

>  <r_i_glide_ligand_efficiency_ln>  (296) 
-1.02372

>  <r_i_glide_gscore>  (296) 
-3.47849

>  <r_i_glide_lipo>  (296) 
-0.419064

>  <r_i_glide_hbond>  (296) 
0

>  <r_i_glide_metal>  (296) 
-0

>  <r_i_glide_rewards>  (296) 
-2.25

>  <r_i_glide_evdw>  (296) 
-17.1777

>  <r_i_glide_ecoul>  (296) 
0.329722

>  <r_i_glide_erotb>  (296) 
0

>  <r_i_glide_esite>  (296) 
0

>  <r_i_glide_emodel>  (296) 
-20.6311

>  <r_i_glide_energy>  (296) 
-16.848

>  <r_i_glide_einternal>  (296) 
0

>  <r_i_glide_intrahb_reward>  (296) 
-0

>  <i_i_glide_confnum>  (296) 
1

>  <i_i_glide_posenum>  (296) 
15

>  <r_i_glide_eff_state_penalty>  (296) 
0

>  <ligand_id>  (296) 
92

>  <original_smiles>  (296) 
C1CC2C3C4CC5C(C14)C2C53

>  <smiles>  (296) 
[H]C1([H])C([H])([H])C2([H])C3([H])C4([H])C([H])([H])C5([H])C([H])(C14[H])C2([H])C53[H]

$$$$
92:0:2
     RDKit          3D

 25 29  0  0  1  0  0  0  0  0999 V2000
    3.0801   -3.9214   -0.3848 C   0  0  0  0  0  0  0  0  0  0  0  0
    3.1635   -2.9617   -1.5995 C   0  0  0  0  0  0  0  0  0  0  0  0
    4.3312   -2.0081   -1.4322 C   0  0  1  0  0  0  0  0  0  0  0  0
    4.3615   -1.2701   -0.0541 C   0  0  1  0  0  0  0  0  0  0  0  0
    3.9487   -2.0966    1.1973 C   0  0  2  0  0  0  0  0  0  0  0  0
    5.1766   -1.9882    2.1357 C   0  0  0  0  0  0  0  0  0  0  0  0
    6.1819   -2.3984    1.0893 C   0  0  1  0  0  0  0  0  0  0  0  0
    5.5327   -3.5465    0.2774 C   0  0  1  0  0  0  0  0  0  0  0  0
    4.0703   -3.5781    0.7489 C   0  0  2  0  0  0  0  0  0  0  0  0
    5.6381   -2.6805   -0.9904 C   0  0  2  0  0  0  0  0  0  0  0  0
    5.8785   -1.4948   -0.0792 C   0  0  1  0  0  0  0  0  0  0  0  0
    3.2754   -4.9386   -0.7170 H   0  0  0  0  0  0  0  0  0  0  0  0
    2.0635   -3.9223    0.0075 H   0  0  0  0  0  0  0  0  0  0  0  0
    3.2593   -3.5273   -2.5222 H   0  0  0  0  0  0  0  0  0  0  0  0
    2.2336   -2.4044   -1.6970 H   0  0  0  0  0  0  0  0  0  0  0  0
    4.4943   -1.3043   -2.2575 H   0  0  0  0  0  0  0  0  0  0  0  0
    4.1088   -0.2146   -0.0808 H   0  0  0  0  0  0  0  0  0  0  0  0
    2.9854   -1.8139    1.6314 H   0  0  0  0  0  0  0  0  0  0  0  0
    5.3382   -0.9765    2.4933 H   0  0  0  0  0  0  0  0  0  0  0  0
    5.1347   -2.6683    2.9857 H   0  0  0  0  0  0  0  0  0  0  0  0
    7.2459   -2.5206    1.3167 H   0  0  0  0  0  0  0  0  0  0  0  0
    6.0958   -4.4743    0.2298 H   0  0  0  0  0  0  0  0  0  0  0  0
    3.9526   -4.2605    1.5865 H   0  0  0  0  0  0  0  0  0  0  0  0
    6.4407   -2.8695   -1.7075 H   0  0  0  0  0  0  0  0  0  0  0  0
    6.5535   -0.7013   -0.3884 H   0  0  0  0  0  0  0  0  0  0  0  0
  1  9  1  0
  1  2  1  0
  1 12  1  0
  1 13  1  0
  2  3  1  0
  2 14  1  0
  2 15  1  0
  3 10  1  0
  3  4  1  0
  3 16  1  6
  4 11  1  0
  4  5  1  0
  4 17  1  6
  5  9  1  0
  5  6  1  0
  5 18  1  1
  6  7  1  0
  6 19  1  0
  6 20  1  0
  7 11  1  0
  7  8  1  0
  7 21  1  1
  8  9  1  0
  8 10  1  0
  8 22  1  6
  9 23  1  1
 10 11  1  0
 10 24  1  6
 11 25  1  6
M  END
>  <i_m_ct_stereo_status>  (297) 
1

>  <s_m_source_file>  (297) 
/var/tmp/pbs.5076255.sched01/tmpr9sv22dd/120oksnzf6p.sdf

>  <i_m_source_file_index>  (297) 
4

>  <i_lp_mmshare_version>  (297) 
48012

>  <i_f3d_flags>  (297) 
0

>  <s_epik_input>  (297) 
W0NAQEhdMTJbQ0BIXTNbQ0BIXTRbQ0BASF0oW0NIMl1bQ0gyXTEpW0NAQEhdNVtDQEhdKFtDSDJdNClbQ0BIXTNbQ0BIXTI1

>  <s_epik_cmdline>  (297) 
J2VwaWtfcHl0aG9uJywgJy1waHQnLCAnMi4wJywgJy1waCcsICc3LjAnLCAnLXRuJywgJzgnLCAnLW1hJywgJzIwMCcsICctaW1hZScsICc8aW5maWxlLm1hZT4nLCAnLW9tYWUnLCAnPG91dGZpbGUubWFlPic=

>  <r_lp_tautomer_probability>  (297) 
1

>  <r_epik_Ionization_Penalty>  (297) 
0

>  <r_epik_Ionization_Penalty_Charging>  (297) 
0

>  <r_epik_Ionization_Penalty_Neutral>  (297) 
0

>  <r_epik_State_Penalty>  (297) 
-0

>  <r_epik_Charging_Adjusted_Penalty>  (297) 
0

>  <i_epik_Tot_Q>  (297) 
0

>  <i_epik_Tot_abs_Q>  (297) 
0

>  <s_lp_Force_Field>  (297) 
OPLS3e

>  <r_lp_Energy>  (297) 
70.4751

>  <b_lp_Chiralities_Consistent>  (297) 
1

>  <s_lp_Variant>  (297) 
92:0-1

>  <s_i_glide_gridfile>  (297) 
pfpi4k_grid

>  <i_i_glide_lignum>  (297) 
4

>  <i_i_glide_rotatable_bonds>  (297) 
0

>  <r_i_docking_score>  (297) 
-3.20568

>  <r_i_glide_ligand_efficiency>  (297) 
-0.291425

>  <r_i_glide_ligand_efficiency_sa>  (297) 
-0.648124

>  <r_i_glide_ligand_efficiency_ln>  (297) 
-0.943431

>  <r_i_glide_gscore>  (297) 
-3.20568

>  <r_i_glide_lipo>  (297) 
-0.245138

>  <r_i_glide_hbond>  (297) 
0

>  <r_i_glide_metal>  (297) 
-0

>  <r_i_glide_rewards>  (297) 
-2.25

>  <r_i_glide_evdw>  (297) 
-13.3936

>  <r_i_glide_ecoul>  (297) 
-0.272417

>  <r_i_glide_erotb>  (297) 
0

>  <r_i_glide_esite>  (297) 
0

>  <r_i_glide_emodel>  (297) 
-17.1418

>  <r_i_glide_energy>  (297) 
-13.666

>  <r_i_glide_einternal>  (297) 
0

>  <r_i_glide_intrahb_reward>  (297) 
-0

>  <i_i_glide_confnum>  (297) 
2

>  <i_i_glide_posenum>  (297) 
13

>  <r_i_glide_eff_state_penalty>  (297) 
0

>  <ligand_id>  (297) 
92

>  <original_smiles>  (297) 
C1CC2C3C4CC5C(C14)C2C53

>  <smiles>  (297) 
[H]C1([H])C([H])([H])C2([H])C3([H])C4([H])C([H])([H])C5([H])C([H])(C14[H])C2([H])C53[H]

$$$$
93:0:0
     RDKit          3D

 53 58  0  0  1  0  0  0  0  0999 V2000
    1.0570   -5.4632    2.9891 C   0  0  0  0  0  0  0  0  0  0  0  0
    2.3641   -5.0744    3.6972 C   0  0  2  0  0  0  0  0  0  0  0  0
    2.0490   -4.4078    5.0296 C   0  0  0  0  0  0  0  0  0  0  0  0
    1.1676   -4.7904    5.8010 O   0  0  0  0  0  0  0  0  0  0  0  0
    2.8432   -3.3542    5.2009 O   0  0  0  0  0  0  0  0  0  0  0  0
    3.8267   -3.2760    4.1949 C   0  0  2  0  0  0  0  0  0  0  0  0
    4.2605   -1.8814    3.7735 C   0  0  0  0  0  0  0  0  0  0  0  0
    5.3305   -2.0316    2.6739 C   0  0  0  0  0  0  0  0  0  0  0  0
    4.9639   -2.9678    1.4656 C   0  0  1  0  0  0  0  0  0  0  0  0
    6.2354   -3.1638    0.6944 C   0  0  0  0  0  0  0  0  0  0  0  0
    7.3495   -3.8731    0.8055 N   0  0  0  0  0  0  0  0  0  0  0  0
    8.1274   -3.3614   -0.2399 N   0  0  0  0  0  0  0  0  0  0  0  0
    7.5232   -2.3716   -0.8567 N   0  0  0  0  0  0  0  0  0  0  0  0
    6.3222   -2.2748   -0.2576 N   0  0  0  0  0  0  0  0  0  0  0  0
    5.2485   -1.3423   -0.3808 C   0  0  1  0  0  0  0  0  0  0  0  0
    4.8999   -0.7962   -1.7821 C   0  0  0  0  0  0  0  0  0  0  0  0
    4.1404   -1.7347   -2.7318 C   0  0  1  0  0  0  0  0  0  0  0  0
    5.0167   -2.6189   -3.3833 O   0  0  0  0  0  0  0  0  0  0  0  0
    3.0551   -2.5413   -2.0024 C   0  0  1  0  0  0  0  0  0  0  0  0
    2.2592   -3.4058   -2.9751 C   0  0  0  0  0  0  0  0  0  0  0  0
    3.6454   -3.2526   -0.7570 C   0  0  2  0  0  0  0  0  0  0  0  0
    2.8168   -4.3578   -0.0951 C   0  0  0  0  0  0  0  0  0  0  0  0
    3.7420   -5.1617    0.8230 C   0  0  0  0  0  0  0  0  0  0  0  0
    4.2730   -4.2945    1.9690 C   0  0  2  0  0  0  0  0  0  0  0  0
    3.1701   -3.9625    3.0092 C   0  0  1  0  0  0  0  0  0  0  0  0
    4.1600   -2.2178    0.3142 C   0  0  1  0  0  0  0  0  0  0  0  0
    3.0960   -1.4214    0.8180 O   0  0  0  0  0  0  0  0  0  0  0  0
    0.4630   -6.1706    3.5762 H   0  0  0  0  0  0  0  0  0  0  0  0
    1.2119   -5.9081    2.0033 H   0  0  0  0  0  0  0  0  0  0  0  0
    0.4511   -4.5618    2.8763 H   0  0  0  0  0  0  0  0  0  0  0  0
    2.9730   -5.9538    3.8823 H   0  0  0  0  0  0  0  0  0  0  0  0
    4.6928   -3.8443    4.5363 H   0  0  0  0  0  0  0  0  0  0  0  0
    3.4059   -1.2967    3.4240 H   0  0  0  0  0  0  0  0  0  0  0  0
    4.6700   -1.3422    4.6278 H   0  0  0  0  0  0  0  0  0  0  0  0
    5.6501   -1.0420    2.3489 H   0  0  0  0  0  0  0  0  0  0  0  0
    6.2093   -2.4553    3.1553 H   0  0  0  0  0  0  0  0  0  0  0  0
    5.5117   -0.4927    0.2530 H   0  0  0  0  0  0  0  0  0  0  0  0
    4.2309    0.0414   -1.5911 H   0  0  0  0  0  0  0  0  0  0  0  0
    5.7719   -0.3632   -2.2734 H   0  0  0  0  0  0  0  0  0  0  0  0
    3.6671   -1.1150   -3.4947 H   0  0  0  0  0  0  0  0  0  0  0  0
    5.3491   -3.2248   -2.7298 H   0  0  0  0  0  0  0  0  0  0  0  0
    2.3129   -1.8542   -1.6517 H   0  0  0  0  0  0  0  0  0  0  0  0
    2.8429   -4.2140   -3.4143 H   0  0  0  0  0  0  0  0  0  0  0  0
    1.8634   -2.8114   -3.8000 H   0  0  0  0  0  0  0  0  0  0  0  0
    1.4144   -3.8209   -2.4318 H   0  0  0  0  0  0  0  0  0  0  0  0
    4.4897   -3.8063   -1.1644 H   0  0  0  0  0  0  0  0  0  0  0  0
    1.9625   -3.9430    0.4354 H   0  0  0  0  0  0  0  0  0  0  0  0
    2.4135   -5.0531   -0.8201 H   0  0  0  0  0  0  0  0  0  0  0  0
    3.2340   -6.0399    1.2107 H   0  0  0  0  0  0  0  0  0  0  0  0
    4.5830   -5.5576    0.2502 H   0  0  0  0  0  0  0  0  0  0  0  0
    5.0248   -4.8914    2.4881 H   0  0  0  0  0  0  0  0  0  0  0  0
    2.4547   -3.2699    2.5562 H   0  0  0  0  0  0  0  0  0  0  0  0
    2.4648   -1.2521    0.1229 H   0  0  0  0  0  0  0  0  0  0  0  0
  1  2  1  0
  1 28  1  0
  1 29  1  0
  1 30  1  0
  2 25  1  0
  2  3  1  0
  2 31  1  1
  3  4  2  0
  3  5  1  0
  5  6  1  0
  6 25  1  0
  6  7  1  0
  6 32  1  1
  7  8  1  0
  7 33  1  0
  7 34  1  0
  9  8  1  1
  8 35  1  0
  8 36  1  0
  9 24  1  0
  9 26  1  0
  9 10  1  0
 10 14  1  0
 10 11  2  0
 11 12  1  0
 12 13  2  0
 13 14  1  0
 14 15  1  0
 15 26  1  0
 15 16  1  0
 15 37  1  1
 16 17  1  0
 16 38  1  0
 16 39  1  0
 17 18  1  0
 17 19  1  0
 17 40  1  6
 18 41  1  0
 19 20  1  0
 19 21  1  0
 19 42  1  1
 20 43  1  0
 20 44  1  0
 20 45  1  0
 21 22  1  0
 21 26  1  0
 21 46  1  6
 22 23  1  0
 22 47  1  0
 22 48  1  0
 23 24  1  0
 23 49  1  0
 23 50  1  0
 24 25  1  0
 24 51  1  1
 25 52  1  6
 26 27  1  1
 27 53  1  0
M  END
>  <i_m_ct_stereo_status>  (298) 
1

>  <s_m_source_file>  (298) 
/var/tmp/pbs.5076255.sched01/tmpr9sv22dd/120oksnzf6p.sdf

>  <i_m_source_file_index>  (298) 
5

>  <i_lp_mmshare_version>  (298) 
48012

>  <i_f3d_flags>  (298) 
0

>  <s_epik_input>  (298) 
W0NIM11bQ0BASF0xQyg9TylPW0NASF0oW0NIMl1bQ0gyXTIpW0NASF0xW0NASF0zW0NIMl1bQ0gyXVtDQEBIXShbQ0BIXShbQ0gzXSlbQ0BASF0oW0NIMl00KVtPSF0pW0NAXTUoW09IXSlbQ0BIXTRuKGM2W0NAXTIzNSlubm42

>  <s_epik_cmdline>  (298) 
J2VwaWtfcHl0aG9uJywgJy1waHQnLCAnMi4wJywgJy1waCcsICc3LjAnLCAnLXRuJywgJzgnLCAnLW1hJywgJzIwMCcsICctaW1hZScsICc8aW5maWxlLm1hZT4nLCAnLW9tYWUnLCAnPG91dGZpbGUubWFlPic=

>  <r_lp_tautomer_probability>  (298) 
1

>  <r_epik_Ionization_Penalty>  (298) 
0.000164316

>  <r_epik_Ionization_Penalty_Charging>  (298) 
0

>  <r_epik_Ionization_Penalty_Neutral>  (298) 
0.000164316

>  <r_epik_State_Penalty>  (298) 
-0

>  <r_epik_Charging_Adjusted_Penalty>  (298) 
0

>  <i_epik_Tot_Q>  (298) 
0

>  <i_epik_Tot_abs_Q>  (298) 
0

>  <s_epik_Chemistry_Notes>  (298) 
This compound has an ester and may undergo hydrolysis at high or low pH.

>  <s_lp_Force_Field>  (298) 
OPLS3e

>  <r_lp_Energy>  (298) 
38.3287

>  <b_lp_Chiralities_Consistent>  (298) 
1

>  <s_lp_Variant>  (298) 
93:0-1

>  <s_i_glide_gridfile>  (298) 
pfpi4k_grid

>  <i_i_glide_lignum>  (298) 
5

>  <i_i_glide_rotatable_bonds>  (298) 
2

>  <r_i_docking_score>  (298) 
-3.74151

>  <r_i_glide_ligand_efficiency>  (298) 
-0.138574

>  <r_i_glide_ligand_efficiency_sa>  (298) 
-0.415723

>  <r_i_glide_ligand_efficiency_ln>  (298) 
-0.870962

>  <r_i_glide_gscore>  (298) 
-3.74151

>  <r_i_glide_lipo>  (298) 
-0.388292

>  <r_i_glide_hbond>  (298) 
-0.16

>  <r_i_glide_metal>  (298) 
-0

>  <r_i_glide_rewards>  (298) 
-0.966901

>  <r_i_glide_evdw>  (298) 
-22.3368

>  <r_i_glide_ecoul>  (298) 
-6.84497

>  <r_i_glide_erotb>  (298) 
0

>  <r_i_glide_esite>  (298) 
-0.0827291

>  <r_i_glide_emodel>  (298) 
-35.9025

>  <r_i_glide_energy>  (298) 
-29.1818

>  <r_i_glide_einternal>  (298) 
0.586286

>  <r_i_glide_intrahb_reward>  (298) 
-0

>  <i_i_glide_confnum>  (298) 
2

>  <i_i_glide_posenum>  (298) 
1

>  <r_i_glide_eff_state_penalty>  (298) 
0

>  <ligand_id>  (298) 
93

>  <original_smiles>  (298) 
CC1C(=O)OC2CCC34c5nnnn5C5CC(O)C(C)C(CCC3C21)C54O

>  <smiles>  (298) 
[H]OC1([H])C([H])([H])C2([H])n3nnnc3C34C([H])([H])C([H])([H])C5([H])OC(=O)C([H])(C([H])([H])[H])C5([H])C3([H])C([H])([H])C([H])([H])C([H])(C1([H])C([H])([H])[H])C24O[H]

$$$$
93:0:1
     RDKit          3D

 53 58  0  0  1  0  0  0  0  0999 V2000
    4.2520   -2.8624   -0.6431 C   0  0  0  0  0  0  0  0  0  0  0  0
    5.4643   -3.0314    0.2972 C   0  0  2  0  0  0  0  0  0  0  0  0
    6.7713   -3.0136   -0.4970 C   0  0  0  0  0  0  0  0  0  0  0  0
    7.0034   -2.2481   -1.4309 O   0  0  0  0  0  0  0  0  0  0  0  0
    7.5915   -3.9477   -0.0279 O   0  0  0  0  0  0  0  0  0  0  0  0
    7.0793   -4.5716    1.1278 C   0  0  2  0  0  0  0  0  0  0  0  0
    7.3901   -6.0486    1.3112 C   0  0  0  0  0  0  0  0  0  0  0  0
    6.7566   -6.4944    2.6439 C   0  0  0  0  0  0  0  0  0  0  0  0
    5.2314   -6.1432    2.8466 C   0  0  1  0  0  0  0  0  0  0  0  0
    4.9184   -6.4428    4.2801 C   0  0  0  0  0  0  0  0  0  0  0  0
    5.1266   -5.8723    5.4517 N   0  0  0  0  0  0  0  0  0  0  0  0
    4.6829   -6.8681    6.3364 N   0  0  0  0  0  0  0  0  0  0  0  0
    4.3259   -7.9648    5.7114 N   0  0  0  0  0  0  0  0  0  0  0  0
    4.4623   -7.6646    4.4081 N   0  0  0  0  0  0  0  0  0  0  0  0
    4.3503   -8.4340    3.1985 C   0  0  1  0  0  0  0  0  0  0  0  0
    3.2404   -9.5059    3.0882 C   0  0  0  0  0  0  0  0  0  0  0  0
    1.8096   -8.9858    2.8669 C   0  0  1  0  0  0  0  0  0  0  0  0
    1.2717   -8.5869    4.1110 O   0  0  0  0  0  0  0  0  0  0  0  0
    1.7638   -7.8364    1.8253 C   0  0  1  0  0  0  0  0  0  0  0  0
    0.3198   -7.3491    1.5786 C   0  0  0  0  0  0  0  0  0  0  0  0
    2.7599   -6.7252    2.2460 C   0  0  2  0  0  0  0  0  0  0  0  0
    2.5982   -5.3458    1.5993 C   0  0  0  0  0  0  0  0  0  0  0  0
    3.4267   -4.3292    2.3959 C   0  0  0  0  0  0  0  0  0  0  0  0
    4.9243   -4.6690    2.3765 C   0  0  2  0  0  0  0  0  0  0  0  0
    5.5731   -4.4029    0.9885 C   0  0  1  0  0  0  0  0  0  0  0  0
    4.2531   -7.2260    2.2156 C   0  0  1  0  0  0  0  0  0  0  0  0
    4.6336   -7.6147    0.9081 O   0  0  0  0  0  0  0  0  0  0  0  0
    4.2994   -1.9109   -1.1737 H   0  0  0  0  0  0  0  0  0  0  0  0
    3.3027   -2.8760   -0.1112 H   0  0  0  0  0  0  0  0  0  0  0  0
    4.2196   -3.6518   -1.3945 H   0  0  0  0  0  0  0  0  0  0  0  0
    5.4983   -2.2261    1.0321 H   0  0  0  0  0  0  0  0  0  0  0  0
    7.4484   -4.0111    1.9880 H   0  0  0  0  0  0  0  0  0  0  0  0
    7.0079   -6.6364    0.4818 H   0  0  0  0  0  0  0  0  0  0  0  0
    8.4693   -6.2085    1.3297 H   0  0  0  0  0  0  0  0  0  0  0  0
    6.9499   -7.5591    2.7775 H   0  0  0  0  0  0  0  0  0  0  0  0
    7.3272   -6.0047    3.4358 H   0  0  0  0  0  0  0  0  0  0  0  0
    5.3032   -8.9482    3.0738 H   0  0  0  0  0  0  0  0  0  0  0  0
    3.4877  -10.1013    2.2078 H   0  0  0  0  0  0  0  0  0  0  0  0
    3.2824  -10.2061    3.9268 H   0  0  0  0  0  0  0  0  0  0  0  0
    1.1944   -9.8117    2.5048 H   0  0  0  0  0  0  0  0  0  0  0  0
    1.2049   -9.3538    4.6634 H   0  0  0  0  0  0  0  0  0  0  0  0
    2.1006   -8.2516    0.8863 H   0  0  0  0  0  0  0  0  0  0  0  0
   -0.0985   -6.8300    2.4417 H   0  0  0  0  0  0  0  0  0  0  0  0
   -0.3334   -8.1908    1.3452 H   0  0  0  0  0  0  0  0  0  0  0  0
    0.2837   -6.6841    0.7161 H   0  0  0  0  0  0  0  0  0  0  0  0
    2.4763   -6.5185    3.2798 H   0  0  0  0  0  0  0  0  0  0  0  0
    2.8822   -5.3715    0.5475 H   0  0  0  0  0  0  0  0  0  0  0  0
    1.5617   -5.0216    1.6509 H   0  0  0  0  0  0  0  0  0  0  0  0
    3.2623   -3.3183    2.0257 H   0  0  0  0  0  0  0  0  0  0  0  0
    3.0809   -4.3055    3.4324 H   0  0  0  0  0  0  0  0  0  0  0  0
    5.4051   -3.9920    3.0829 H   0  0  0  0  0  0  0  0  0  0  0  0
    5.1943   -5.1333    0.2735 H   0  0  0  0  0  0  0  0  0  0  0  0
    4.4344   -6.8914    0.3338 H   0  0  0  0  0  0  0  0  0  0  0  0
  1  2  1  0
  1 28  1  0
  1 29  1  0
  1 30  1  0
  2 25  1  0
  2  3  1  0
  2 31  1  1
  3  4  2  0
  3  5  1  0
  5  6  1  0
  6 25  1  0
  6  7  1  0
  6 32  1  1
  7  8  1  0
  7 33  1  0
  7 34  1  0
  9  8  1  1
  8 35  1  0
  8 36  1  0
  9 24  1  0
  9 26  1  0
  9 10  1  0
 10 14  1  0
 10 11  2  0
 11 12  1  0
 12 13  2  0
 13 14  1  0
 14 15  1  0
 15 26  1  0
 15 16  1  0
 15 37  1  6
 16 17  1  0
 16 38  1  0
 16 39  1  0
 17 18  1  0
 17 19  1  0
 17 40  1  6
 18 41  1  0
 19 20  1  0
 19 21  1  0
 19 42  1  6
 20 43  1  0
 20 44  1  0
 20 45  1  0
 21 22  1  0
 21 26  1  0
 21 46  1  1
 22 23  1  0
 22 47  1  0
 22 48  1  0
 23 24  1  0
 23 49  1  0
 23 50  1  0
 24 25  1  0
 24 51  1  1
 25 52  1  6
 26 27  1  6
 27 53  1  0
M  END
>  <i_m_ct_stereo_status>  (299) 
1

>  <s_m_source_file>  (299) 
/var/tmp/pbs.5076255.sched01/tmpr9sv22dd/120oksnzf6p.sdf

>  <i_m_source_file_index>  (299) 
5

>  <i_lp_mmshare_version>  (299) 
48012

>  <i_f3d_flags>  (299) 
0

>  <s_epik_input>  (299) 
W0NIM11bQ0BASF0xQyg9TylPW0NASF0oW0NIMl1bQ0gyXTIpW0NASF0xW0NASF0zW0NIMl1bQ0gyXVtDQEBIXShbQ0BIXShbQ0gzXSlbQ0BASF0oW0NIMl00KVtPSF0pW0NAXTUoW09IXSlbQ0BIXTRuKGM2W0NAXTIzNSlubm42

>  <s_epik_cmdline>  (299) 
J2VwaWtfcHl0aG9uJywgJy1waHQnLCAnMi4wJywgJy1waCcsICc3LjAnLCAnLXRuJywgJzgnLCAnLW1hJywgJzIwMCcsICctaW1hZScsICc8aW5maWxlLm1hZT4nLCAnLW9tYWUnLCAnPG91dGZpbGUubWFlPic=

>  <r_lp_tautomer_probability>  (299) 
1

>  <r_epik_Ionization_Penalty>  (299) 
0.000164316

>  <r_epik_Ionization_Penalty_Charging>  (299) 
0

>  <r_epik_Ionization_Penalty_Neutral>  (299) 
0.000164316

>  <r_epik_State_Penalty>  (299) 
-0

>  <r_epik_Charging_Adjusted_Penalty>  (299) 
0

>  <i_epik_Tot_Q>  (299) 
0

>  <i_epik_Tot_abs_Q>  (299) 
0

>  <s_epik_Chemistry_Notes>  (299) 
This compound has an ester and may undergo hydrolysis at high or low pH.

>  <s_lp_Force_Field>  (299) 
OPLS3e

>  <r_lp_Energy>  (299) 
38.3287

>  <b_lp_Chiralities_Consistent>  (299) 
1

>  <s_lp_Variant>  (299) 
93:0-1

>  <s_i_glide_gridfile>  (299) 
pfpi4k_grid

>  <i_i_glide_lignum>  (299) 
5

>  <i_i_glide_rotatable_bonds>  (299) 
2

>  <r_i_docking_score>  (299) 
-3.25087

>  <r_i_glide_ligand_efficiency>  (299) 
-0.120403

>  <r_i_glide_ligand_efficiency_sa>  (299) 
-0.361208

>  <r_i_glide_ligand_efficiency_ln>  (299) 
-0.756749

>  <r_i_glide_gscore>  (299) 
-3.25087

>  <r_i_glide_lipo>  (299) 
-0.321033

>  <r_i_glide_hbond>  (299) 
-0.16

>  <r_i_glide_metal>  (299) 
-0

>  <r_i_glide_rewards>  (299) 
-0.933197

>  <r_i_glide_evdw>  (299) 
-25.3639

>  <r_i_glide_ecoul>  (299) 
-3.78964

>  <r_i_glide_erotb>  (299) 
0

>  <r_i_glide_esite>  (299) 
0

>  <r_i_glide_emodel>  (299) 
-35.2938

>  <r_i_glide_energy>  (299) 
-29.1535

>  <r_i_glide_einternal>  (299) 
0.352607

>  <r_i_glide_intrahb_reward>  (299) 
-0

>  <i_i_glide_confnum>  (299) 
2

>  <i_i_glide_posenum>  (299) 
2

>  <r_i_glide_eff_state_penalty>  (299) 
0

>  <ligand_id>  (299) 
93

>  <original_smiles>  (299) 
CC1C(=O)OC2CCC34c5nnnn5C5CC(O)C(C)C(CCC3C21)C54O

>  <smiles>  (299) 
[H]OC1([H])C([H])([H])C2([H])n3nnnc3C34C([H])([H])C([H])([H])C5([H])OC(=O)C([H])(C([H])([H])[H])C5([H])C3([H])C([H])([H])C([H])([H])C([H])(C1([H])C([H])([H])[H])C24O[H]

$$$$
93:0:2
     RDKit          3D

 53 58  0  0  1  0  0  0  0  0999 V2000
    0.7100   -6.6557    2.7190 C   0  0  0  0  0  0  0  0  0  0  0  0
    1.9856   -6.7061    3.5827 C   0  0  2  0  0  0  0  0  0  0  0  0
    1.6385   -6.4768    5.0531 C   0  0  0  0  0  0  0  0  0  0  0  0
    0.6591   -6.9660    5.6142 O   0  0  0  0  0  0  0  0  0  0  0  0
    2.5315   -5.6533    5.5988 O   0  0  0  0  0  0  0  0  0  0  0  0
    3.6002   -5.3877    4.7200 C   0  0  2  0  0  0  0  0  0  0  0  0
    4.2201   -4.0025    4.8003 C   0  0  0  0  0  0  0  0  0  0  0  0
    5.3616   -3.9447    3.7666 C   0  0  0  0  0  0  0  0  0  0  0  0
    5.0084   -4.3768    2.2957 C   0  0  1  0  0  0  0  0  0  0  0  0
    6.3043   -4.4802    1.5509 C   0  0  0  0  0  0  0  0  0  0  0  0
    7.3186   -5.3266    1.4784 N   0  0  0  0  0  0  0  0  0  0  0  0
    8.2389   -4.6095    0.6992 N   0  0  0  0  0  0  0  0  0  0  0  0
    7.8137   -3.4010    0.4217 N   0  0  0  0  0  0  0  0  0  0  0  0
    6.5759   -3.3464    0.9430 N   0  0  0  0  0  0  0  0  0  0  0  0
    5.6272   -2.2892    1.1091 C   0  0  1  0  0  0  0  0  0  0  0  0
    5.4406   -1.2558   -0.0284 C   0  0  0  0  0  0  0  0  0  0  0  0
    4.6740   -1.7456   -1.2655 C   0  0  1  0  0  0  0  0  0  0  0  0
    5.5685   -2.4787   -2.0744 O   0  0  0  0  0  0  0  0  0  0  0  0
    3.4265   -2.5844   -0.8940 C   0  0  1  0  0  0  0  0  0  0  0  0
    2.6433   -3.0306   -2.1441 C   0  0  0  0  0  0  0  0  0  0  0  0
    3.8433   -3.7360    0.0553 C   0  0  2  0  0  0  0  0  0  0  0  0
    2.8578   -4.8916    0.2513 C   0  0  0  0  0  0  0  0  0  0  0  0
    3.6042   -6.0600    0.9064 C   0  0  0  0  0  0  0  0  0  0  0  0
    4.1249   -5.6860    2.3015 C   0  0  2  0  0  0  0  0  0  0  0  0
    2.9783   -5.5595    3.3430 C   0  0  1  0  0  0  0  0  0  0  0  0
    4.3975   -3.1952    1.4259 C   0  0  1  0  0  0  0  0  0  0  0  0
    3.4038   -2.4580    2.1076 O   0  0  0  0  0  0  0  0  0  0  0  0
   -0.0049   -7.4264    3.0227 H   0  0  0  0  0  0  0  0  0  0  0  0
    0.9124   -6.8117    1.6600 H   0  0  0  0  0  0  0  0  0  0  0  0
    0.2173   -5.6885    2.8280 H   0  0  0  0  0  0  0  0  0  0  0  0
    2.4711   -7.6753    3.4964 H   0  0  0  0  0  0  0  0  0  0  0  0
    4.3673   -6.1451    4.8957 H   0  0  0  0  0  0  0  0  0  0  0  0
    3.4725   -3.2280    4.6196 H   0  0  0  0  0  0  0  0  0  0  0  0
    4.6059   -3.8220    5.8033 H   0  0  0  0  0  0  0  0  0  0  0  0
    5.8071   -2.9512    3.8011 H   0  0  0  0  0  0  0  0  0  0  0  0
    6.1429   -4.6119    4.1372 H   0  0  0  0  0  0  0  0  0  0  0  0
    5.9291   -1.7375    1.9981 H   0  0  0  0  0  0  0  0  0  0  0  0
    4.8493   -0.4459    0.3958 H   0  0  0  0  0  0  0  0  0  0  0  0
    6.3967   -0.8083   -0.3078 H   0  0  0  0  0  0  0  0  0  0  0  0
    4.3498   -0.8760   -1.8438 H   0  0  0  0  0  0  0  0  0  0  0  0
    5.0592   -2.9371   -2.7221 H   0  0  0  0  0  0  0  0  0  0  0  0
    2.7458   -1.9299   -0.3483 H   0  0  0  0  0  0  0  0  0  0  0  0
    3.1716   -3.7754   -2.7400 H   0  0  0  0  0  0  0  0  0  0  0  0
    2.4224   -2.1737   -2.7828 H   0  0  0  0  0  0  0  0  0  0  0  0
    1.6732   -3.4486   -1.8644 H   0  0  0  0  0  0  0  0  0  0  0  0
    4.6550   -4.2223   -0.4895 H   0  0  0  0  0  0  0  0  0  0  0  0
    2.0035   -4.5732    0.8420 H   0  0  0  0  0  0  0  0  0  0  0  0
    2.4808   -5.2379   -0.7046 H   0  0  0  0  0  0  0  0  0  0  0  0
    2.9719   -6.9427    0.9654 H   0  0  0  0  0  0  0  0  0  0  0  0
    4.4454   -6.3653    0.2805 H   0  0  0  0  0  0  0  0  0  0  0  0
    4.7585   -6.5135    2.6314 H   0  0  0  0  0  0  0  0  0  0  0  0
    2.3876   -4.6710    3.1095 H   0  0  0  0  0  0  0  0  0  0  0  0
    3.0300   -1.8463    1.4912 H   0  0  0  0  0  0  0  0  0  0  0  0
  1  2  1  0
  1 28  1  0
  1 29  1  0
  1 30  1  0
  2 25  1  0
  2  3  1  0
  2 31  1  1
  3  4  2  0
  3  5  1  0
  5  6  1  0
  6 25  1  0
  6  7  1  0
  6 32  1  1
  7  8  1  0
  7 33  1  0
  7 34  1  0
  9  8  1  1
  8 35  1  0
  8 36  1  0
  9 24  1  0
  9 26  1  0
  9 10  1  0
 10 14  1  0
 10 11  2  0
 11 12  1  0
 12 13  2  0
 13 14  1  0
 14 15  1  0
 15 26  1  0
 15 16  1  0
 15 37  1  1
 16 17  1  0
 16 38  1  0
 16 39  1  0
 17 18  1  0
 17 19  1  0
 17 40  1  6
 18 41  1  0
 19 20  1  0
 19 21  1  0
 19 42  1  1
 20 43  1  0
 20 44  1  0
 20 45  1  0
 21 22  1  0
 21 26  1  0
 21 46  1  6
 22 23  1  0
 22 47  1  0
 22 48  1  0
 23 24  1  0
 23 49  1  0
 23 50  1  0
 24 25  1  0
 24 51  1  1
 25 52  1  6
 26 27  1  1
 27 53  1  0
M  END
>  <i_m_ct_stereo_status>  (300) 
1

>  <s_m_source_file>  (300) 
/var/tmp/pbs.5076255.sched01/tmpr9sv22dd/120oksnzf6p.sdf

>  <i_m_source_file_index>  (300) 
5

>  <i_lp_mmshare_version>  (300) 
48012

>  <i_f3d_flags>  (300) 
0

>  <s_epik_input>  (300) 
W0NIM11bQ0BASF0xQyg9TylPW0NASF0oW0NIMl1bQ0gyXTIpW0NASF0xW0NASF0zW0NIMl1bQ0gyXVtDQEBIXShbQ0BIXShbQ0gzXSlbQ0BASF0oW0NIMl00KVtPSF0pW0NAXTUoW09IXSlbQ0BIXTRuKGM2W0NAXTIzNSlubm42

>  <s_epik_cmdline>  (300) 
J2VwaWtfcHl0aG9uJywgJy1waHQnLCAnMi4wJywgJy1waCcsICc3LjAnLCAnLXRuJywgJzgnLCAnLW1hJywgJzIwMCcsICctaW1hZScsICc8aW5maWxlLm1hZT4nLCAnLW9tYWUnLCAnPG91dGZpbGUubWFlPic=

>  <r_lp_tautomer_probability>  (300) 
1

>  <r_epik_Ionization_Penalty>  (300) 
0.000164316

>  <r_epik_Ionization_Penalty_Charging>  (300) 
0

>  <r_epik_Ionization_Penalty_Neutral>  (300) 
0.000164316

>  <r_epik_State_Penalty>  (300) 
-0

>  <r_epik_Charging_Adjusted_Penalty>  (300) 
0

>  <i_epik_Tot_Q>  (300) 
0

>  <i_epik_Tot_abs_Q>  (300) 
0

>  <s_epik_Chemistry_Notes>  (300) 
This compound has an ester and may undergo hydrolysis at high or low pH.

>  <s_lp_Force_Field>  (300) 
OPLS3e

>  <r_lp_Energy>  (300) 
38.3287

>  <b_lp_Chiralities_Consistent>  (300) 
1

>  <s_lp_Variant>  (300) 
93:0-1

>  <s_i_glide_gridfile>  (300) 
pfpi4k_grid

>  <i_i_glide_lignum>  (300) 
5

>  <i_i_glide_rotatable_bonds>  (300) 
2

>  <r_i_docking_score>  (300) 
-2.97132

>  <r_i_glide_ligand_efficiency>  (300) 
-0.110049

>  <r_i_glide_ligand_efficiency_sa>  (300) 
-0.330147

>  <r_i_glide_ligand_efficiency_ln>  (300) 
-0.691674

>  <r_i_glide_gscore>  (300) 
-2.97132

>  <r_i_glide_lipo>  (300) 
-0.174925

>  <r_i_glide_hbond>  (300) 
0

>  <r_i_glide_metal>  (300) 
-0

>  <r_i_glide_rewards>  (300) 
-1.06693

>  <r_i_glide_evdw>  (300) 
-27.3531

>  <r_i_glide_ecoul>  (300) 
-2.40127

>  <r_i_glide_erotb>  (300) 
0

>  <r_i_glide_esite>  (300) 
-0.00161791

>  <r_i_glide_emodel>  (300) 
-35.1551

>  <r_i_glide_energy>  (300) 
-29.7544

>  <r_i_glide_einternal>  (300) 
0.681256

>  <r_i_glide_intrahb_reward>  (300) 
-0

>  <i_i_glide_confnum>  (300) 
2

>  <i_i_glide_posenum>  (300) 
21

>  <r_i_glide_eff_state_penalty>  (300) 
0

>  <ligand_id>  (300) 
93

>  <original_smiles>  (300) 
CC1C(=O)OC2CCC34c5nnnn5C5CC(O)C(C)C(CCC3C21)C54O

>  <smiles>  (300) 
[H]OC1([H])C([H])([H])C2([H])n3nnnc3C34C([H])([H])C([H])([H])C5([H])OC(=O)C([H])(C([H])([H])[H])C5([H])C3([H])C([H])([H])C([H])([H])C([H])(C1([H])C([H])([H])[H])C24O[H]

$$$$
94:0:0
     RDKit          3D

 63 69  0  0  1  0  0  0  0  0999 V2000
    3.1187   -4.6698    0.5897 C   0  0  0  0  0  0  0  0  0  0  0  0
    4.0946   -5.0375    1.7545 C   0  0  2  0  0  0  0  0  0  0  0  0
    3.6327   -5.8182    2.8783 C   0  0  2  0  0  0  0  0  0  0  0  0
    2.6151   -5.1143    3.5911 O   0  0  0  0  0  0  0  0  0  0  0  0
    2.0911   -3.8354    3.2004 C   0  0  0  0  0  0  0  0  0  0  0  0
    3.0960   -2.6331    3.0677 C   0  0  0  0  0  0  0  0  0  0  0  0
    4.2874   -2.7644    2.2600 O   0  0  0  0  0  0  0  0  0  0  0  0
    4.9616   -3.9690    2.5408 C   0  0  2  0  0  0  0  0  0  0  0  0
    6.2692   -4.2418    1.7077 C   0  0  0  0  0  0  0  0  0  0  0  0
    6.7269   -2.9810    0.5975 S   0  0  0  0  0  0  0  0  0  0  0  0
    8.0352   -3.9125   -0.0175 C   0  0  0  0  0  0  0  0  0  0  0  0
    8.1008   -5.1552    0.5660 C   0  0  0  0  0  0  0  0  0  0  0  0
    7.1195   -5.4087    1.5679 C   0  0  0  0  0  0  0  0  0  0  0  0
    7.3941   -6.8318    2.3002 C   0  0  0  0  0  0  0  0  0  0  0  0
    6.4680   -7.8801    3.1688 C   0  0  0  0  0  0  0  0  0  0  0  0
    5.8939   -7.6545    4.7126 C   0  0  1  0  0  0  0  0  0  0  0  0
    6.4472   -6.3210    5.2591 C   0  0  0  0  0  0  0  0  0  0  0  0
    5.9349   -5.3346    4.1963 C   0  0  1  0  0  0  0  0  0  0  0  0
    4.9234   -6.0308    3.4083 O   0  0  0  0  0  0  0  0  0  0  0  0
    5.1752   -4.1377    4.2469 C   0  0  2  0  0  0  0  0  0  0  0  0
    4.2404   -4.6351    5.4950 C   0  0  0  0  0  0  0  0  0  0  0  0
    3.7801   -6.1986    5.8074 C   0  0  0  0  0  0  0  0  0  0  0  0
    4.2725   -7.6008    5.0708 C   0  0  2  0  0  0  0  0  0  0  0  0
    4.0627   -8.6801    6.1605 C   0  0  0  0  0  0  0  0  0  0  0  0
    3.2855   -7.9786    3.7892 C   0  0  0  0  0  0  0  0  0  0  0  0
    3.6796   -9.2369    3.3128 O   0  0  0  0  0  0  0  0  0  0  0  0
    2.9526   -9.6875    2.1612 C   0  0  0  0  0  0  0  0  0  0  0  0
    1.4704   -9.7023    2.5712 C   0  0  0  0  0  0  0  0  0  0  0  0
    1.0121   -8.4104    3.2986 C   0  0  0  0  0  0  0  0  0  0  0  0
    1.9742   -8.0088    4.2745 O   0  0  0  0  0  0  0  0  0  0  0  0
    3.2716   -7.1049    2.6156 O   0  0  0  0  0  0  0  0  0  0  0  0
    2.6151   -3.7048    0.6580 H   0  0  0  0  0  0  0  0  0  0  0  0
    2.3730   -5.4440    0.4164 H   0  0  0  0  0  0  0  0  0  0  0  0
    3.6747   -4.5865   -0.3406 H   0  0  0  0  0  0  0  0  0  0  0  0
    4.6954   -5.8081    1.2504 H   0  0  0  0  0  0  0  0  0  0  0  0
    1.4607   -3.9735    2.3254 H   0  0  0  0  0  0  0  0  0  0  0  0
    1.3684   -3.5657    3.9702 H   0  0  0  0  0  0  0  0  0  0  0  0
    2.5300   -1.8156    2.6292 H   0  0  0  0  0  0  0  0  0  0  0  0
    3.3730   -2.2801    4.0608 H   0  0  0  0  0  0  0  0  0  0  0  0
    8.6602   -3.4950   -0.7894 H   0  0  0  0  0  0  0  0  0  0  0  0
    8.8397   -5.8993    0.3289 H   0  0  0  0  0  0  0  0  0  0  0  0
    7.7595   -7.4730    1.5000 H   0  0  0  0  0  0  0  0  0  0  0  0
    8.2940   -6.6761    2.8919 H   0  0  0  0  0  0  0  0  0  0  0  0
    5.6914   -8.2417    2.4964 H   0  0  0  0  0  0  0  0  0  0  0  0
    7.1060   -8.7451    3.2832 H   0  0  0  0  0  0  0  0  0  0  0  0
    6.3529   -8.4327    5.3109 H   0  0  0  0  0  0  0  0  0  0  0  0
    6.2135   -6.1147    6.3105 H   0  0  0  0  0  0  0  0  0  0  0  0
    7.5324   -6.3669    5.2140 H   0  0  0  0  0  0  0  0  0  0  0  0
    6.9128   -5.0379    3.8455 H   0  0  0  0  0  0  0  0  0  0  0  0
    5.7951   -3.3135    4.5913 H   0  0  0  0  0  0  0  0  0  0  0  0
    4.8057   -4.3206    6.3835 H   0  0  0  0  0  0  0  0  0  0  0  0
    3.3600   -4.0035    5.5751 H   0  0  0  0  0  0  0  0  0  0  0  0
    3.9726   -6.2990    6.8826 H   0  0  0  0  0  0  0  0  0  0  0  0
    2.6962   -6.2117    5.7747 H   0  0  0  0  0  0  0  0  0  0  0  0
    3.0305   -8.6933    6.5099 H   0  0  0  0  0  0  0  0  0  0  0  0
    4.6805   -8.5087    7.0523 H   0  0  0  0  0  0  0  0  0  0  0  0
    4.3085   -9.6757    5.7991 H   0  0  0  0  0  0  0  0  0  0  0  0
    3.1420   -9.0625    1.2880 H   0  0  0  0  0  0  0  0  0  0  0  0
    3.3259  -10.6762    1.8619 H   0  0  0  0  0  0  0  0  0  0  0  0
    0.8440   -9.8525    1.6881 H   0  0  0  0  0  0  0  0  0  0  0  0
    1.3264  -10.5622    3.2268 H   0  0  0  0  0  0  0  0  0  0  0  0
    0.8521   -7.5808    2.6159 H   0  0  0  0  0  0  0  0  0  0  0  0
    0.0423   -8.5572    3.7900 H   0  0  0  0  0  0  0  0  0  0  0  0
  1  2  1  0
  1 32  1  0
  1 33  1  0
  1 34  1  0
  2  8  1  0
  2  3  1  0
  2 35  1  6
  3 19  1  0
  3 31  1  6
  3  4  1  0
  4  5  1  0
  5  6  1  0
  5 36  1  0
  5 37  1  0
  6  7  1  0
  6 38  1  0
  6 39  1  0
  8  7  1  1
  8 20  1  0
  8  9  1  0
  9 13  2  0
  9 10  1  0
 10 11  1  0
 11 12  2  0
 11 40  1  0
 12 13  1  0
 12 41  1  0
 13 14  1  0
 14 15  1  0
 14 42  1  0
 14 43  1  0
 15 16  1  0
 15 44  1  0
 15 45  1  0
 16 23  1  0
 16 17  1  0
 16 46  1  1
 17 18  1  0
 17 47  1  0
 17 48  1  0
 18 19  1  0
 18 20  1  0
 18 49  1  6
 20 21  1  0
 20 50  1  1
 21 22  1  0
 21 51  1  0
 21 52  1  0
 22 23  1  0
 22 53  1  0
 22 54  1  0
 23 24  1  1
 23 25  1  0
 24 55  1  0
 24 56  1  0
 24 57  1  0
 25 30  1  0
 25 26  1  0
 25 31  1  0
 26 27  1  0
 27 28  1  0
 27 58  1  0
 27 59  1  0
 28 29  1  0
 28 60  1  0
 28 61  1  0
 29 30  1  0
 29 62  1  0
 29 63  1  0
M  END
>  <i_m_ct_stereo_status>  (301) 
1

>  <s_m_source_file>  (301) 
/var/tmp/pbs.5076255.sched01/tmpr9sv22dd/120oksnzf6p.sdf

>  <i_m_source_file_index>  (301) 
6

>  <i_lp_mmshare_version>  (301) 
48012

>  <i_f3d_flags>  (301) 
0

>  <s_epik_input>  (301) 
TzFbQ0gyXVtDSDJdT1tDQEBdMihbQ0BASF0oW0NAXTEzNClbQ0gzXSljNWMoW2NIXVtjSF1zNSlbQ0gyXVtDSDJdW0NAQEhdNltDQEBdKFtDSDNdKShbQ0gyXVtDSDJdW0NASF0yW0NASF0oTzMpW0NIMl02KUM3KE80KU9bQ0gyXVtDSDJdW0NIMl1PNw==

>  <s_epik_cmdline>  (301) 
J2VwaWtfcHl0aG9uJywgJy1waHQnLCAnMi4wJywgJy1waCcsICc3LjAnLCAnLXRuJywgJzgnLCAnLW1hJywgJzIwMCcsICctaW1hZScsICc8aW5maWxlLm1hZT4nLCAnLW9tYWUnLCAnPG91dGZpbGUubWFlPic=

>  <r_lp_tautomer_probability>  (301) 
1

>  <r_epik_Ionization_Penalty>  (301) 
6.82787e-14

>  <r_epik_Ionization_Penalty_Charging>  (301) 
0

>  <r_epik_Ionization_Penalty_Neutral>  (301) 
6.82787e-14

>  <r_epik_State_Penalty>  (301) 
-0

>  <r_epik_Charging_Adjusted_Penalty>  (301) 
0

>  <i_epik_Tot_Q>  (301) 
0

>  <i_epik_Tot_abs_Q>  (301) 
0

>  <s_lp_Force_Field>  (301) 
OPLS3e

>  <r_lp_Energy>  (301) 
333.811

>  <b_lp_Chiralities_Consistent>  (301) 
1

>  <s_lp_Variant>  (301) 
94:0-1

>  <s_i_glide_gridfile>  (301) 
pfpi4k_grid

>  <i_i_glide_lignum>  (301) 
6

>  <i_i_glide_rotatable_bonds>  (301) 
0

>  <r_i_docking_score>  (301) 
-2.39113

>  <r_i_glide_ligand_efficiency>  (301) 
-0.0771333

>  <r_i_glide_ligand_efficiency_sa>  (301) 
-0.242305

>  <r_i_glide_ligand_efficiency_ln>  (301) 
-0.539273

>  <r_i_glide_gscore>  (301) 
-2.39113

>  <r_i_glide_lipo>  (301) 
-0.720642

>  <r_i_glide_hbond>  (301) 
0

>  <r_i_glide_metal>  (301) 
-0

>  <r_i_glide_rewards>  (301) 
-0.350637

>  <r_i_glide_evdw>  (301) 
-22.2677

>  <r_i_glide_ecoul>  (301) 
-1.37503

>  <r_i_glide_erotb>  (301) 
0

>  <r_i_glide_esite>  (301) 
-0.000212259

>  <r_i_glide_emodel>  (301) 
-26.6409

>  <r_i_glide_energy>  (301) 
-23.6427

>  <r_i_glide_einternal>  (301) 
0

>  <r_i_glide_intrahb_reward>  (301) 
-0

>  <i_i_glide_confnum>  (301) 
2

>  <i_i_glide_posenum>  (301) 
6

>  <r_i_glide_eff_state_penalty>  (301) 
0

>  <ligand_id>  (301) 
94

>  <original_smiles>  (301) 
CC1C23OCCOC14c1sccc1CCC1CC(O2)C4CCC1(C)C1(OCCCO1)O3

>  <smiles>  (301) 
[H]c1sc2c(c1[H])C([H])([H])C([H])([H])C1([H])C([H])([H])C3([H])OC45OC([H])([H])C([H])([H])OC2(C4([H])C([H])([H])[H])C3([H])C([H])([H])C([H])([H])C1(C([H])([H])[H])C1(OC([H])([H])C([H])([H])C([H])([H])O1)O5

$$$$
94:0:1
     RDKit          3D

 63 69  0  0  1  0  0  0  0  0999 V2000
    1.0732   -2.6723    3.7176 C   0  0  0  0  0  0  0  0  0  0  0  0
    2.2893   -3.5471    3.2957 C   0  0  2  0  0  0  0  0  0  0  0  0
    2.3149   -4.9740    3.5892 C   0  0  2  0  0  0  0  0  0  0  0  0
    2.2690   -5.1943    4.9943 O   0  0  0  0  0  0  0  0  0  0  0  0
    2.1758   -4.1481    5.9777 C   0  0  0  0  0  0  0  0  0  0  0  0
    3.2918   -3.0282    5.9894 C   0  0  0  0  0  0  0  0  0  0  0  0
    3.6228   -2.3176    4.7737 O   0  0  0  0  0  0  0  0  0  0  0  0
    3.7908   -3.2043    3.6932 C   0  0  2  0  0  0  0  0  0  0  0  0
    4.1317   -2.5536    2.3030 C   0  0  0  0  0  0  0  0  0  0  0  0
    4.3311   -0.8204    2.3047 S   0  0  0  0  0  0  0  0  0  0  0  0
    4.4640   -0.7764    0.5847 C   0  0  0  0  0  0  0  0  0  0  0  0
    4.3641   -2.0247    0.0210 C   0  0  0  0  0  0  0  0  0  0  0  0
    4.1839   -3.0907    0.9546 C   0  0  0  0  0  0  0  0  0  0  0  0
    4.2438   -4.5261    0.1900 C   0  0  0  0  0  0  0  0  0  0  0  0
    3.6755   -6.0366    0.5259 C   0  0  0  0  0  0  0  0  0  0  0  0
    4.2667   -7.0794    1.6840 C   0  0  1  0  0  0  0  0  0  0  0  0
    5.5004   -6.4253    2.3403 C   0  0  0  0  0  0  0  0  0  0  0  0
    4.9101   -5.0986    2.8592 C   0  0  1  0  0  0  0  0  0  0  0  0
    3.4449   -5.2250    2.7826 O   0  0  0  0  0  0  0  0  0  0  0  0
    4.8736   -4.4709    4.1344 C   0  0  2  0  0  0  0  0  0  0  0  0
    4.7353   -5.8692    4.9664 C   0  0  0  0  0  0  0  0  0  0  0  0
    3.9740   -7.2538    4.4530 C   0  0  0  0  0  0  0  0  0  0  0  0
    3.3411   -7.5998    2.9604 C   0  0  2  0  0  0  0  0  0  0  0  0
    3.4017   -9.1580    2.8831 C   0  0  0  0  0  0  0  0  0  0  0  0
    1.7579   -7.1693    2.8743 C   0  0  0  0  0  0  0  0  0  0  0  0
    1.2454   -7.6103    1.6314 O   0  0  0  0  0  0  0  0  0  0  0  0
   -0.1142   -7.2625    1.4100 C   0  0  0  0  0  0  0  0  0  0  0  0
   -0.9600   -7.8343    2.5593 C   0  0  0  0  0  0  0  0  0  0  0  0
   -0.3271   -7.5578    3.9485 C   0  0  0  0  0  0  0  0  0  0  0  0
    1.0752   -7.7958    3.9311 O   0  0  0  0  0  0  0  0  0  0  0  0
    1.3959   -5.7436    2.9447 O   0  0  0  0  0  0  0  0  0  0  0  0
    1.1451   -2.1610    4.6740 H   0  0  0  0  0  0  0  0  0  0  0  0
    0.1448   -3.2381    3.7081 H   0  0  0  0  0  0  0  0  0  0  0  0
    0.9493   -1.8585    3.0024 H   0  0  0  0  0  0  0  0  0  0  0  0
    2.1139   -3.5978    2.2172 H   0  0  0  0  0  0  0  0  0  0  0  0
    1.1613   -3.7487    5.9896 H   0  0  0  0  0  0  0  0  0  0  0  0
    2.2387   -4.6417    6.9484 H   0  0  0  0  0  0  0  0  0  0  0  0
    2.9657   -2.2662    6.6958 H   0  0  0  0  0  0  0  0  0  0  0  0
    4.2115   -3.4354    6.4141 H   0  0  0  0  0  0  0  0  0  0  0  0
    4.6157    0.1649    0.0943 H   0  0  0  0  0  0  0  0  0  0  0  0
    4.4479   -2.1993   -1.0361 H   0  0  0  0  0  0  0  0  0  0  0  0
    3.7641   -4.3419   -0.7717 H   0  0  0  0  0  0  0  0  0  0  0  0
    5.2861   -4.6624   -0.0872 H   0  0  0  0  0  0  0  0  0  0  0  0
    2.5937   -5.9688    0.5596 H   0  0  0  0  0  0  0  0  0  0  0  0
    3.8752   -6.5850   -0.3784 H   0  0  0  0  0  0  0  0  0  0  0  0
    4.6285   -7.9443    1.1385 H   0  0  0  0  0  0  0  0  0  0  0  0
    6.0261   -7.0716    3.0535 H   0  0  0  0  0  0  0  0  0  0  0  0
    6.2335   -6.2241    1.5542 H   0  0  0  0  0  0  0  0  0  0  0  0
    5.5448   -4.4328    2.2848 H   0  0  0  0  0  0  0  0  0  0  0  0
    5.8439   -4.0259    4.3666 H   0  0  0  0  0  0  0  0  0  0  0  0
    5.7768   -6.1741    5.1420 H   0  0  0  0  0  0  0  0  0  0  0  0
    4.4129   -5.6687    5.9870 H   0  0  0  0  0  0  0  0  0  0  0  0
    4.6977   -8.0400    4.6957 H   0  0  0  0  0  0  0  0  0  0  0  0
    3.1808   -7.4633    5.1695 H   0  0  0  0  0  0  0  0  0  0  0  0
    2.8717   -9.6096    3.7200 H   0  0  0  0  0  0  0  0  0  0  0  0
    4.4255   -9.5340    2.9319 H   0  0  0  0  0  0  0  0  0  0  0  0
    2.9699   -9.5400    1.9582 H   0  0  0  0  0  0  0  0  0  0  0  0
   -0.2316   -6.1806    1.3233 H   0  0  0  0  0  0  0  0  0  0  0  0
   -0.4269   -7.6527    0.4357 H   0  0  0  0  0  0  0  0  0  0  0  0
   -1.9696   -7.4507    2.5190 H   0  0  0  0  0  0  0  0  0  0  0  0
   -1.0037   -8.9154    2.4025 H   0  0  0  0  0  0  0  0  0  0  0  0
   -0.4993   -6.5308    4.2805 H   0  0  0  0  0  0  0  0  0  0  0  0
   -0.7744   -8.1964    4.7161 H   0  0  0  0  0  0  0  0  0  0  0  0
  1  2  1  0
  1 32  1  0
  1 33  1  0
  1 34  1  0
  2  8  1  0
  2  3  1  0
  2 35  1  6
  3 19  1  0
  3 31  1  6
  3  4  1  0
  4  5  1  0
  5  6  1  0
  5 36  1  0
  5 37  1  0
  6  7  1  0
  6 38  1  0
  6 39  1  0
  8  7  1  1
  8 20  1  0
  8  9  1  0
  9 13  2  0
  9 10  1  0
 10 11  1  0
 11 12  2  0
 11 40  1  0
 12 13  1  0
 12 41  1  0
 13 14  1  0
 14 15  1  0
 14 42  1  0
 14 43  1  0
 15 16  1  0
 15 44  1  0
 15 45  1  0
 16 23  1  0
 16 17  1  0
 16 46  1  6
 17 18  1  0
 17 47  1  0
 17 48  1  0
 18 19  1  0
 18 20  1  0
 18 49  1  6
 20 21  1  0
 20 50  1  1
 21 22  1  0
 21 51  1  0
 21 52  1  0
 22 23  1  0
 22 53  1  0
 22 54  1  0
 23 24  1  6
 23 25  1  0
 24 55  1  0
 24 56  1  0
 24 57  1  0
 25 30  1  0
 25 26  1  0
 25 31  1  0
 26 27  1  0
 27 28  1  0
 27 58  1  0
 27 59  1  0
 28 29  1  0
 28 60  1  0
 28 61  1  0
 29 30  1  0
 29 62  1  0
 29 63  1  0
M  END
>  <i_m_ct_stereo_status>  (302) 
1

>  <s_m_source_file>  (302) 
/var/tmp/pbs.5076255.sched01/tmpr9sv22dd/120oksnzf6p.sdf

>  <i_m_source_file_index>  (302) 
6

>  <i_lp_mmshare_version>  (302) 
48012

>  <i_f3d_flags>  (302) 
0

>  <s_epik_input>  (302) 
TzFbQ0gyXVtDSDJdT1tDQEBdMihbQ0BASF0oW0NAXTEzNClbQ0gzXSljNWMoW2NIXVtjSF1zNSlbQ0gyXVtDSDJdW0NAQEhdNltDQEBdKFtDSDNdKShbQ0gyXVtDSDJdW0NASF0yW0NASF0oTzMpW0NIMl02KUM3KE80KU9bQ0gyXVtDSDJdW0NIMl1PNw==

>  <s_epik_cmdline>  (302) 
J2VwaWtfcHl0aG9uJywgJy1waHQnLCAnMi4wJywgJy1waCcsICc3LjAnLCAnLXRuJywgJzgnLCAnLW1hJywgJzIwMCcsICctaW1hZScsICc8aW5maWxlLm1hZT4nLCAnLW9tYWUnLCAnPG91dGZpbGUubWFlPic=

>  <r_lp_tautomer_probability>  (302) 
1

>  <r_epik_Ionization_Penalty>  (302) 
6.82787e-14

>  <r_epik_Ionization_Penalty_Charging>  (302) 
0

>  <r_epik_Ionization_Penalty_Neutral>  (302) 
6.82787e-14

>  <r_epik_State_Penalty>  (302) 
-0

>  <r_epik_Charging_Adjusted_Penalty>  (302) 
0

>  <i_epik_Tot_Q>  (302) 
0

>  <i_epik_Tot_abs_Q>  (302) 
0

>  <s_lp_Force_Field>  (302) 
OPLS3e

>  <r_lp_Energy>  (302) 
333.811

>  <b_lp_Chiralities_Consistent>  (302) 
1

>  <s_lp_Variant>  (302) 
94:0-1

>  <s_i_glide_gridfile>  (302) 
pfpi4k_grid

>  <i_i_glide_lignum>  (302) 
6

>  <i_i_glide_rotatable_bonds>  (302) 
0

>  <r_i_docking_score>  (302) 
-2.06596

>  <r_i_glide_ligand_efficiency>  (302) 
-0.0666439

>  <r_i_glide_ligand_efficiency_sa>  (302) 
-0.209354

>  <r_i_glide_ligand_efficiency_ln>  (302) 
-0.465938

>  <r_i_glide_gscore>  (302) 
-2.06596

>  <r_i_glide_lipo>  (302) 
-0.311992

>  <r_i_glide_hbond>  (302) 
0

>  <r_i_glide_metal>  (302) 
-0

>  <r_i_glide_rewards>  (302) 
-0.350637

>  <r_i_glide_evdw>  (302) 
-27.7092

>  <r_i_glide_ecoul>  (302) 
-0.025687

>  <r_i_glide_erotb>  (302) 
0

>  <r_i_glide_esite>  (302) 
-0.0140225

>  <r_i_glide_emodel>  (302) 
-30.1776

>  <r_i_glide_energy>  (302) 
-27.7349

>  <r_i_glide_einternal>  (302) 
0

>  <r_i_glide_intrahb_reward>  (302) 
-0

>  <i_i_glide_confnum>  (302) 
1

>  <i_i_glide_posenum>  (302) 
29

>  <r_i_glide_eff_state_penalty>  (302) 
0

>  <ligand_id>  (302) 
94

>  <original_smiles>  (302) 
CC1C23OCCOC14c1sccc1CCC1CC(O2)C4CCC1(C)C1(OCCCO1)O3

>  <smiles>  (302) 
[H]c1sc2c(c1[H])C([H])([H])C([H])([H])C1([H])C([H])([H])C3([H])OC45OC([H])([H])C([H])([H])OC2(C4([H])C([H])([H])[H])C3([H])C([H])([H])C([H])([H])C1(C([H])([H])[H])C1(OC([H])([H])C([H])([H])C([H])([H])O1)O5

$$$$
94:0:2
     RDKit          3D

 63 69  0  0  1  0  0  0  0  0999 V2000
   -1.7707    2.3240    4.5736 C   0  0  0  0  0  0  0  0  0  0  0  0
   -0.4314    2.3731    5.3768 C   0  0  2  0  0  0  0  0  0  0  0  0
   -0.0189    1.2746    6.2210 C   0  0  2  0  0  0  0  0  0  0  0  0
   -0.9660    1.0380    7.2558 O   0  0  0  0  0  0  0  0  0  0  0  0
   -2.1697    1.8096    7.4288 C   0  0  0  0  0  0  0  0  0  0  0  0
   -2.0538    3.3725    7.5982 C   0  0  0  0  0  0  0  0  0  0  0  0
   -1.3001    4.1460    6.6359 O   0  0  0  0  0  0  0  0  0  0  0  0
   -0.0516    3.5542    6.3658 C   0  0  2  0  0  0  0  0  0  0  0  0
    0.8666    4.2972    5.3178 C   0  0  0  0  0  0  0  0  0  0  0  0
    0.2124    5.7807    4.6946 S   0  0  0  0  0  0  0  0  0  0  0  0
    1.5005    5.9417    3.5702 C   0  0  0  0  0  0  0  0  0  0  0  0
    2.4039    4.9088    3.6525 C   0  0  0  0  0  0  0  0  0  0  0  0
    2.0881    3.9288    4.6528 C   0  0  0  0  0  0  0  0  0  0  0  0
    3.2975    2.8379    4.7741 C   0  0  0  0  0  0  0  0  0  0  0  0
    3.3995    1.2928    5.3343 C   0  0  0  0  0  0  0  0  0  0  0  0
    3.3291    0.8143    6.9240 C   0  0  1  0  0  0  0  0  0  0  0  0
    3.2419    2.0698    7.8072 C   0  0  0  0  0  0  0  0  0  0  0  0
    1.9702    2.7433    7.2529 C   0  0  1  0  0  0  0  0  0  0  0  0
    1.2854    1.7601    6.4187 O   0  0  0  0  0  0  0  0  0  0  0  0
    0.7635    3.2065    7.8429 C   0  0  2  0  0  0  0  0  0  0  0  0
    0.6839    2.0074    8.9515 C   0  0  0  0  0  0  0  0  0  0  0  0
    1.2403    0.4596    8.7549 C   0  0  0  0  0  0  0  0  0  0  0  0
    2.1351   -0.1801    7.5143 C   0  0  2  0  0  0  0  0  0  0  0  0
    2.8844   -1.3734    8.1637 C   0  0  0  0  0  0  0  0  0  0  0  0
    1.1417   -0.8009    6.3463 C   0  0  0  0  0  0  0  0  0  0  0  0
    1.9594   -1.4480    5.3937 O   0  0  0  0  0  0  0  0  0  0  0  0
    1.2312   -1.9599    4.2767 C   0  0  0  0  0  0  0  0  0  0  0  0
    0.2099   -2.9458    4.8559 C   0  0  0  0  0  0  0  0  0  0  0  0
   -0.5875   -2.3748    6.0500 C   0  0  0  0  0  0  0  0  0  0  0  0
    0.2884   -1.7298    6.9689 O   0  0  0  0  0  0  0  0  0  0  0  0
    0.2862    0.1180    5.5947 O   0  0  0  0  0  0  0  0  0  0  0  0
   -2.6452    2.7524    5.0600 H   0  0  0  0  0  0  0  0  0  0  0  0
   -2.0154    1.3153    4.2450 H   0  0  0  0  0  0  0  0  0  0  0  0
   -1.6697    2.9194    3.6662 H   0  0  0  0  0  0  0  0  0  0  0  0
    0.2703    2.2489    4.5429 H   0  0  0  0  0  0  0  0  0  0  0  0
   -2.9087    1.5076    6.6859 H   0  0  0  0  0  0  0  0  0  0  0  0
   -2.6049    1.4421    8.3580 H   0  0  0  0  0  0  0  0  0  0  0  0
   -3.0719    3.7609    7.5732 H   0  0  0  0  0  0  0  0  0  0  0  0
   -1.6970    3.6033    8.6043 H   0  0  0  0  0  0  0  0  0  0  0  0
    1.5013    6.7917    2.9056 H   0  0  0  0  0  0  0  0  0  0  0  0
    3.2837    4.8435    3.0382 H   0  0  0  0  0  0  0  0  0  0  0  0
    3.6482    2.7118    3.7506 H   0  0  0  0  0  0  0  0  0  0  0  0
    4.1232    3.3702    5.2422 H   0  0  0  0  0  0  0  0  0  0  0  0
    2.7530    0.6852    4.7030 H   0  0  0  0  0  0  0  0  0  0  0  0
    4.3926    0.9764    5.0289 H   0  0  0  0  0  0  0  0  0  0  0  0
    4.2936    0.3565    7.1390 H   0  0  0  0  0  0  0  0  0  0  0  0
    3.2860    1.8705    8.8849 H   0  0  0  0  0  0  0  0  0  0  0  0
    4.1126    2.6923    7.6017 H   0  0  0  0  0  0  0  0  0  0  0  0
    2.4465    3.6681    6.9318 H   0  0  0  0  0  0  0  0  0  0  0  0
    0.9370    4.1481    8.3679 H   0  0  0  0  0  0  0  0  0  0  0  0
    1.2533    2.4014    9.7981 H   0  0  0  0  0  0  0  0  0  0  0  0
   -0.3117    1.9630    9.3804 H   0  0  0  0  0  0  0  0  0  0  0  0
    1.7985    0.2793    9.6811 H   0  0  0  0  0  0  0  0  0  0  0  0
    0.3887   -0.2015    8.8875 H   0  0  0  0  0  0  0  0  0  0  0  0
    2.1934   -2.0741    8.6358 H   0  0  0  0  0  0  0  0  0  0  0  0
    3.5714   -1.0482    8.9570 H   0  0  0  0  0  0  0  0  0  0  0  0
    3.4852   -1.9303    7.4413 H   0  0  0  0  0  0  0  0  0  0  0  0
    0.7514   -1.1810    3.6858 H   0  0  0  0  0  0  0  0  0  0  0  0
    1.9257   -2.4299    3.5737 H   0  0  0  0  0  0  0  0  0  0  0  0
   -0.4864   -3.2239    4.0728 H   0  0  0  0  0  0  0  0  0  0  0  0
    0.7500   -3.8396    5.1717 H   0  0  0  0  0  0  0  0  0  0  0  0
   -1.3485   -1.6691    5.7335 H   0  0  0  0  0  0  0  0  0  0  0  0
   -1.1287   -3.1616    6.5802 H   0  0  0  0  0  0  0  0  0  0  0  0
  1  2  1  0
  1 32  1  0
  1 33  1  0
  1 34  1  0
  2  8  1  0
  2  3  1  0
  2 35  1  6
  3 19  1  0
  3 31  1  6
  3  4  1  0
  4  5  1  0
  5  6  1  0
  5 36  1  0
  5 37  1  0
  6  7  1  0
  6 38  1  0
  6 39  1  0
  8  7  1  1
  8 20  1  0
  8  9  1  0
  9 13  2  0
  9 10  1  0
 10 11  1  0
 11 12  2  0
 11 40  1  0
 12 13  1  0
 12 41  1  0
 13 14  1  0
 14 15  1  0
 14 42  1  0
 14 43  1  0
 15 16  1  0
 15 44  1  0
 15 45  1  0
 16 23  1  0
 16 17  1  0
 16 46  1  1
 17 18  1  0
 17 47  1  0
 17 48  1  0
 18 19  1  0
 18 20  1  0
 18 49  1  6
 20 21  1  0
 20 50  1  1
 21 22  1  0
 21 51  1  0
 21 52  1  0
 22 23  1  0
 22 53  1  0
 22 54  1  0
 23 24  1  1
 23 25  1  0
 24 55  1  0
 24 56  1  0
 24 57  1  0
 25 30  1  0
 25 26  1  0
 25 31  1  0
 26 27  1  0
 27 28  1  0
 27 58  1  0
 27 59  1  0
 28 29  1  0
 28 60  1  0
 28 61  1  0
 29 30  1  0
 29 62  1  0
 29 63  1  0
M  END
>  <i_m_ct_stereo_status>  (303) 
1

>  <s_m_source_file>  (303) 
/var/tmp/pbs.5076255.sched01/tmpr9sv22dd/120oksnzf6p.sdf

>  <i_m_source_file_index>  (303) 
6

>  <i_lp_mmshare_version>  (303) 
48012

>  <i_f3d_flags>  (303) 
0

>  <s_epik_input>  (303) 
TzFbQ0gyXVtDSDJdT1tDQEBdMihbQ0BASF0oW0NAXTEzNClbQ0gzXSljNWMoW2NIXVtjSF1zNSlbQ0gyXVtDSDJdW0NAQEhdNltDQEBdKFtDSDNdKShbQ0gyXVtDSDJdW0NASF0yW0NASF0oTzMpW0NIMl02KUM3KE80KU9bQ0gyXVtDSDJdW0NIMl1PNw==

>  <s_epik_cmdline>  (303) 
J2VwaWtfcHl0aG9uJywgJy1waHQnLCAnMi4wJywgJy1waCcsICc3LjAnLCAnLXRuJywgJzgnLCAnLW1hJywgJzIwMCcsICctaW1hZScsICc8aW5maWxlLm1hZT4nLCAnLW9tYWUnLCAnPG91dGZpbGUubWFlPic=

>  <r_lp_tautomer_probability>  (303) 
1

>  <r_epik_Ionization_Penalty>  (303) 
6.82787e-14

>  <r_epik_Ionization_Penalty_Charging>  (303) 
0

>  <r_epik_Ionization_Penalty_Neutral>  (303) 
6.82787e-14

>  <r_epik_State_Penalty>  (303) 
-0

>  <r_epik_Charging_Adjusted_Penalty>  (303) 
0

>  <i_epik_Tot_Q>  (303) 
0

>  <i_epik_Tot_abs_Q>  (303) 
0

>  <s_lp_Force_Field>  (303) 
OPLS3e

>  <r_lp_Energy>  (303) 
333.811

>  <b_lp_Chiralities_Consistent>  (303) 
1

>  <s_lp_Variant>  (303) 
94:0-1

>  <s_i_glide_gridfile>  (303) 
pfpi4k_grid

>  <i_i_glide_lignum>  (303) 
6

>  <i_i_glide_rotatable_bonds>  (303) 
0

>  <r_i_docking_score>  (303) 
-2.00132

>  <r_i_glide_ligand_efficiency>  (303) 
-0.0645588

>  <r_i_glide_ligand_efficiency_sa>  (303) 
-0.202804

>  <r_i_glide_ligand_efficiency_ln>  (303) 
-0.451359

>  <r_i_glide_gscore>  (303) 
-2.00132

>  <r_i_glide_lipo>  (303) 
-0.0686088

>  <r_i_glide_hbond>  (303) 
-0.0188099

>  <r_i_glide_metal>  (303) 
-0

>  <r_i_glide_rewards>  (303) 
-0.350637

>  <r_i_glide_evdw>  (303) 
-21.9246

>  <r_i_glide_ecoul>  (303) 
-3.06378

>  <r_i_glide_erotb>  (303) 
0

>  <r_i_glide_esite>  (303) 
-0.00746825

>  <r_i_glide_emodel>  (303) 
-27.3038

>  <r_i_glide_energy>  (303) 
-24.9884

>  <r_i_glide_einternal>  (303) 
0

>  <r_i_glide_intrahb_reward>  (303) 
-0

>  <i_i_glide_confnum>  (303) 
1

>  <i_i_glide_posenum>  (303) 
2

>  <r_i_glide_eff_state_penalty>  (303) 
0

>  <ligand_id>  (303) 
94

>  <original_smiles>  (303) 
CC1C23OCCOC14c1sccc1CCC1CC(O2)C4CCC1(C)C1(OCCCO1)O3

>  <smiles>  (303) 
[H]c1sc2c(c1[H])C([H])([H])C([H])([H])C1([H])C([H])([H])C3([H])OC45OC([H])([H])C([H])([H])OC2(C4([H])C([H])([H])[H])C3([H])C([H])([H])C([H])([H])C1(C([H])([H])[H])C1(OC([H])([H])C([H])([H])C([H])([H])O1)O5

$$$$
98:0:0
     RDKit          3D

 64 69  0  0  1  0  0  0  0  0999 V2000
    7.9694   -3.0989   -0.7971 C   0  0  0  0  0  0  0  0  0  0  0  0
    6.5773   -2.7291   -0.2623 C   0  0  2  0  0  0  0  0  0  0  0  0
    5.4835   -3.6655   -0.7455 C   0  0  0  0  0  0  0  0  0  0  0  0
    4.2847   -2.7457   -0.9111 C   0  0  1  0  0  0  0  0  0  0  0  0
    3.0533   -3.1053   -0.0463 C   0  0  1  0  0  0  0  0  0  0  0  0
    2.6158   -4.5832   -0.0709 C   0  0  0  0  0  0  0  0  0  0  0  0
    2.6087   -5.0874    1.2621 O   0  0  0  0  0  0  0  0  0  0  0  0
    2.1638   -6.4218    1.3734 C   0  0  0  0  0  0  0  0  0  0  0  0
    2.5334   -6.9515    2.7616 C   0  0  2  0  0  0  0  0  0  0  0  0
    2.3971   -8.3425    2.7310 O   0  0  0  0  0  0  0  0  0  0  0  0
    1.7857   -6.2828    3.9614 C   0  0  2  0  0  0  0  0  0  0  0  0
    2.3084   -6.6656    5.3675 C   0  0  0  0  0  0  0  0  0  0  0  0
    1.0343   -6.7728    6.1781 C   0  0  2  0  0  0  0  0  0  0  0  0
    1.1106   -7.7203    7.3825 C   0  0  0  0  0  0  0  0  0  0  0  0
    1.0996   -9.2104    6.9858 C   0  0  0  0  0  0  0  0  0  0  0  0
   -0.1301   -9.5493    6.1329 C   0  0  0  0  0  0  0  0  0  0  0  0
   -0.0947   -8.7187    4.8482 C   0  0  0  0  0  0  0  0  0  0  0  0
   -0.0148   -7.1778    5.1082 C   0  0  2  0  0  0  0  0  0  0  0  0
    0.3902   -6.5484    3.8950 O   0  0  0  0  0  0  0  0  0  0  0  0
    3.1541   -2.4585    1.3451 C   0  0  1  0  0  0  0  0  0  0  0  0
    4.3738   -2.9249    2.2054 C   0  0  0  0  0  0  0  0  0  0  0  0
    5.7140   -2.1770    2.0013 C   0  0  2  0  0  0  0  0  0  0  0  0
    5.5353   -0.6948    1.6810 C   0  0  0  0  0  0  0  0  0  0  0  0
    4.4945   -0.5108    0.5762 C   0  0  2  0  0  0  0  0  0  0  0  0
    3.1473   -0.9304    1.1775 C   0  0  0  0  0  0  0  0  0  0  0  0
    4.8327   -1.3001   -0.7199 C   0  0  1  0  0  0  0  0  0  0  0  0
    6.2493   -1.4729   -0.7742 O   0  0  0  0  0  0  0  0  0  0  0  0
    6.6660   -2.7988    1.1334 O   0  0  0  0  0  0  0  0  0  0  0  0
    8.7139   -2.3932   -0.4271 H   0  0  0  0  0  0  0  0  0  0  0  0
    7.9901   -3.0849   -1.8859 H   0  0  0  0  0  0  0  0  0  0  0  0
    8.2361   -4.0962   -0.4492 H   0  0  0  0  0  0  0  0  0  0  0  0
    5.7609   -4.0492   -1.7299 H   0  0  0  0  0  0  0  0  0  0  0  0
    5.3631   -4.5038   -0.0588 H   0  0  0  0  0  0  0  0  0  0  0  0
    3.9668   -2.8658   -1.9494 H   0  0  0  0  0  0  0  0  0  0  0  0
    2.2121   -2.6015   -0.5480 H   0  0  0  0  0  0  0  0  0  0  0  0
    1.6148   -4.6882   -0.4911 H   0  0  0  0  0  0  0  0  0  0  0  0
    3.2775   -5.1701   -0.6969 H   0  0  0  0  0  0  0  0  0  0  0  0
    1.0993   -6.4899    1.1679 H   0  0  0  0  0  0  0  0  0  0  0  0
    2.6818   -7.0105    0.6142 H   0  0  0  0  0  0  0  0  0  0  0  0
    3.5945   -6.7500    2.8716 H   0  0  0  0  0  0  0  0  0  0  0  0
    3.1398   -8.7093    2.2436 H   0  0  0  0  0  0  0  0  0  0  0  0
    1.8592   -5.1930    3.9140 H   0  0  0  0  0  0  0  0  0  0  0  0
    2.8303   -7.6192    5.3393 H   0  0  0  0  0  0  0  0  0  0  0  0
    2.9806   -5.9028    5.7669 H   0  0  0  0  0  0  0  0  0  0  0  0
    0.7711   -5.7682    6.5372 H   0  0  0  0  0  0  0  0  0  0  0  0
    1.9878   -7.4999    7.9812 H   0  0  0  0  0  0  0  0  0  0  0  0
    0.2340   -7.5641    8.0232 H   0  0  0  0  0  0  0  0  0  0  0  0
    2.0185   -9.4503    6.4335 H   0  0  0  0  0  0  0  0  0  0  0  0
    1.1242   -9.8487    7.8593 H   0  0  0  0  0  0  0  0  0  0  0  0
   -0.0313  -10.5911    5.8222 H   0  0  0  0  0  0  0  0  0  0  0  0
   -1.0591   -9.4697    6.7017 H   0  0  0  0  0  0  0  0  0  0  0  0
    0.7914   -9.0829    4.3097 H   0  0  0  0  0  0  0  0  0  0  0  0
   -0.9670   -8.9153    4.2327 H   0  0  0  0  0  0  0  0  0  0  0  0
   -0.9824   -6.7308    5.3876 H   0  0  0  0  0  0  0  0  0  0  0  0
    2.2347   -2.7189    1.8785 H   0  0  0  0  0  0  0  0  0  0  0  0
    4.0837   -2.7929    3.2482 H   0  0  0  0  0  0  0  0  0  0  0  0
    4.5937   -3.9828    2.0897 H   0  0  0  0  0  0  0  0  0  0  0  0
    6.2150   -2.2377    2.9660 H   0  0  0  0  0  0  0  0  0  0  0  0
    5.2176   -0.1614    2.5747 H   0  0  0  0  0  0  0  0  0  0  0  0
    6.4898   -0.2582    1.3774 H   0  0  0  0  0  0  0  0  0  0  0  0
    4.4514    0.5488    0.3507 H   0  0  0  0  0  0  0  0  0  0  0  0
    2.3475   -0.5931    0.5244 H   0  0  0  0  0  0  0  0  0  0  0  0
    2.9835   -0.4369    2.1328 H   0  0  0  0  0  0  0  0  0  0  0  0
    4.5125   -0.6966   -1.5669 H   0  0  0  0  0  0  0  0  0  0  0  0
  2  1  1  6
  1 29  1  0
  1 30  1  0
  1 31  1  0
  2 27  1  0
  2 28  1  0
  2  3  1  0
  3  4  1  0
  3 32  1  0
  3 33  1  0
  4 26  1  0
  4  5  1  0
  4 34  1  6
  5  6  1  0
  5 20  1  0
  5 35  1  6
  6  7  1  0
  6 36  1  0
  6 37  1  0
  7  8  1  0
  8  9  1  0
  8 38  1  0
  8 39  1  0
  9 10  1  0
  9 11  1  0
  9 40  1  1
 10 41  1  0
 11 19  1  0
 11 12  1  0
 11 42  1  6
 12 13  1  0
 12 43  1  0
 12 44  1  0
 13 18  1  0
 13 14  1  0
 13 45  1  1
 14 15  1  0
 14 46  1  0
 14 47  1  0
 15 16  1  0
 15 48  1  0
 15 49  1  0
 16 17  1  0
 16 50  1  0
 16 51  1  0
 17 18  1  0
 17 52  1  0
 17 53  1  0
 18 19  1  0
 18 54  1  1
 20 25  1  0
 20 21  1  0
 20 55  1  1
 21 22  1  0
 21 56  1  0
 21 57  1  0
 22 23  1  0
 22 28  1  0
 22 58  1  1
 23 24  1  0
 23 59  1  0
 23 60  1  0
 24 25  1  0
 24 26  1  0
 24 61  1  6
 25 62  1  0
 25 63  1  0
 26 27  1  0
 26 64  1  6
M  END
>  <i_m_ct_stereo_status>  (304) 
1

>  <s_m_source_file>  (304) 
/var/tmp/pbs.5076255.sched01/tmpr9sv22dd/120oksnzf6p.sdf

>  <i_m_source_file_index>  (304) 
11

>  <i_lp_mmshare_version>  (304) 
48012

>  <i_f3d_flags>  (304) 
0

>  <s_epik_input>  (304) 
W0NIM11bQ0BdMTJbQ0gyXVtDQEBIXTNbQ0BIXShPMSlbQ0BASF00W0NIMl1bQ0BIXShPMilbQ0gyXVtDQEBIXShbQ0gyXTQpW0NAQEhdM1tDSDJdT1tDSDJdW0NASF0oW09IXSlbQ0BIXShbQ0gyXTUpT1tDQEhdKFtDQEhdNTYpW0NIMl1bQ0gyXVtDSDJdW0NIMl02

>  <s_epik_cmdline>  (304) 
J2VwaWtfcHl0aG9uJywgJy1waHQnLCAnMi4wJywgJy1waCcsICc3LjAnLCAnLXRuJywgJzgnLCAnLW1hJywgJzIwMCcsICctaW1hZScsICc8aW5maWxlLm1hZT4nLCAnLW9tYWUnLCAnPG91dGZpbGUubWFlPic=

>  <r_lp_tautomer_probability>  (304) 
1

>  <r_epik_Ionization_Penalty>  (304) 
5.01305e-08

>  <r_epik_Ionization_Penalty_Charging>  (304) 
0

>  <r_epik_Ionization_Penalty_Neutral>  (304) 
5.01305e-08

>  <r_epik_State_Penalty>  (304) 
-0

>  <r_epik_Charging_Adjusted_Penalty>  (304) 
0

>  <i_epik_Tot_Q>  (304) 
0

>  <i_epik_Tot_abs_Q>  (304) 
0

>  <s_lp_Force_Field>  (304) 
OPLS3e

>  <r_lp_Energy>  (304) 
22.5326

>  <b_lp_Chiralities_Consistent>  (304) 
1

>  <s_lp_Variant>  (304) 
98:0-1

>  <s_i_glide_gridfile>  (304) 
pfpi4k_grid

>  <i_i_glide_lignum>  (304) 
11

>  <i_i_glide_rotatable_bonds>  (304) 
6

>  <r_i_docking_score>  (304) 
-2.30499

>  <r_i_glide_ligand_efficiency>  (304) 
-0.0823209

>  <r_i_glide_ligand_efficiency_sa>  (304) 
-0.249975

>  <r_i_glide_ligand_efficiency_ln>  (304) 
-0.532058

>  <r_i_glide_gscore>  (304) 
-2.30499

>  <r_i_glide_lipo>  (304) 
-0.422494

>  <r_i_glide_hbond>  (304) 
-0.117032

>  <r_i_glide_metal>  (304) 
-0

>  <r_i_glide_rewards>  (304) 
-0.755836

>  <r_i_glide_evdw>  (304) 
-21.3563

>  <r_i_glide_ecoul>  (304) 
-2.99138

>  <r_i_glide_erotb>  (304) 
0.5069

>  <r_i_glide_esite>  (304) 
0

>  <r_i_glide_emodel>  (304) 
-23.5535

>  <r_i_glide_energy>  (304) 
-24.3477

>  <r_i_glide_einternal>  (304) 
7.19718

>  <r_i_glide_intrahb_reward>  (304) 
-0

>  <i_i_glide_confnum>  (304) 
5

>  <i_i_glide_posenum>  (304) 
15

>  <r_i_glide_eff_state_penalty>  (304) 
0

>  <ligand_id>  (304) 
98

>  <original_smiles>  (304) 
CC12CC3C(COCC(O)C4CC5CCCCC5O4)C4CC(CC(C4)C3O1)O2

>  <smiles>  (304) 
[H]OC([H])(C([H])([H])OC([H])([H])C1([H])C2([H])C([H])([H])C3([H])OC4(C([H])([H])[H])OC([H])(C([H])(C3([H])[H])C2([H])[H])C1([H])C4([H])[H])C1([H])OC2([H])C([H])([H])C([H])([H])C([H])([H])C([H])([H])C2([H])C1([H])[H]

$$$$
98:0:1
     RDKit          3D

 64 69  0  0  1  0  0  0  0  0999 V2000
    8.5065   -3.1617   -0.3349 C   0  0  0  0  0  0  0  0  0  0  0  0
    7.0047   -3.0156   -0.5647 C   0  0  2  0  0  0  0  0  0  0  0  0
    6.2204   -4.1736    0.0328 C   0  0  0  0  0  0  0  0  0  0  0  0
    5.0659   -4.3437   -0.9374 C   0  0  1  0  0  0  0  0  0  0  0  0
    3.6552   -4.1231   -0.3502 C   0  0  1  0  0  0  0  0  0  0  0  0
    3.3467   -4.8649    0.9458 C   0  0  0  0  0  0  0  0  0  0  0  0
    3.9618   -4.2682    2.0646 O   0  0  0  0  0  0  0  0  0  0  0  0
    4.2150   -5.1035    3.1956 C   0  0  0  0  0  0  0  0  0  0  0  0
    2.9743   -5.2455    4.0935 C   0  0  2  0  0  0  0  0  0  0  0  0
    3.2958   -6.0632    5.2225 O   0  0  0  0  0  0  0  0  0  0  0  0
    1.7060   -5.6734    3.3213 C   0  0  2  0  0  0  0  0  0  0  0  0
    0.4812   -5.9369    4.1598 C   0  0  0  0  0  0  0  0  0  0  0  0
   -0.0781   -7.2041    3.4818 C   0  0  2  0  0  0  0  0  0  0  0  0
   -0.9414   -8.0506    4.4236 C   0  0  0  0  0  0  0  0  0  0  0  0
   -0.0817   -8.7946    5.4769 C   0  0  0  0  0  0  0  0  0  0  0  0
    1.0080   -9.6540    4.7993 C   0  0  0  0  0  0  0  0  0  0  0  0
    1.9312   -8.7600    3.9658 C   0  0  0  0  0  0  0  0  0  0  0  0
    1.1487   -7.9241    2.9345 C   0  0  2  0  0  0  0  0  0  0  0  0
    1.9694   -6.8347    2.4779 O   0  0  0  0  0  0  0  0  0  0  0  0
    3.2322   -2.6603   -0.3475 C   0  0  1  0  0  0  0  0  0  0  0  0
    4.1236   -1.6847    0.4917 C   0  0  0  0  0  0  0  0  0  0  0  0
    5.3899   -1.1343   -0.2097 C   0  0  2  0  0  0  0  0  0  0  0  0
    5.1910   -0.9045   -1.7093 C   0  0  0  0  0  0  0  0  0  0  0  0
    4.5594   -2.1308   -2.3755 C   0  0  2  0  0  0  0  0  0  0  0  0
    3.1345   -2.2346   -1.8222 C   0  0  0  0  0  0  0  0  0  0  0  0
    5.4040   -3.4394   -2.1593 C   0  0  1  0  0  0  0  0  0  0  0  0
    6.7649   -3.0525   -1.9410 O   0  0  0  0  0  0  0  0  0  0  0  0
    6.6308   -1.8117    0.0597 O   0  0  0  0  0  0  0  0  0  0  0  0
    9.0277   -2.3199   -0.7896 H   0  0  0  0  0  0  0  0  0  0  0  0
    8.8672   -4.0885   -0.7766 H   0  0  0  0  0  0  0  0  0  0  0  0
    8.7075   -3.1700    0.7364 H   0  0  0  0  0  0  0  0  0  0  0  0
    6.8300   -5.0793    0.0328 H   0  0  0  0  0  0  0  0  0  0  0  0
    5.9867   -3.9286    1.0686 H   0  0  0  0  0  0  0  0  0  0  0  0
    5.0815   -5.3762   -1.2764 H   0  0  0  0  0  0  0  0  0  0  0  0
    3.0087   -4.6056   -1.0650 H   0  0  0  0  0  0  0  0  0  0  0  0
    2.3034   -4.8394    1.0439 H   0  0  0  0  0  0  0  0  0  0  0  0
    3.6786   -5.8978    0.8094 H   0  0  0  0  0  0  0  0  0  0  0  0
    4.6483   -6.0299    2.8588 H   0  0  0  0  0  0  0  0  0  0  0  0
    5.0106   -4.6169    3.7472 H   0  0  0  0  0  0  0  0  0  0  0  0
    2.8021   -4.2623    4.5039 H   0  0  0  0  0  0  0  0  0  0  0  0
    4.1629   -5.8080    5.5131 H   0  0  0  0  0  0  0  0  0  0  0  0
    1.4285   -4.8861    2.6403 H   0  0  0  0  0  0  0  0  0  0  0  0
    0.7116   -6.1213    5.2244 H   0  0  0  0  0  0  0  0  0  0  0  0
   -0.2148   -5.1038    4.1134 H   0  0  0  0  0  0  0  0  0  0  0  0
   -0.7005   -6.9038    2.6342 H   0  0  0  0  0  0  0  0  0  0  0  0
   -1.6833   -7.3915    4.9086 H   0  0  0  0  0  0  0  0  0  0  0  0
   -1.4995   -8.8006    3.8437 H   0  0  0  0  0  0  0  0  0  0  0  0
    0.3825   -8.0793    6.1675 H   0  0  0  0  0  0  0  0  0  0  0  0
   -0.7259   -9.4232    6.0961 H   0  0  0  0  0  0  0  0  0  0  0  0
    1.5938  -10.1548    5.5750 H   0  0  0  0  0  0  0  0  0  0  0  0
    0.5257  -10.4561    4.1980 H   0  0  0  0  0  0  0  0  0  0  0  0
    2.4706   -8.1412    4.6787 H   0  0  0  0  0  0  0  0  0  0  0  0
    2.6746   -9.3803    3.4506 H   0  0  0  0  0  0  0  0  0  0  0  0
    0.8668   -8.5258    2.0691 H   0  0  0  0  0  0  0  0  0  0  0  0
    2.2254   -2.6349    0.0698 H   0  0  0  0  0  0  0  0  0  0  0  0
    3.4864   -0.8305    0.7508 H   0  0  0  0  0  0  0  0  0  0  0  0
    4.4399   -2.0965    1.4435 H   0  0  0  0  0  0  0  0  0  0  0  0
    5.5615   -0.1616    0.2502 H   0  0  0  0  0  0  0  0  0  0  0  0
    4.5465   -0.0370   -1.8688 H   0  0  0  0  0  0  0  0  0  0  0  0
    6.1330   -0.6855   -2.1838 H   0  0  0  0  0  0  0  0  0  0  0  0
    4.5150   -1.9298   -3.4537 H   0  0  0  0  0  0  0  0  0  0  0  0
    2.5419   -2.9442   -2.4143 H   0  0  0  0  0  0  0  0  0  0  0  0
    2.6149   -1.2766   -1.9248 H   0  0  0  0  0  0  0  0  0  0  0  0
    5.3265   -4.0368   -3.0728 H   0  0  0  0  0  0  0  0  0  0  0  0
  2  1  1  6
  1 29  1  0
  1 30  1  0
  1 31  1  0
  2 27  1  0
  2 28  1  0
  2  3  1  0
  3  4  1  0
  3 32  1  0
  3 33  1  0
  4 26  1  0
  4  5  1  0
  4 34  1  6
  5  6  1  0
  5 20  1  0
  5 35  1  6
  6  7  1  0
  6 36  1  0
  6 37  1  0
  7  8  1  0
  8  9  1  0
  8 38  1  0
  8 39  1  0
  9 10  1  0
  9 11  1  0
  9 40  1  1
 10 41  1  0
 11 19  1  0
 11 12  1  0
 11 42  1  6
 12 13  1  0
 12 43  1  0
 12 44  1  0
 13 18  1  0
 13 14  1  0
 13 45  1  6
 14 15  1  0
 14 46  1  0
 14 47  1  0
 15 16  1  0
 15 48  1  0
 15 49  1  0
 16 17  1  0
 16 50  1  0
 16 51  1  0
 17 18  1  0
 17 52  1  0
 17 53  1  0
 18 19  1  0
 18 54  1  6
 20 25  1  0
 20 21  1  0
 20 55  1  1
 21 22  1  0
 21 56  1  0
 21 57  1  0
 22 23  1  0
 22 28  1  0
 22 58  1  1
 23 24  1  0
 23 59  1  0
 23 60  1  0
 24 25  1  0
 24 26  1  0
 24 61  1  6
 25 62  1  0
 25 63  1  0
 26 27  1  0
 26 64  1  6
M  END
>  <i_m_ct_stereo_status>  (305) 
1

>  <s_m_source_file>  (305) 
/var/tmp/pbs.5076255.sched01/tmpr9sv22dd/120oksnzf6p.sdf

>  <i_m_source_file_index>  (305) 
11

>  <i_lp_mmshare_version>  (305) 
48012

>  <i_f3d_flags>  (305) 
0

>  <s_epik_input>  (305) 
W0NIM11bQ0BdMTJbQ0gyXVtDQEBIXTNbQ0BIXShPMSlbQ0BASF00W0NIMl1bQ0BIXShPMilbQ0gyXVtDQEBIXShbQ0gyXTQpW0NAQEhdM1tDSDJdT1tDSDJdW0NASF0oW09IXSlbQ0BIXShbQ0gyXTUpT1tDQEhdKFtDQEhdNTYpW0NIMl1bQ0gyXVtDSDJdW0NIMl02

>  <s_epik_cmdline>  (305) 
J2VwaWtfcHl0aG9uJywgJy1waHQnLCAnMi4wJywgJy1waCcsICc3LjAnLCAnLXRuJywgJzgnLCAnLW1hJywgJzIwMCcsICctaW1hZScsICc8aW5maWxlLm1hZT4nLCAnLW9tYWUnLCAnPG91dGZpbGUubWFlPic=

>  <r_lp_tautomer_probability>  (305) 
1

>  <r_epik_Ionization_Penalty>  (305) 
5.01305e-08

>  <r_epik_Ionization_Penalty_Charging>  (305) 
0

>  <r_epik_Ionization_Penalty_Neutral>  (305) 
5.01305e-08

>  <r_epik_State_Penalty>  (305) 
-0

>  <r_epik_Charging_Adjusted_Penalty>  (305) 
0

>  <i_epik_Tot_Q>  (305) 
0

>  <i_epik_Tot_abs_Q>  (305) 
0

>  <s_lp_Force_Field>  (305) 
OPLS3e

>  <r_lp_Energy>  (305) 
22.5326

>  <b_lp_Chiralities_Consistent>  (305) 
1

>  <s_lp_Variant>  (305) 
98:0-1

>  <s_i_glide_gridfile>  (305) 
pfpi4k_grid

>  <i_i_glide_lignum>  (305) 
11

>  <i_i_glide_rotatable_bonds>  (305) 
6

>  <r_i_docking_score>  (305) 
-2.10216

>  <r_i_glide_ligand_efficiency>  (305) 
-0.075077

>  <r_i_glide_ligand_efficiency_sa>  (305) 
-0.227978

>  <r_i_glide_ligand_efficiency_ln>  (305) 
-0.485239

>  <r_i_glide_gscore>  (305) 
-2.10216

>  <r_i_glide_lipo>  (305) 
-0.30843

>  <r_i_glide_hbond>  (305) 
-0.0121981

>  <r_i_glide_metal>  (305) 
-0

>  <r_i_glide_rewards>  (305) 
-0.813792

>  <r_i_glide_evdw>  (305) 
-24.582

>  <r_i_glide_ecoul>  (305) 
-1.63692

>  <r_i_glide_erotb>  (305) 
0.5069

>  <r_i_glide_esite>  (305) 
0

>  <r_i_glide_emodel>  (305) 
-23.5372

>  <r_i_glide_energy>  (305) 
-26.2189

>  <r_i_glide_einternal>  (305) 
6.74286

>  <r_i_glide_intrahb_reward>  (305) 
-0

>  <i_i_glide_confnum>  (305) 
5

>  <i_i_glide_posenum>  (305) 
31

>  <r_i_glide_eff_state_penalty>  (305) 
0

>  <ligand_id>  (305) 
98

>  <original_smiles>  (305) 
CC12CC3C(COCC(O)C4CC5CCCCC5O4)C4CC(CC(C4)C3O1)O2

>  <smiles>  (305) 
[H]OC([H])(C([H])([H])OC([H])([H])C1([H])C2([H])C([H])([H])C3([H])OC4(C([H])([H])[H])OC([H])(C([H])(C3([H])[H])C2([H])[H])C1([H])C4([H])[H])C1([H])OC2([H])C([H])([H])C([H])([H])C([H])([H])C([H])([H])C2([H])C1([H])[H]

$$$$
98:0:2
     RDKit          3D

 64 69  0  0  1  0  0  0  0  0999 V2000
    2.2104   -3.3672   -3.7626 C   0  0  0  0  0  0  0  0  0  0  0  0
    3.2025   -2.9338   -2.6992 C   0  0  2  0  0  0  0  0  0  0  0  0
    2.6203   -2.9162   -1.3120 C   0  0  0  0  0  0  0  0  0  0  0  0
    3.3698   -1.7555   -0.6460 C   0  0  1  0  0  0  0  0  0  0  0  0
    4.1676   -2.0868    0.6430 C   0  0  1  0  0  0  0  0  0  0  0  0
    3.4425   -2.8878    1.7423 C   0  0  0  0  0  0  0  0  0  0  0  0
    3.2952   -4.2347    1.3408 O   0  0  0  0  0  0  0  0  0  0  0  0
    3.1524   -5.1761    2.3920 C   0  0  0  0  0  0  0  0  0  0  0  0
    2.9918   -6.5632    1.7285 C   0  0  2  0  0  0  0  0  0  0  0  0
    1.6189   -6.8666    1.6341 O   0  0  0  0  0  0  0  0  0  0  0  0
    3.7642   -7.6943    2.4335 C   0  0  2  0  0  0  0  0  0  0  0  0
    3.5077   -9.1142    1.8915 C   0  0  0  0  0  0  0  0  0  0  0  0
    3.4220   -9.9417    3.1741 C   0  0  2  0  0  0  0  0  0  0  0  0
    2.5690  -11.2134    3.0596 C   0  0  0  0  0  0  0  0  0  0  0  0
    1.0581  -10.9172    3.0187 C   0  0  0  0  0  0  0  0  0  0  0  0
    0.6170  -10.0634    4.2137 C   0  0  0  0  0  0  0  0  0  0  0  0
    1.3802   -8.7235    4.1922 C   0  0  0  0  0  0  0  0  0  0  0  0
    2.9093   -8.9409    4.2202 C   0  0  2  0  0  0  0  0  0  0  0  0
    3.5134   -7.6808    3.8644 O   0  0  0  0  0  0  0  0  0  0  0  0
    5.5801   -2.6130    0.3292 C   0  0  1  0  0  0  0  0  0  0  0  0
    5.6010   -3.9275   -0.5329 C   0  0  0  0  0  0  0  0  0  0  0  0
    5.4635   -3.7636   -2.0796 C   0  0  2  0  0  0  0  0  0  0  0  0
    6.1464   -2.5419   -2.6059 C   0  0  0  0  0  0  0  0  0  0  0  0
    5.7130   -1.3145   -1.7997 C   0  0  2  0  0  0  0  0  0  0  0  0
    6.3097   -1.4677   -0.3884 C   0  0  0  0  0  0  0  0  0  0  0  0
    4.1792   -1.1021   -1.7951 C   0  0  1  0  0  0  0  0  0  0  0  0
    3.6107   -1.6399   -2.9794 O   0  0  0  0  0  0  0  0  0  0  0  0
    4.2154   -3.8700   -2.7492 O   0  0  0  0  0  0  0  0  0  0  0  0
    2.7094   -3.4297   -4.7290 H   0  0  0  0  0  0  0  0  0  0  0  0
    1.3809   -2.6722   -3.8175 H   0  0  0  0  0  0  0  0  0  0  0  0
    1.8304   -4.3475   -3.4886 H   0  0  0  0  0  0  0  0  0  0  0  0
    1.5695   -2.6735   -1.4521 H   0  0  0  0  0  0  0  0  0  0  0  0
    2.7150   -3.9063   -0.8647 H   0  0  0  0  0  0  0  0  0  0  0  0
    2.6375   -1.0187   -0.3215 H   0  0  0  0  0  0  0  0  0  0  0  0
    4.3222   -1.1193    1.1252 H   0  0  0  0  0  0  0  0  0  0  0  0
    4.0296   -2.8363    2.6591 H   0  0  0  0  0  0  0  0  0  0  0  0
    2.4659   -2.4616    1.9643 H   0  0  0  0  0  0  0  0  0  0  0  0
    4.0463   -5.1471    3.0021 H   0  0  0  0  0  0  0  0  0  0  0  0
    2.3233   -4.9359    3.0654 H   0  0  0  0  0  0  0  0  0  0  0  0
    3.4226   -6.4864    0.7173 H   0  0  0  0  0  0  0  0  0  0  0  0
    1.4967   -7.7733    1.3465 H   0  0  0  0  0  0  0  0  0  0  0  0
    4.8211   -7.5025    2.3565 H   0  0  0  0  0  0  0  0  0  0  0  0
    2.5689   -9.1792    1.3343 H   0  0  0  0  0  0  0  0  0  0  0  0
    4.3222   -9.4649    1.2451 H   0  0  0  0  0  0  0  0  0  0  0  0
    4.4401  -10.2391    3.4501 H   0  0  0  0  0  0  0  0  0  0  0  0
    2.8833  -11.7813    2.1841 H   0  0  0  0  0  0  0  0  0  0  0  0
    2.7594  -11.8573    3.9299 H   0  0  0  0  0  0  0  0  0  0  0  0
    0.7897  -10.3955    2.0954 H   0  0  0  0  0  0  0  0  0  0  0  0
    0.5089  -11.8533    3.0041 H   0  0  0  0  0  0  0  0  0  0  0  0
   -0.4519   -9.8596    4.1451 H   0  0  0  0  0  0  0  0  0  0  0  0
    0.7633  -10.6190    5.1410 H   0  0  0  0  0  0  0  0  0  0  0  0
    1.0965   -8.1354    3.3457 H   0  0  0  0  0  0  0  0  0  0  0  0
    1.1103   -8.1566    5.0853 H   0  0  0  0  0  0  0  0  0  0  0  0
    3.2714   -9.2274    5.2027 H   0  0  0  0  0  0  0  0  0  0  0  0
    6.0903   -2.7938    1.2809 H   0  0  0  0  0  0  0  0  0  0  0  0
    6.5860   -4.3736   -0.3501 H   0  0  0  0  0  0  0  0  0  0  0  0
    4.8677   -4.6630   -0.2087 H   0  0  0  0  0  0  0  0  0  0  0  0
    5.9189   -4.6161   -2.5514 H   0  0  0  0  0  0  0  0  0  0  0  0
    7.2323   -2.6593   -2.6015 H   0  0  0  0  0  0  0  0  0  0  0  0
    5.8157   -2.4444   -3.6368 H   0  0  0  0  0  0  0  0  0  0  0  0
    6.0908   -0.4258   -2.2593 H   0  0  0  0  0  0  0  0  0  0  0  0
    6.2262   -0.5146    0.1412 H   0  0  0  0  0  0  0  0  0  0  0  0
    7.3756   -1.6863   -0.4480 H   0  0  0  0  0  0  0  0  0  0  0  0
    4.0262   -0.0295   -1.8842 H   0  0  0  0  0  0  0  0  0  0  0  0
  2  1  1  6
  1 29  1  0
  1 30  1  0
  1 31  1  0
  2 27  1  0
  2 28  1  0
  2  3  1  0
  3  4  1  0
  3 32  1  0
  3 33  1  0
  4 26  1  0
  4  5  1  0
  4 34  1  1
  5  6  1  0
  5 20  1  0
  5 35  1  1
  6  7  1  0
  6 36  1  0
  6 37  1  0
  7  8  1  0
  8  9  1  0
  8 38  1  0
  8 39  1  0
  9 10  1  0
  9 11  1  0
  9 40  1  6
 10 41  1  0
 11 19  1  0
 11 12  1  0
 11 42  1  1
 12 13  1  0
 12 43  1  0
 12 44  1  0
 13 18  1  0
 13 14  1  0
 13 45  1  1
 14 15  1  0
 14 46  1  0
 14 47  1  0
 15 16  1  0
 15 48  1  0
 15 49  1  0
 16 17  1  0
 16 50  1  0
 16 51  1  0
 17 18  1  0
 17 52  1  0
 17 53  1  0
 18 19  1  0
 18 54  1  1
 20 25  1  0
 20 21  1  0
 20 55  1  1
 21 22  1  0
 21 56  1  0
 21 57  1  0
 22 23  1  0
 22 28  1  0
 22 58  1  6
 23 24  1  0
 23 59  1  0
 23 60  1  0
 24 25  1  0
 24 26  1  0
 24 61  1  6
 25 62  1  0
 25 63  1  0
 26 27  1  0
 26 64  1  6
M  END
>  <i_m_ct_stereo_status>  (306) 
1

>  <s_m_source_file>  (306) 
/var/tmp/pbs.5076255.sched01/tmpr9sv22dd/120oksnzf6p.sdf

>  <i_m_source_file_index>  (306) 
11

>  <i_lp_mmshare_version>  (306) 
48012

>  <i_f3d_flags>  (306) 
0

>  <s_epik_input>  (306) 
W0NIM11bQ0BdMTJbQ0gyXVtDQEBIXTNbQ0BIXShPMSlbQ0BASF00W0NIMl1bQ0BIXShPMilbQ0gyXVtDQEBIXShbQ0gyXTQpW0NAQEhdM1tDSDJdT1tDSDJdW0NASF0oW09IXSlbQ0BIXShbQ0gyXTUpT1tDQEhdKFtDQEhdNTYpW0NIMl1bQ0gyXVtDSDJdW0NIMl02

>  <s_epik_cmdline>  (306) 
J2VwaWtfcHl0aG9uJywgJy1waHQnLCAnMi4wJywgJy1waCcsICc3LjAnLCAnLXRuJywgJzgnLCAnLW1hJywgJzIwMCcsICctaW1hZScsICc8aW5maWxlLm1hZT4nLCAnLW9tYWUnLCAnPG91dGZpbGUubWFlPic=

>  <r_lp_tautomer_probability>  (306) 
1

>  <r_epik_Ionization_Penalty>  (306) 
5.01305e-08

>  <r_epik_Ionization_Penalty_Charging>  (306) 
0

>  <r_epik_Ionization_Penalty_Neutral>  (306) 
5.01305e-08

>  <r_epik_State_Penalty>  (306) 
-0

>  <r_epik_Charging_Adjusted_Penalty>  (306) 
0

>  <i_epik_Tot_Q>  (306) 
0

>  <i_epik_Tot_abs_Q>  (306) 
0

>  <s_lp_Force_Field>  (306) 
OPLS3e

>  <r_lp_Energy>  (306) 
22.5326

>  <b_lp_Chiralities_Consistent>  (306) 
1

>  <s_lp_Variant>  (306) 
98:0-1

>  <s_i_glide_gridfile>  (306) 
pfpi4k_grid

>  <i_i_glide_lignum>  (306) 
11

>  <i_i_glide_rotatable_bonds>  (306) 
6

>  <r_i_docking_score>  (306) 
-1.7041

>  <r_i_glide_ligand_efficiency>  (306) 
-0.0608607

>  <r_i_glide_ligand_efficiency_sa>  (306) 
-0.184809

>  <r_i_glide_ligand_efficiency_ln>  (306) 
-0.393356

>  <r_i_glide_gscore>  (306) 
-1.7041

>  <r_i_glide_lipo>  (306) 
-0.524115

>  <r_i_glide_hbond>  (306) 
0

>  <r_i_glide_metal>  (306) 
-0

>  <r_i_glide_rewards>  (306) 
-0.732757

>  <r_i_glide_evdw>  (306) 
-12.7822

>  <r_i_glide_ecoul>  (306) 
-1.89876

>  <r_i_glide_erotb>  (306) 
0.5069

>  <r_i_glide_esite>  (306) 
-0.0302022

>  <r_i_glide_emodel>  (306) 
-13.0383

>  <r_i_glide_energy>  (306) 
-14.681

>  <r_i_glide_einternal>  (306) 
7.23892

>  <r_i_glide_intrahb_reward>  (306) 
-0

>  <i_i_glide_confnum>  (306) 
5

>  <i_i_glide_posenum>  (306) 
3

>  <r_i_glide_eff_state_penalty>  (306) 
0

>  <ligand_id>  (306) 
98

>  <original_smiles>  (306) 
CC12CC3C(COCC(O)C4CC5CCCCC5O4)C4CC(CC(C4)C3O1)O2

>  <smiles>  (306) 
[H]OC([H])(C([H])([H])OC([H])([H])C1([H])C2([H])C([H])([H])C3([H])OC4(C([H])([H])[H])OC([H])(C([H])(C3([H])[H])C2([H])[H])C1([H])C4([H])[H])C1([H])OC2([H])C([H])([H])C([H])([H])C([H])([H])C([H])([H])C2([H])C1([H])[H]

$$$$
99:0:0
     RDKit          3D

 77 82  0  0  1  0  0  0  0  0999 V2000
    3.9488    0.8617   -3.4723 C   0  0  0  0  0  0  0  0  0  0  0  0
    4.2202   -0.4833   -3.3023 O   0  0  0  0  0  0  0  0  0  0  0  0
    4.3596   -1.1936   -4.4827 C   0  0  2  0  0  0  0  0  0  0  0  0
    3.3445   -0.6285   -5.5236 C   0  0  0  0  0  0  0  0  0  0  0  0
    4.3518   -2.6979   -4.1204 C   0  0  2  0  0  0  0  0  0  0  0  0
    3.0112   -3.2311   -3.6846 C   0  0  0  0  0  0  0  0  0  0  0  0
    2.6908   -2.8532   -2.2408 C   0  0  1  0  0  0  0  0  0  0  0  0
    1.3892   -3.5571   -1.9010 C   0  0  0  0  0  0  0  0  0  0  0  0
    3.8765   -3.2205   -1.3010 C   0  0  1  0  0  0  0  0  0  0  0  0
    5.2495   -2.7094   -1.8471 C   0  0  2  0  0  0  0  0  0  0  0  0
    5.3955   -3.0998   -3.2187 O   0  0  0  0  0  0  0  0  0  0  0  0
    6.4699   -3.2294   -1.0680 C   0  0  1  0  0  0  0  0  0  0  0  0
    7.6279   -2.5305   -1.4865 O   0  0  0  0  0  0  0  0  0  0  0  0
    6.3721   -3.0320    0.4746 C   0  0  1  0  0  0  0  0  0  0  0  0
    6.7627   -1.7104    0.8100 O   0  0  0  0  0  0  0  0  0  0  0  0
    4.9700   -3.4639    1.0170 C   0  0  2  0  0  0  0  0  0  0  0  0
    4.9767   -5.0234    0.7871 C   0  0  0  0  0  0  0  0  0  0  0  0
    3.7976   -2.7853    0.2074 C   0  0  1  0  0  0  0  0  0  0  0  0
    3.7195   -1.2220    0.2580 C   0  0  0  0  0  0  0  0  0  0  0  0
    2.6029   -3.2685    1.0452 C   0  0  0  0  0  0  0  0  0  0  0  0
    3.0259   -3.3086    2.5345 C   0  0  1  0  0  0  0  0  0  0  0  0
    2.5733   -4.4799    3.4150 C   0  0  1  0  0  0  0  0  0  0  0  0
    1.6279   -5.3782    2.8695 O   0  0  0  0  0  0  0  0  0  0  0  0
    3.8151   -5.2634    3.8173 C   0  0  0  0  0  0  0  0  0  0  0  0
    5.0015   -4.3144    3.5698 C   0  0  0  0  0  0  0  0  0  0  0  0
    4.5555   -3.2289    2.5343 C   0  0  1  0  0  0  0  0  0  0  0  0
    4.8760   -1.8426    3.1758 C   0  0  0  0  0  0  0  0  0  0  0  0
    3.6918   -1.4716    4.0912 C   0  0  1  0  0  0  0  0  0  0  0  0
    3.5121    0.0555    4.2088 C   0  0  0  0  0  0  0  0  0  0  0  0
    2.4943   -2.2919    3.5741 C   0  0  1  0  0  0  0  0  0  0  0  0
    1.4584   -1.4990    2.9858 O   0  0  0  0  0  0  0  0  0  0  0  0
    0.4736   -0.9410    3.8499 C   0  0  0  0  0  0  0  0  0  0  0  0
    1.9752   -3.4788    4.4090 C   0  0  0  0  0  0  0  0  0  0  0  0
    4.1031    1.0171   -2.4478 H   0  0  0  0  0  0  0  0  0  0  0  0
    2.9504    0.9382   -3.8276 H   0  0  0  0  0  0  0  0  0  0  0  0
    4.5935    1.4823   -4.0527 H   0  0  0  0  0  0  0  0  0  0  0  0
    5.3438   -0.9594   -4.7963 H   0  0  0  0  0  0  0  0  0  0  0  0
    3.4218   -1.0507   -6.5050 H   0  0  0  0  0  0  0  0  0  0  0  0
    3.4610    0.4105   -5.7535 H   0  0  0  0  0  0  0  0  0  0  0  0
    2.3498   -0.7701   -5.0743 H   0  0  0  0  0  0  0  0  0  0  0  0
    4.5641   -3.2932   -5.0017 H   0  0  0  0  0  0  0  0  0  0  0  0
    2.2184   -2.9265   -4.3645 H   0  0  0  0  0  0  0  0  0  0  0  0
    3.0706   -4.2963   -3.8289 H   0  0  0  0  0  0  0  0  0  0  0  0
    2.4817   -1.7886   -2.2516 H   0  0  0  0  0  0  0  0  0  0  0  0
    1.4740   -4.6321   -1.7377 H   0  0  0  0  0  0  0  0  0  0  0  0
    0.6944   -3.3795   -2.7035 H   0  0  0  0  0  0  0  0  0  0  0  0
    0.9309   -3.0995   -1.0534 H   0  0  0  0  0  0  0  0  0  0  0  0
    3.8702   -4.3006   -1.3763 H   0  0  0  0  0  0  0  0  0  0  0  0
    5.3611   -1.6429   -1.7232 H   0  0  0  0  0  0  0  0  0  0  0  0
    6.5895   -4.2454   -1.2943 H   0  0  0  0  0  0  0  0  0  0  0  0
    7.8644   -1.9694   -0.7651 H   0  0  0  0  0  0  0  0  0  0  0  0
    7.1364   -3.6601    0.9302 H   0  0  0  0  0  0  0  0  0  0  0  0
    6.7221   -1.6279    1.7511 H   0  0  0  0  0  0  0  0  0  0  0  0
    4.0374   -5.5072    1.0380 H   0  0  0  0  0  0  0  0  0  0  0  0
    5.7588   -5.5143    1.3602 H   0  0  0  0  0  0  0  0  0  0  0  0
    5.1934   -5.3482   -0.2246 H   0  0  0  0  0  0  0  0  0  0  0  0
    3.3310   -0.8404    1.1972 H   0  0  0  0  0  0  0  0  0  0  0  0
    3.0144   -0.8233   -0.4720 H   0  0  0  0  0  0  0  0  0  0  0  0
    4.6526   -0.7080    0.0601 H   0  0  0  0  0  0  0  0  0  0  0  0
    1.7626   -2.5982    0.8990 H   0  0  0  0  0  0  0  0  0  0  0  0
    2.2778   -4.2495    0.6985 H   0  0  0  0  0  0  0  0  0  0  0  0
    1.7149   -6.1855    3.3525 H   0  0  0  0  0  0  0  0  0  0  0  0
    3.7851   -5.5999    4.8542 H   0  0  0  0  0  0  0  0  0  0  0  0
    3.9373   -6.1605    3.2078 H   0  0  0  0  0  0  0  0  0  0  0  0
    5.2056   -3.8398    4.5276 H   0  0  0  0  0  0  0  0  0  0  0  0
    5.9314   -4.8206    3.3248 H   0  0  0  0  0  0  0  0  0  0  0  0
    5.8095   -1.8483    3.7323 H   0  0  0  0  0  0  0  0  0  0  0  0
    4.9951   -1.0547    2.4430 H   0  0  0  0  0  0  0  0  0  0  0  0
    3.9455   -1.8313    5.0906 H   0  0  0  0  0  0  0  0  0  0  0  0
    3.1761    0.4942    3.2688 H   0  0  0  0  0  0  0  0  0  0  0  0
    4.4479    0.5349    4.4870 H   0  0  0  0  0  0  0  0  0  0  0  0
    2.8040    0.3268    4.9879 H   0  0  0  0  0  0  0  0  0  0  0  0
   -0.0007   -0.1057    3.3312 H   0  0  0  0  0  0  0  0  0  0  0  0
    0.8688   -0.5603    4.7882 H   0  0  0  0  0  0  0  0  0  0  0  0
   -0.3010   -1.6662    4.0956 H   0  0  0  0  0  0  0  0  0  0  0  0
    0.8912   -3.5482    4.4734 H   0  0  0  0  0  0  0  0  0  0  0  0
    2.4368   -3.5477    5.3954 H   0  0  0  0  0  0  0  0  0  0  0  0
  1  2  1  0
  1 34  1  0
  1 35  1  0
  1 36  1  0
  2  3  1  0
  3  4  1  0
  3  5  1  0
  3 37  1  6
  4 38  1  0
  4 39  1  0
  4 40  1  0
  5 11  1  0
  5  6  1  0
  5 41  1  6
  6  7  1  0
  6 42  1  0
  6 43  1  0
  7  8  1  0
  7  9  1  0
  7 44  1  6
  8 45  1  0
  8 46  1  0
  8 47  1  0
  9 18  1  0
  9 10  1  0
  9 48  1  1
 10 11  1  0
 10 12  1  0
 10 49  1  6
 12 13  1  0
 12 14  1  0
 12 50  1  1
 13 51  1  0
 14 15  1  0
 14 16  1  0
 14 52  1  1
 15 53  1  0
 16 26  1  0
 16 17  1  6
 16 18  1  0
 17 54  1  0
 17 55  1  0
 17 56  1  0
 18 19  1  6
 18 20  1  0
 19 57  1  0
 19 58  1  0
 19 59  1  0
 21 20  1  6
 20 60  1  0
 20 61  1  0
 21 26  1  0
 21 30  1  0
 21 22  1  0
 22 33  1  0
 22 23  1  6
 22 24  1  0
 23 62  1  0
 24 25  1  0
 24 63  1  0
 24 64  1  0
 26 25  1  1
 25 65  1  0
 25 66  1  0
 26 27  1  0
 27 28  1  0
 27 67  1  0
 27 68  1  0
 28 29  1  0
 28 30  1  0
 28 69  1  1
 29 70  1  0
 29 71  1  0
 29 72  1  0
 30 31  1  6
 30 33  1  0
 31 32  1  0
 32 73  1  0
 32 74  1  0
 32 75  1  0
 33 76  1  0
 33 77  1  0
M  END
>  <i_m_ct_stereo_status>  (307) 
1

>  <s_m_source_file>  (307) 
/var/tmp/pbs.5076255.sched01/tmpr9sv22dd/120oksnzf6p.sdf

>  <i_m_source_file_index>  (307) 
12

>  <i_lp_mmshare_version>  (307) 
48012

>  <i_f3d_flags>  (307) 
0

>  <s_epik_input>  (307) 
W0NIM11PW0NASF0oW0NIM10pW0NASF0oW0NIMl1bQ0BIXTFbQ0gzXSlPW0NASF0oW0NAQEhdKFtPSF0pW0NASF0yW09IXSlbQ0BIXTFbQ0BAXShbQ0gzXSkoW0NIMl0zKVtDQF0yKFtDSDNdKVtDQEBdNChbQ0BAXTM1NilbQ0gyXVtDSDJdW0NAQF01KFtPSF0pW0NIMl1bQ0BdNihbQ0BASF0oW0NIMl00KVtDSDNdKU9bQ0gzXQ==

>  <s_epik_cmdline>  (307) 
J2VwaWtfcHl0aG9uJywgJy1waHQnLCAnMi4wJywgJy1waCcsICc3LjAnLCAnLXRuJywgJzgnLCAnLW1hJywgJzIwMCcsICctaW1hZScsICc8aW5maWxlLm1hZT4nLCAnLW9tYWUnLCAnPG91dGZpbGUubWFlPic=

>  <r_lp_tautomer_probability>  (307) 
1

>  <r_epik_Ionization_Penalty>  (307) 
1.10798e-06

>  <r_epik_Ionization_Penalty_Charging>  (307) 
0

>  <r_epik_Ionization_Penalty_Neutral>  (307) 
1.10798e-06

>  <r_epik_State_Penalty>  (307) 
-0

>  <r_epik_Charging_Adjusted_Penalty>  (307) 
0

>  <i_epik_Tot_Q>  (307) 
0

>  <i_epik_Tot_abs_Q>  (307) 
0

>  <s_lp_Force_Field>  (307) 
OPLS3e

>  <r_lp_Energy>  (307) 
95.6178

>  <b_lp_Chiralities_Consistent>  (307) 
1

>  <s_lp_Variant>  (307) 
99:0-1

>  <s_i_glide_gridfile>  (307) 
pfpi4k_grid

>  <i_i_glide_lignum>  (307) 
12

>  <i_i_glide_rotatable_bonds>  (307) 
6

>  <r_i_docking_score>  (307) 
-0.225422

>  <r_i_glide_ligand_efficiency>  (307) 
-0.00683098

>  <r_i_glide_ligand_efficiency_sa>  (307) 
-0.0219106

>  <r_i_glide_ligand_efficiency_ln>  (307) 
-0.0501327

>  <r_i_glide_gscore>  (307) 
-0.225422

>  <r_i_glide_lipo>  (307) 
-0.613855

>  <r_i_glide_hbond>  (307) 
0

>  <r_i_glide_metal>  (307) 
-0

>  <r_i_glide_rewards>  (307) 
-0.241127

>  <r_i_glide_evdw>  (307) 
-3.03811

>  <r_i_glide_ecoul>  (307) 
2.77416

>  <r_i_glide_erotb>  (307) 
0.0933871

>  <r_i_glide_esite>  (307) 
0

>  <r_i_glide_emodel>  (307) 
9.43847

>  <r_i_glide_energy>  (307) 
-0.263942

>  <r_i_glide_einternal>  (307) 
12.1878

>  <r_i_glide_intrahb_reward>  (307) 
-0

>  <i_i_glide_confnum>  (307) 
1

>  <i_i_glide_posenum>  (307) 
18

>  <r_i_glide_eff_state_penalty>  (307) 
0

>  <ligand_id>  (307) 
99

>  <original_smiles>  (307) 
COC(C)C1CC(C)C2C(O1)C(O)C(O)C1(C)C2(C)CC23C4(O)CCC12CC(C)C3(OC)C4

>  <smiles>  (307) 
[H]OC1([H])C2([H])OC([H])(C([H])(OC([H])([H])[H])C([H])([H])[H])C([H])([H])C([H])(C([H])([H])[H])C2([H])C2(C([H])([H])[H])C([H])([H])C34C5(O[H])C([H])([H])C([H])([H])C3(C([H])([H])C([H])(C([H])([H])[H])C4(OC([H])([H])[H])C5([H])[H])C2(C([H])([H])[H])C1([H])O[H]

$$$$
100:0:0
     RDKit          3D

 39 42  0  0  1  0  0  0  0  0999 V2000
    4.3806  -10.0440    2.9441 C   0  0  0  0  0  0  0  0  0  0  0  0
    3.6758   -8.7021    2.6620 C   0  0  2  0  0  0  0  0  0  0  0  0
    2.3656   -8.8632    1.8841 C   0  0  0  0  0  0  0  0  0  0  0  0
    1.6936   -7.5613    1.7907 N   0  0  0  0  0  0  0  0  0  0  0  0
    0.4339   -7.2987    2.2581 C   0  0  0  0  0  0  0  0  0  0  0  0
   -0.1682   -6.2756    1.9362 O   0  0  0  0  0  0  0  0  0  0  0  0
   -0.2698   -8.2826    3.1522 C   0  0  0  0  0  0  0  0  0  0  0  0
    0.3945   -8.7612    4.4474 C   0  0  0  0  0  0  0  0  0  0  0  0
    1.0693  -10.0201    4.5524 C   0  0  0  0  0  0  0  0  0  0  0  0
    1.8737  -10.2943    5.6435 C   0  0  0  0  0  0  0  0  0  0  0  0
    1.8354   -9.4098    6.7329 C   0  0  0  0  0  0  0  0  0  0  0  0
    1.0377   -8.2511    6.6157 C   0  0  0  0  0  0  0  0  0  0  0  0
    0.3787   -7.8948    5.4885 N   0  0  0  0  0  0  0  0  0  0  0  0
   -1.7883   -8.1129    3.2671 C   0  0  0  0  0  0  0  0  0  0  0  0
   -1.2404   -9.2596    2.4843 C   0  0  0  0  0  0  0  0  0  0  0  0
    2.5356   -6.5691    1.1998 C   0  0  0  0  0  0  0  0  0  0  0  0
    2.0545   -5.4797    0.5495 N   0  0  0  0  0  0  0  0  0  0  0  0
    2.9013   -4.5739    0.0260 C   0  0  0  0  0  0  0  0  0  0  0  0
    4.2923   -4.7177    0.0904 C   0  0  0  0  0  0  0  0  0  0  0  0
    4.8347   -5.8527    0.6947 C   0  0  0  0  0  0  0  0  0  0  0  0
    3.9718   -6.7931    1.2696 C   0  0  0  0  0  0  0  0  0  0  0  0
    4.5388   -7.9021    1.8491 O   0  0  0  0  0  0  0  0  0  0  0  0
    3.7814  -10.6816    3.5911 H   0  0  0  0  0  0  0  0  0  0  0  0
    5.3487   -9.9005    3.4359 H   0  0  0  0  0  0  0  0  0  0  0  0
    4.5561  -10.5999    2.0248 H   0  0  0  0  0  0  0  0  0  0  0  0
    3.5570   -8.1793    3.6319 H   0  0  0  0  0  0  0  0  0  0  0  0
    2.4996   -9.3586    0.9318 H   0  0  0  0  0  0  0  0  0  0  0  0
    1.6815   -9.5810    2.3378 H   0  0  0  0  0  0  0  0  0  0  0  0
    1.0606  -10.7567    3.7589 H   0  0  0  0  0  0  0  0  0  0  0  0
    2.4870  -11.1759    5.6343 H   0  0  0  0  0  0  0  0  0  0  0  0
    2.3620   -9.6675    7.6269 H   0  0  0  0  0  0  0  0  0  0  0  0
    0.9319   -7.5864    7.4712 H   0  0  0  0  0  0  0  0  0  0  0  0
   -2.2544   -8.3300    4.2286 H   0  0  0  0  0  0  0  0  0  0  0  0
   -2.2926   -7.3409    2.6932 H   0  0  0  0  0  0  0  0  0  0  0  0
   -1.3651   -9.2187    1.4127 H   0  0  0  0  0  0  0  0  0  0  0  0
   -1.3145  -10.2615    2.9228 H   0  0  0  0  0  0  0  0  0  0  0  0
    2.4382   -3.7296   -0.4391 H   0  0  0  0  0  0  0  0  0  0  0  0
    4.9350   -3.9652   -0.3325 H   0  0  0  0  0  0  0  0  0  0  0  0
    5.8926   -6.0067    0.7693 H   0  0  0  0  0  0  0  0  0  0  0  0
  1  2  1  0
  1 23  1  0
  1 24  1  0
  1 25  1  0
  2 22  1  0
  2  3  1  0
  2 26  1  1
  3  4  1  0
  3 27  1  0
  3 28  1  0
  4  5  1  0
  4 16  1  0
  5  6  2  0
  5  7  1  0
  7 15  1  0
  7  8  1  0
  7 14  1  0
  8 13  1  0
  8  9  2  0
  9 10  1  0
  9 29  1  0
 10 11  2  0
 10 30  1  0
 11 12  1  0
 11 31  1  0
 12 13  2  0
 12 32  1  0
 14 15  1  0
 14 33  1  0
 14 34  1  0
 15 35  1  0
 15 36  1  0
 16 21  2  0
 16 17  1  0
 17 18  2  0
 18 19  1  0
 18 37  1  0
 19 20  2  0
 19 38  1  0
 20 21  1  0
 20 39  1  0
 21 22  1  0
M  END
>  <i_m_ct_stereo_status>  (308) 
1

>  <s_m_source_file>  (308) 
/var/tmp/pbs.5076255.sched01/tmpr9sv22dd/120oksnzf6p.sdf

>  <i_m_source_file_index>  (308) 
13

>  <i_lp_mmshare_version>  (308) 
48012

>  <i_f3d_flags>  (308) 
0

>  <s_epik_input>  (308) 
bjFbY0hdW2NIXVtjSF1jKGMxMilPW0NASF0oW0NIM10pW0NIMl1OMkMoPU8pQzMoW0NIMl1bQ0gyXTMpYzRbY0hdW2NIXVtjSF1bY0hdbjQ=

>  <s_epik_cmdline>  (308) 
J2VwaWtfcHl0aG9uJywgJy1waHQnLCAnMi4wJywgJy1waCcsICc3LjAnLCAnLXRuJywgJzgnLCAnLW1hJywgJzIwMCcsICctaW1hZScsICc8aW5maWxlLm1hZT4nLCAnLW9tYWUnLCAnPG91dGZpbGUubWFlPic=

>  <r_lp_tautomer_probability>  (308) 
1

>  <r_epik_Ionization_Penalty>  (308) 
0.0150957

>  <r_epik_Ionization_Penalty_Charging>  (308) 
0

>  <r_epik_Ionization_Penalty_Neutral>  (308) 
0.0150957

>  <r_epik_State_Penalty>  (308) 
0.0111333

>  <r_epik_Charging_Adjusted_Penalty>  (308) 
0.0111333

>  <i_epik_Tot_Q>  (308) 
0

>  <i_epik_Tot_abs_Q>  (308) 
0

>  <s_lp_Force_Field>  (308) 
OPLS3e

>  <r_lp_Energy>  (308) 
57.2453

>  <b_lp_Chiralities_Consistent>  (308) 
1

>  <s_lp_Variant>  (308) 
100:0-1

>  <s_i_glide_gridfile>  (308) 
pfpi4k_grid

>  <i_i_glide_lignum>  (308) 
13

>  <i_i_glide_rotatable_bonds>  (308) 
3

>  <r_i_docking_score>  (308) 
-3.92718

>  <r_i_glide_ligand_efficiency>  (308) 
-0.178508

>  <r_i_glide_ligand_efficiency_sa>  (308) 
-0.500188

>  <r_i_glide_ligand_efficiency_ln>  (308) 
-0.959947

>  <r_i_glide_gscore>  (308) 
-3.92718

>  <r_i_glide_lipo>  (308) 
-0.392514

>  <r_i_glide_hbond>  (308) 
-0.317768

>  <r_i_glide_metal>  (308) 
-0

>  <r_i_glide_rewards>  (308) 
-1.39544

>  <r_i_glide_evdw>  (308) 
-25.0998

>  <r_i_glide_ecoul>  (308) 
-7.40056

>  <r_i_glide_erotb>  (308) 
0.629514

>  <r_i_glide_esite>  (308) 
-0.0859059

>  <r_i_glide_emodel>  (308) 
-38.3548

>  <r_i_glide_energy>  (308) 
-32.5003

>  <r_i_glide_einternal>  (308) 
1.60707

>  <r_i_glide_intrahb_reward>  (308) 
-0

>  <i_i_glide_confnum>  (308) 
3

>  <i_i_glide_posenum>  (308) 
22

>  <r_i_glide_eff_state_penalty>  (308) 
0

>  <ligand_id>  (308) 
100

>  <original_smiles>  (308) 
CC1CN(C(=O)C2(c3ccccn3)CC2)c2ncccc2O1

>  <smiles>  (308) 
[H]c1nc(C2(C(=O)N3c4nc([H])c([H])c([H])c4OC([H])(C([H])([H])[H])C3([H])[H])C([H])([H])C2([H])[H])c([H])c([H])c1[H]

$$$$
100:0:1
     RDKit          3D

 39 42  0  0  1  0  0  0  0  0999 V2000
    4.4574  -10.0146    2.8933 C   0  0  0  0  0  0  0  0  0  0  0  0
    3.7181   -8.6893    2.6537 C   0  0  2  0  0  0  0  0  0  0  0  0
    2.3901   -8.8512    1.9109 C   0  0  0  0  0  0  0  0  0  0  0  0
    1.7139   -7.5753    1.8032 N   0  0  0  0  0  0  0  0  0  0  0  0
    0.4506   -7.3165    2.2713 C   0  0  0  0  0  0  0  0  0  0  0  0
   -0.1699   -6.2816    1.9853 O   0  0  0  0  0  0  0  0  0  0  0  0
   -0.2448   -8.3415    3.1657 C   0  0  0  0  0  0  0  0  0  0  0  0
    0.4541   -8.8693    4.4181 C   0  0  0  0  0  0  0  0  0  0  0  0
    0.4146   -8.1897    5.6334 C   0  0  0  0  0  0  0  0  0  0  0  0
    1.1739   -8.7071    6.7014 C   0  0  0  0  0  0  0  0  0  0  0  0
    2.0377   -9.8151    6.4822 C   0  0  0  0  0  0  0  0  0  0  0  0
    1.9860  -10.4453    5.2524 C   0  0  0  0  0  0  0  0  0  0  0  0
    1.1173  -10.0298    4.2832 N   0  0  0  0  0  0  0  0  0  0  0  0
   -1.7571   -8.1090    3.3327 C   0  0  0  0  0  0  0  0  0  0  0  0
   -1.2610   -9.2436    2.4658 C   0  0  0  0  0  0  0  0  0  0  0  0
    2.5520   -6.5623    1.2009 C   0  0  0  0  0  0  0  0  0  0  0  0
    2.0436   -5.4671    0.5698 N   0  0  0  0  0  0  0  0  0  0  0  0
    2.8784   -4.5532    0.0671 C   0  0  0  0  0  0  0  0  0  0  0  0
    4.2759   -4.6695    0.1195 C   0  0  0  0  0  0  0  0  0  0  0  0
    4.8247   -5.8168    0.7144 C   0  0  0  0  0  0  0  0  0  0  0  0
    3.9697   -6.7735    1.2656 C   0  0  0  0  0  0  0  0  0  0  0  0
    4.5633   -7.8783    1.8273 O   0  0  0  0  0  0  0  0  0  0  0  0
    3.8823  -10.6793    3.5168 H   0  0  0  0  0  0  0  0  0  0  0  0
    5.4125   -9.8630    3.3930 H   0  0  0  0  0  0  0  0  0  0  0  0
    4.6217  -10.5615    1.9647 H   0  0  0  0  0  0  0  0  0  0  0  0
    3.6031   -8.1817    3.6282 H   0  0  0  0  0  0  0  0  0  0  0  0
    2.5219   -9.3521    0.9612 H   0  0  0  0  0  0  0  0  0  0  0  0
    1.7606   -9.6293    2.2812 H   0  0  0  0  0  0  0  0  0  0  0  0
   -0.2302   -7.3206    5.7680 H   0  0  0  0  0  0  0  0  0  0  0  0
    1.1067   -8.2639    7.6972 H   0  0  0  0  0  0  0  0  0  0  0  0
    2.6335  -10.2504    7.2758 H   0  0  0  0  0  0  0  0  0  0  0  0
    2.6176  -11.2565    5.0097 H   0  0  0  0  0  0  0  0  0  0  0  0
   -2.1815   -8.3601    4.2962 H   0  0  0  0  0  0  0  0  0  0  0  0
   -2.2448   -7.2935    2.8168 H   0  0  0  0  0  0  0  0  0  0  0  0
   -1.3900   -9.1573    1.4106 H   0  0  0  0  0  0  0  0  0  0  0  0
   -1.3366  -10.2572    2.8766 H   0  0  0  0  0  0  0  0  0  0  0  0
    2.4130   -3.6938   -0.3874 H   0  0  0  0  0  0  0  0  0  0  0  0
    4.9088   -3.9049   -0.3013 H   0  0  0  0  0  0  0  0  0  0  0  0
    5.8904   -5.9389    0.7772 H   0  0  0  0  0  0  0  0  0  0  0  0
  1  2  1  0
  1 23  1  0
  1 24  1  0
  1 25  1  0
  2 22  1  0
  2  3  1  0
  2 26  1  1
  3  4  1  0
  3 27  1  0
  3 28  1  0
  4  5  1  0
  4 16  1  0
  5  6  2  0
  5  7  1  0
  7 15  1  0
  7  8  1  0
  7 14  1  0
  8 13  1  0
  8  9  2  0
  9 10  1  0
  9 29  1  0
 10 11  2  0
 10 30  1  0
 11 12  1  0
 11 31  1  0
 12 13  2  0
 12 32  1  0
 14 15  1  0
 14 33  1  0
 14 34  1  0
 15 35  1  0
 15 36  1  0
 16 21  2  0
 16 17  1  0
 17 18  2  0
 18 19  1  0
 18 37  1  0
 19 20  2  0
 19 38  1  0
 20 21  1  0
 20 39  1  0
 21 22  1  0
M  END
>  <i_m_ct_stereo_status>  (309) 
1

>  <s_m_source_file>  (309) 
/var/tmp/pbs.5076255.sched01/tmpr9sv22dd/120oksnzf6p.sdf

>  <i_m_source_file_index>  (309) 
13

>  <i_lp_mmshare_version>  (309) 
48012

>  <i_f3d_flags>  (309) 
0

>  <s_epik_input>  (309) 
bjFbY0hdW2NIXVtjSF1jKGMxMilPW0NASF0oW0NIM10pW0NIMl1OMkMoPU8pQzMoW0NIMl1bQ0gyXTMpYzRbY0hdW2NIXVtjSF1bY0hdbjQ=

>  <s_epik_cmdline>  (309) 
J2VwaWtfcHl0aG9uJywgJy1waHQnLCAnMi4wJywgJy1waCcsICc3LjAnLCAnLXRuJywgJzgnLCAnLW1hJywgJzIwMCcsICctaW1hZScsICc8aW5maWxlLm1hZT4nLCAnLW9tYWUnLCAnPG91dGZpbGUubWFlPic=

>  <r_lp_tautomer_probability>  (309) 
1

>  <r_epik_Ionization_Penalty>  (309) 
0.0150957

>  <r_epik_Ionization_Penalty_Charging>  (309) 
0

>  <r_epik_Ionization_Penalty_Neutral>  (309) 
0.0150957

>  <r_epik_State_Penalty>  (309) 
0.0111333

>  <r_epik_Charging_Adjusted_Penalty>  (309) 
0.0111333

>  <i_epik_Tot_Q>  (309) 
0

>  <i_epik_Tot_abs_Q>  (309) 
0

>  <s_lp_Force_Field>  (309) 
OPLS3e

>  <r_lp_Energy>  (309) 
57.2453

>  <b_lp_Chiralities_Consistent>  (309) 
1

>  <s_lp_Variant>  (309) 
100:0-1

>  <s_i_glide_gridfile>  (309) 
pfpi4k_grid

>  <i_i_glide_lignum>  (309) 
13

>  <i_i_glide_rotatable_bonds>  (309) 
3

>  <r_i_docking_score>  (309) 
-3.78641

>  <r_i_glide_ligand_efficiency>  (309) 
-0.172109

>  <r_i_glide_ligand_efficiency_sa>  (309) 
-0.482257

>  <r_i_glide_ligand_efficiency_ln>  (309) 
-0.925536

>  <r_i_glide_gscore>  (309) 
-3.78641

>  <r_i_glide_lipo>  (309) 
-0.396984

>  <r_i_glide_hbond>  (309) 
-0.314951

>  <r_i_glide_metal>  (309) 
-0

>  <r_i_glide_rewards>  (309) 
-1.39544

>  <r_i_glide_evdw>  (309) 
-25.4898

>  <r_i_glide_ecoul>  (309) 
-6.33691

>  <r_i_glide_erotb>  (309) 
0.629514

>  <r_i_glide_esite>  (309) 
-0.08352

>  <r_i_glide_emodel>  (309) 
-36.6532

>  <r_i_glide_energy>  (309) 
-31.8267

>  <r_i_glide_einternal>  (309) 
1.86927

>  <r_i_glide_intrahb_reward>  (309) 
-0

>  <i_i_glide_confnum>  (309) 
3

>  <i_i_glide_posenum>  (309) 
1

>  <r_i_glide_eff_state_penalty>  (309) 
0

>  <ligand_id>  (309) 
100

>  <original_smiles>  (309) 
CC1CN(C(=O)C2(c3ccccn3)CC2)c2ncccc2O1

>  <smiles>  (309) 
[H]c1nc(C2(C(=O)N3c4nc([H])c([H])c([H])c4OC([H])(C([H])([H])[H])C3([H])[H])C([H])([H])C2([H])[H])c([H])c([H])c1[H]

$$$$
100:0:2
     RDKit          3D

 39 42  0  0  1  0  0  0  0  0999 V2000
    6.9964   -5.9621    1.2639 C   0  0  0  0  0  0  0  0  0  0  0  0
    5.5438   -6.0201    0.7728 C   0  0  2  0  0  0  0  0  0  0  0  0
    4.8589   -4.6735    0.9317 C   0  0  0  0  0  0  0  0  0  0  0  0
    3.4743   -4.7463    0.4392 N   0  0  0  0  0  0  0  0  0  0  0  0
    2.9741   -3.8272   -0.4474 C   0  0  0  0  0  0  0  0  0  0  0  0
    1.8479   -3.9345   -0.9486 O   0  0  0  0  0  0  0  0  0  0  0  0
    3.8178   -2.6378   -0.8735 C   0  0  0  0  0  0  0  0  0  0  0  0
    4.3301   -1.7107    0.2034 C   0  0  0  0  0  0  0  0  0  0  0  0
    3.4662   -0.9634    1.0239 C   0  0  0  0  0  0  0  0  0  0  0  0
    4.0101   -0.2068    2.0752 C   0  0  0  0  0  0  0  0  0  0  0  0
    5.4062   -0.2571    2.2847 C   0  0  0  0  0  0  0  0  0  0  0  0
    6.1862   -1.0185    1.4067 C   0  0  0  0  0  0  0  0  0  0  0  0
    5.6731   -1.7021    0.3662 N   0  0  0  0  0  0  0  0  0  0  0  0
    4.6267   -2.8232   -2.1518 C   0  0  0  0  0  0  0  0  0  0  0  0
    3.3987   -1.9694   -2.1812 C   0  0  0  0  0  0  0  0  0  0  0  0
    2.7348   -5.9038    0.8881 C   0  0  0  0  0  0  0  0  0  0  0  0
    1.3713   -5.9572    0.8751 N   0  0  0  0  0  0  0  0  0  0  0  0
    0.7382   -7.0718    1.2845 C   0  0  0  0  0  0  0  0  0  0  0  0
    1.4113   -8.2037    1.7611 C   0  0  0  0  0  0  0  0  0  0  0  0
    2.8088   -8.1712    1.8121 C   0  0  0  0  0  0  0  0  0  0  0  0
    3.4799   -7.0154    1.3836 C   0  0  0  0  0  0  0  0  0  0  0  0
    4.8531   -7.0293    1.4853 O   0  0  0  0  0  0  0  0  0  0  0  0
    7.5669   -5.1975    0.7330 H   0  0  0  0  0  0  0  0  0  0  0  0
    7.5046   -6.9126    1.1113 H   0  0  0  0  0  0  0  0  0  0  0  0
    7.0471   -5.7195    2.3263 H   0  0  0  0  0  0  0  0  0  0  0  0
    5.5384   -6.2599   -0.2895 H   0  0  0  0  0  0  0  0  0  0  0  0
    4.8539   -4.3414    1.9754 H   0  0  0  0  0  0  0  0  0  0  0  0
    5.4956   -4.0354    0.3406 H   0  0  0  0  0  0  0  0  0  0  0  0
    2.3965   -0.9912    0.8634 H   0  0  0  0  0  0  0  0  0  0  0  0
    3.3799    0.3972    2.7083 H   0  0  0  0  0  0  0  0  0  0  0  0
    5.8712    0.2922    3.0968 H   0  0  0  0  0  0  0  0  0  0  0  0
    7.2580   -1.0787    1.5303 H   0  0  0  0  0  0  0  0  0  0  0  0
    5.5936   -2.3297   -2.2106 H   0  0  0  0  0  0  0  0  0  0  0  0
    4.5700   -3.7860   -2.6568 H   0  0  0  0  0  0  0  0  0  0  0  0
    2.5455   -2.3639   -2.7353 H   0  0  0  0  0  0  0  0  0  0  0  0
    3.5089   -0.8878   -2.2330 H   0  0  0  0  0  0  0  0  0  0  0  0
   -0.3390   -7.0655    1.2219 H   0  0  0  0  0  0  0  0  0  0  0  0
    0.8767   -9.0948    2.0443 H   0  0  0  0  0  0  0  0  0  0  0  0
    3.3766   -9.0213    2.1645 H   0  0  0  0  0  0  0  0  0  0  0  0
  1  2  1  0
  1 23  1  0
  1 24  1  0
  1 25  1  0
  2 22  1  0
  2  3  1  0
  2 26  1  6
  3  4  1  0
  3 27  1  0
  3 28  1  0
  4  5  1  0
  4 16  1  0
  5  6  2  0
  5  7  1  0
  7 15  1  0
  7  8  1  0
  7 14  1  0
  8 13  1  0
  8  9  2  0
  9 10  1  0
  9 29  1  0
 10 11  2  0
 10 30  1  0
 11 12  1  0
 11 31  1  0
 12 13  2  0
 12 32  1  0
 14 15  1  0
 14 33  1  0
 14 34  1  0
 15 35  1  0
 15 36  1  0
 16 21  2  0
 16 17  1  0
 17 18  2  0
 18 19  1  0
 18 37  1  0
 19 20  2  0
 19 38  1  0
 20 21  1  0
 20 39  1  0
 21 22  1  0
M  END
>  <i_m_ct_stereo_status>  (310) 
1

>  <s_m_source_file>  (310) 
/var/tmp/pbs.5076255.sched01/tmpr9sv22dd/120oksnzf6p.sdf

>  <i_m_source_file_index>  (310) 
13

>  <i_lp_mmshare_version>  (310) 
48012

>  <i_f3d_flags>  (310) 
0

>  <s_epik_input>  (310) 
bjFbY0hdW2NIXVtjSF1jKGMxMilPW0NASF0oW0NIM10pW0NIMl1OMkMoPU8pQzMoW0NIMl1bQ0gyXTMpYzRbY0hdW2NIXVtjSF1bY0hdbjQ=

>  <s_epik_cmdline>  (310) 
J2VwaWtfcHl0aG9uJywgJy1waHQnLCAnMi4wJywgJy1waCcsICc3LjAnLCAnLXRuJywgJzgnLCAnLW1hJywgJzIwMCcsICctaW1hZScsICc8aW5maWxlLm1hZT4nLCAnLW9tYWUnLCAnPG91dGZpbGUubWFlPic=

>  <r_lp_tautomer_probability>  (310) 
1

>  <r_epik_Ionization_Penalty>  (310) 
0.0150957

>  <r_epik_Ionization_Penalty_Charging>  (310) 
0

>  <r_epik_Ionization_Penalty_Neutral>  (310) 
0.0150957

>  <r_epik_State_Penalty>  (310) 
0.0111333

>  <r_epik_Charging_Adjusted_Penalty>  (310) 
0.0111333

>  <i_epik_Tot_Q>  (310) 
0

>  <i_epik_Tot_abs_Q>  (310) 
0

>  <s_lp_Force_Field>  (310) 
OPLS3e

>  <r_lp_Energy>  (310) 
57.2453

>  <b_lp_Chiralities_Consistent>  (310) 
1

>  <s_lp_Variant>  (310) 
100:0-1

>  <s_i_glide_gridfile>  (310) 
pfpi4k_grid

>  <i_i_glide_lignum>  (310) 
13

>  <i_i_glide_rotatable_bonds>  (310) 
3

>  <r_i_docking_score>  (310) 
-3.51888

>  <r_i_glide_ligand_efficiency>  (310) 
-0.159949

>  <r_i_glide_ligand_efficiency_sa>  (310) 
-0.448184

>  <r_i_glide_ligand_efficiency_ln>  (310) 
-0.860142

>  <r_i_glide_gscore>  (310) 
-3.51888

>  <r_i_glide_lipo>  (310) 
-0.589145

>  <r_i_glide_hbond>  (310) 
-0.167581

>  <r_i_glide_metal>  (310) 
-0

>  <r_i_glide_rewards>  (310) 
-1.39544

>  <r_i_glide_evdw>  (310) 
-26.1051

>  <r_i_glide_ecoul>  (310) 
-4.42933

>  <r_i_glide_erotb>  (310) 
0.629514

>  <r_i_glide_esite>  (310) 
-0.026575

>  <r_i_glide_emodel>  (310) 
-37.378

>  <r_i_glide_energy>  (310) 
-30.5344

>  <r_i_glide_einternal>  (310) 
1.4524

>  <r_i_glide_intrahb_reward>  (310) 
-0

>  <i_i_glide_confnum>  (310) 
1

>  <i_i_glide_posenum>  (310) 
5

>  <r_i_glide_eff_state_penalty>  (310) 
0

>  <ligand_id>  (310) 
100

>  <original_smiles>  (310) 
CC1CN(C(=O)C2(c3ccccn3)CC2)c2ncccc2O1

>  <smiles>  (310) 
[H]c1nc(C2(C(=O)N3c4nc([H])c([H])c([H])c4OC([H])(C([H])([H])[H])C3([H])[H])C([H])([H])C2([H])[H])c([H])c([H])c1[H]

$$$$
100:1:0
     RDKit          3D

 40 43  0  0  1  0  0  0  0  0999 V2000
    2.1839   -5.5529    6.5043 C   0  0  0  0  0  0  0  0  0  0  0  0
    1.8343   -5.3912    5.0214 C   0  0  2  0  0  0  0  0  0  0  0  0
    1.6838   -6.7445    4.3216 C   0  0  0  0  0  0  0  0  0  0  0  0
    1.3564   -6.5144    2.9051 N   0  0  0  0  0  0  0  0  0  0  0  0
    0.2973   -7.1304    2.3052 C   0  0  0  0  0  0  0  0  0  0  0  0
   -0.2695   -6.6493    1.3197 O   0  0  0  0  0  0  0  0  0  0  0  0
   -0.2116   -8.4287    2.9047 C   0  0  0  0  0  0  0  0  0  0  0  0
    0.8136   -9.5249    3.1608 C   0  0  0  0  0  0  0  0  0  0  0  0
    2.0501   -9.6344    2.4779 C   0  0  0  0  0  0  0  0  0  0  0  0
    2.9652  -10.6456    2.8294 C   0  0  0  0  0  0  0  0  0  0  0  0
    2.6199  -11.5488    3.8532 C   0  0  0  0  0  0  0  0  0  0  0  0
    1.3709  -11.4249    4.4916 C   0  0  0  0  0  0  0  0  0  0  0  0
    0.5308  -10.4341    4.1287 N   0  0  0  0  0  0  0  0  0  0  0  0
   -1.4259   -8.2678    3.8120 C   0  0  0  0  0  0  0  0  0  0  0  0
   -1.5943   -8.8636    2.4395 C   0  0  0  0  0  0  0  0  0  0  0  0
    2.1423   -5.5190    2.2282 C   0  0  0  0  0  0  0  0  0  0  0  0
    2.2356   -5.4684    0.8744 N   0  0  0  0  0  0  0  0  0  0  0  0
    2.9662   -4.5048    0.2810 C   0  0  0  0  0  0  0  0  0  0  0  0
    3.6531   -3.5209    1.0046 C   0  0  0  0  0  0  0  0  0  0  0  0
    3.6072   -3.5756    2.4036 C   0  0  0  0  0  0  0  0  0  0  0  0
    2.8602   -4.5894    3.0320 C   0  0  0  0  0  0  0  0  0  0  0  0
    2.8652   -4.6295    4.4092 O   0  0  0  0  0  0  0  0  0  0  0  0
    1.4313   -6.1388    7.0315 H   0  0  0  0  0  0  0  0  0  0  0  0
    2.2585   -4.5838    6.9933 H   0  0  0  0  0  0  0  0  0  0  0  0
    3.1420   -6.0587    6.6252 H   0  0  0  0  0  0  0  0  0  0  0  0
    0.8983   -4.8316    4.9376 H   0  0  0  0  0  0  0  0  0  0  0  0
    2.5958   -7.3427    4.3942 H   0  0  0  0  0  0  0  0  0  0  0  0
    0.9122   -7.2832    4.8708 H   0  0  0  0  0  0  0  0  0  0  0  0
    2.3115   -8.9469    1.6865 H   0  0  0  0  0  0  0  0  0  0  0  0
    3.9092  -10.7304    2.3083 H   0  0  0  0  0  0  0  0  0  0  0  0
    3.2853  -12.3520    4.1325 H   0  0  0  0  0  0  0  0  0  0  0  0
    1.0170  -12.0780    5.2795 H   0  0  0  0  0  0  0  0  0  0  0  0
   -1.5415   -8.9346    4.6635 H   0  0  0  0  0  0  0  0  0  0  0  0
   -1.8349   -7.2737    3.9673 H   0  0  0  0  0  0  0  0  0  0  0  0
   -2.1448   -8.2569    1.7242 H   0  0  0  0  0  0  0  0  0  0  0  0
   -1.7675   -9.9352    2.3446 H   0  0  0  0  0  0  0  0  0  0  0  0
    2.9713   -4.4955   -0.7950 H   0  0  0  0  0  0  0  0  0  0  0  0
    4.1754   -2.7250    0.4955 H   0  0  0  0  0  0  0  0  0  0  0  0
    4.1280   -2.8428    3.0010 H   0  0  0  0  0  0  0  0  0  0  0  0
   -0.3763  -10.3873    4.6043 H   0  0  0  0  0  0  0  0  0  0  0  0
  1  2  1  0
  1 23  1  0
  1 24  1  0
  1 25  1  0
  2 22  1  0
  2  3  1  0
  2 26  1  1
  3  4  1  0
  3 27  1  0
  3 28  1  0
  4  5  1  0
  4 16  1  0
  5  6  2  0
  5  7  1  0
  7 15  1  0
  7  8  1  0
  7 14  1  0
  8 13  1  0
  8  9  2  0
  9 10  1  0
  9 29  1  0
 10 11  2  0
 10 30  1  0
 11 12  1  0
 11 31  1  0
 12 13  2  0
 12 32  1  0
 13 40  1  0
 14 15  1  0
 14 33  1  0
 14 34  1  0
 15 35  1  0
 15 36  1  0
 16 21  2  0
 16 17  1  0
 17 18  2  0
 18 19  1  0
 18 37  1  0
 19 20  2  0
 19 38  1  0
 20 21  1  0
 20 39  1  0
 21 22  1  0
M  CHG  1  13   1
M  END
>  <i_m_ct_stereo_status>  (311) 
1

>  <s_m_source_file>  (311) 
/var/tmp/pbs.5076255.sched01/tmpr9sv22dd/120oksnzf6p.sdf

>  <i_m_source_file_index>  (311) 
14

>  <i_lp_mmshare_version>  (311) 
48012

>  <i_f3d_flags>  (311) 
0

>  <s_epik_input>  (311) 
bjFbY0hdW2NIXVtjSF1jKGMxMilPW0NASF0oW0NIM10pW0NIMl1OMkMoPU8pQzMoW0NIMl1bQ0gyXTMpYzRbY0hdW2NIXVtjSF1bY0hdbjQ=

>  <s_epik_cmdline>  (311) 
J2VwaWtfcHl0aG9uJywgJy1waHQnLCAnMi4wJywgJy1waCcsICc3LjAnLCAnLXRuJywgJzgnLCAnLW1hJywgJzIwMCcsICctaW1hZScsICc8aW5maWxlLm1hZT4nLCAnLW9tYWUnLCAnPG91dGZpbGUubWFlPic=

>  <r_lp_tautomer_probability>  (311) 
1

>  <r_epik_Ionization_Penalty>  (311) 
2.21634

>  <r_epik_Ionization_Penalty_Charging>  (311) 
2.21576

>  <r_epik_Ionization_Penalty_Neutral>  (311) 
0.000578788

>  <r_epik_State_Penalty>  (311) 
2.36033

>  <r_epik_Charging_Adjusted_Penalty>  (311) 
4.57609

>  <i_epik_Tot_Q>  (311) 
1

>  <i_epik_Tot_abs_Q>  (311) 
1

>  <s_lp_Force_Field>  (311) 
OPLS3e

>  <r_lp_Energy>  (311) 
59.073

>  <b_lp_Chiralities_Consistent>  (311) 
1

>  <s_lp_Variant>  (311) 
100:0-2

>  <s_i_glide_gridfile>  (311) 
pfpi4k_grid

>  <i_i_glide_lignum>  (311) 
14

>  <i_i_glide_rotatable_bonds>  (311) 
3

>  <r_i_docking_score>  (311) 
-4.29251

>  <r_i_glide_ligand_efficiency>  (311) 
-0.195114

>  <r_i_glide_ligand_efficiency_sa>  (311) 
-0.546717

>  <r_i_glide_ligand_efficiency_ln>  (311) 
-1.04925

>  <r_i_glide_gscore>  (311) 
-4.29251

>  <r_i_glide_lipo>  (311) 
-0.29046

>  <r_i_glide_hbond>  (311) 
-0.446888

>  <r_i_glide_metal>  (311) 
-0

>  <r_i_glide_rewards>  (311) 
-1.38857

>  <r_i_glide_evdw>  (311) 
-25.1259

>  <r_i_glide_ecoul>  (311) 
-9.25929

>  <r_i_glide_erotb>  (311) 
0.625777

>  <r_i_glide_esite>  (311) 
-0.147182

>  <r_i_glide_emodel>  (311) 
-45.6455

>  <r_i_glide_energy>  (311) 
-34.3852

>  <r_i_glide_einternal>  (311) 
4.09474

>  <r_i_glide_intrahb_reward>  (311) 
-0

>  <i_i_glide_confnum>  (311) 
1

>  <i_i_glide_posenum>  (311) 
13

>  <r_i_glide_eff_state_penalty>  (311) 
0

>  <ligand_id>  (311) 
100

>  <original_smiles>  (311) 
CC1CN(C(=O)C2(c3ccccn3)CC2)c2ncccc2O1

>  <smiles>  (311) 
[H]c1nc2c(c([H])c1[H])OC([H])(C([H])([H])[H])C([H])([H])N2C(=O)C1(c2c([H])c([H])c([H])c([H])[n+]2[H])C([H])([H])C1([H])[H]

$$$$
100:1:1
     RDKit          3D

 40 43  0  0  1  0  0  0  0  0999 V2000
    7.0395   -5.8372    1.2653 C   0  0  0  0  0  0  0  0  0  0  0  0
    5.5769   -5.9054    0.8030 C   0  0  2  0  0  0  0  0  0  0  0  0
    4.8782   -4.5679    0.9760 C   0  0  0  0  0  0  0  0  0  0  0  0
    3.4806   -4.6583    0.5196 N   0  0  0  0  0  0  0  0  0  0  0  0
    2.9413   -3.7580   -0.3642 C   0  0  0  0  0  0  0  0  0  0  0  0
    1.9052   -3.9688   -0.9971 O   0  0  0  0  0  0  0  0  0  0  0  0
    3.6347   -2.4339   -0.5479 C   0  0  0  0  0  0  0  0  0  0  0  0
    3.6931   -1.5085    0.6337 C   0  0  0  0  0  0  0  0  0  0  0  0
    4.8093   -1.4268    1.5090 C   0  0  0  0  0  0  0  0  0  0  0  0
    4.7655   -0.5836    2.6296 C   0  0  0  0  0  0  0  0  0  0  0  0
    3.6217    0.2058    2.8409 C   0  0  0  0  0  0  0  0  0  0  0  0
    2.5421    0.1158    1.9216 C   0  0  0  0  0  0  0  0  0  0  0  0
    2.6168   -0.7316    0.8764 N   0  0  0  0  0  0  0  0  0  0  0  0
    4.7488   -2.3852   -1.5869 C   0  0  0  0  0  0  0  0  0  0  0  0
    3.4242   -1.7955   -1.9326 C   0  0  0  0  0  0  0  0  0  0  0  0
    2.7655   -5.8216    0.9785 C   0  0  0  0  0  0  0  0  0  0  0  0
    1.4100   -5.8829    0.9976 N   0  0  0  0  0  0  0  0  0  0  0  0
    0.7954   -7.0146    1.3978 C   0  0  0  0  0  0  0  0  0  0  0  0
    1.4878   -8.1422    1.8430 C   0  0  0  0  0  0  0  0  0  0  0  0
    2.8872   -8.0856    1.8957 C   0  0  0  0  0  0  0  0  0  0  0  0
    3.5445   -6.9162    1.4705 C   0  0  0  0  0  0  0  0  0  0  0  0
    4.9169   -6.8914    1.5657 O   0  0  0  0  0  0  0  0  0  0  0  0
    7.6040   -5.0766    0.7172 H   0  0  0  0  0  0  0  0  0  0  0  0
    7.5419   -6.7962    1.1024 H   0  0  0  0  0  0  0  0  0  0  0  0
    7.1160   -5.6000    2.3291 H   0  0  0  0  0  0  0  0  0  0  0  0
    5.5464   -6.1920   -0.2522 H   0  0  0  0  0  0  0  0  0  0  0  0
    4.9211   -4.2110    2.0111 H   0  0  0  0  0  0  0  0  0  0  0  0
    5.4866   -3.9148    0.3646 H   0  0  0  0  0  0  0  0  0  0  0  0
    5.7087   -2.0070    1.3420 H   0  0  0  0  0  0  0  0  0  0  0  0
    5.6187   -0.5394    3.2965 H   0  0  0  0  0  0  0  0  0  0  0  0
    3.5830    0.8971    3.6764 H   0  0  0  0  0  0  0  0  0  0  0  0
    1.6386    0.7077    1.9975 H   0  0  0  0  0  0  0  0  0  0  0  0
    5.5751   -1.7114   -1.3719 H   0  0  0  0  0  0  0  0  0  0  0  0
    5.0284   -3.3152   -2.0865 H   0  0  0  0  0  0  0  0  0  0  0  0
    2.8382   -2.3211   -2.6943 H   0  0  0  0  0  0  0  0  0  0  0  0
    3.3391   -0.7084   -1.9820 H   0  0  0  0  0  0  0  0  0  0  0  0
   -0.2780   -7.0153    1.3354 H   0  0  0  0  0  0  0  0  0  0  0  0
    0.9594   -9.0473    2.1108 H   0  0  0  0  0  0  0  0  0  0  0  0
    3.4595   -8.9366    2.2274 H   0  0  0  0  0  0  0  0  0  0  0  0
    1.7960   -0.7850    0.2201 H   0  0  0  0  0  0  0  0  0  0  0  0
  1  2  1  0
  1 23  1  0
  1 24  1  0
  1 25  1  0
  2 22  1  0
  2  3  1  0
  2 26  1  6
  3  4  1  0
  3 27  1  0
  3 28  1  0
  4  5  1  0
  4 16  1  0
  5  6  2  0
  5  7  1  0
  7 15  1  0
  7  8  1  0
  7 14  1  0
  8 13  1  0
  8  9  2  0
  9 10  1  0
  9 29  1  0
 10 11  2  0
 10 30  1  0
 11 12  1  0
 11 31  1  0
 12 13  2  0
 12 32  1  0
 13 40  1  0
 14 15  1  0
 14 33  1  0
 14 34  1  0
 15 35  1  0
 15 36  1  0
 16 21  2  0
 16 17  1  0
 17 18  2  0
 18 19  1  0
 18 37  1  0
 19 20  2  0
 19 38  1  0
 20 21  1  0
 20 39  1  0
 21 22  1  0
M  CHG  1  13   1
M  END
>  <i_m_ct_stereo_status>  (312) 
1

>  <s_m_source_file>  (312) 
/var/tmp/pbs.5076255.sched01/tmpr9sv22dd/120oksnzf6p.sdf

>  <i_m_source_file_index>  (312) 
14

>  <i_lp_mmshare_version>  (312) 
48012

>  <i_f3d_flags>  (312) 
0

>  <s_epik_input>  (312) 
bjFbY0hdW2NIXVtjSF1jKGMxMilPW0NASF0oW0NIM10pW0NIMl1OMkMoPU8pQzMoW0NIMl1bQ0gyXTMpYzRbY0hdW2NIXVtjSF1bY0hdbjQ=

>  <s_epik_cmdline>  (312) 
J2VwaWtfcHl0aG9uJywgJy1waHQnLCAnMi4wJywgJy1waCcsICc3LjAnLCAnLXRuJywgJzgnLCAnLW1hJywgJzIwMCcsICctaW1hZScsICc8aW5maWxlLm1hZT4nLCAnLW9tYWUnLCAnPG91dGZpbGUubWFlPic=

>  <r_lp_tautomer_probability>  (312) 
1

>  <r_epik_Ionization_Penalty>  (312) 
2.21634

>  <r_epik_Ionization_Penalty_Charging>  (312) 
2.21576

>  <r_epik_Ionization_Penalty_Neutral>  (312) 
0.000578788

>  <r_epik_State_Penalty>  (312) 
2.36033

>  <r_epik_Charging_Adjusted_Penalty>  (312) 
4.57609

>  <i_epik_Tot_Q>  (312) 
1

>  <i_epik_Tot_abs_Q>  (312) 
1

>  <s_lp_Force_Field>  (312) 
OPLS3e

>  <r_lp_Energy>  (312) 
59.073

>  <b_lp_Chiralities_Consistent>  (312) 
1

>  <s_lp_Variant>  (312) 
100:0-2

>  <s_i_glide_gridfile>  (312) 
pfpi4k_grid

>  <i_i_glide_lignum>  (312) 
14

>  <i_i_glide_rotatable_bonds>  (312) 
3

>  <r_i_docking_score>  (312) 
-4.16524

>  <r_i_glide_ligand_efficiency>  (312) 
-0.189329

>  <r_i_glide_ligand_efficiency_sa>  (312) 
-0.530507

>  <r_i_glide_ligand_efficiency_ln>  (312) 
-1.01814

>  <r_i_glide_gscore>  (312) 
-4.16524

>  <r_i_glide_lipo>  (312) 
-0.454576

>  <r_i_glide_hbond>  (312) 
-0.333147

>  <r_i_glide_metal>  (312) 
-0

>  <r_i_glide_rewards>  (312) 
-1.38857

>  <r_i_glide_evdw>  (312) 
-24.4787

>  <r_i_glide_ecoul>  (312) 
-8.68559

>  <r_i_glide_erotb>  (312) 
0.625777

>  <r_i_glide_esite>  (312) 
-0.0879548

>  <r_i_glide_emodel>  (312) 
-45.516

>  <r_i_glide_energy>  (312) 
-33.1643

>  <r_i_glide_einternal>  (312) 
0.574098

>  <r_i_glide_intrahb_reward>  (312) 
-0

>  <i_i_glide_confnum>  (312) 
2

>  <i_i_glide_posenum>  (312) 
3

>  <r_i_glide_eff_state_penalty>  (312) 
0

>  <ligand_id>  (312) 
100

>  <original_smiles>  (312) 
CC1CN(C(=O)C2(c3ccccn3)CC2)c2ncccc2O1

>  <smiles>  (312) 
[H]c1nc2c(c([H])c1[H])OC([H])(C([H])([H])[H])C([H])([H])N2C(=O)C1(c2c([H])c([H])c([H])c([H])[n+]2[H])C([H])([H])C1([H])[H]

$$$$
100:1:2
     RDKit          3D

 40 43  0  0  1  0  0  0  0  0999 V2000
    1.2923   -4.7180    6.4541 C   0  0  0  0  0  0  0  0  0  0  0  0
    1.1807   -4.8069    4.9282 C   0  0  2  0  0  0  0  0  0  0  0  0
    1.2159   -6.2580    4.4431 C   0  0  0  0  0  0  0  0  0  0  0  0
    1.1336   -6.2869    2.9757 N   0  0  0  0  0  0  0  0  0  0  0  0
    0.2085   -7.0522    2.3275 C   0  0  0  0  0  0  0  0  0  0  0  0
   -0.2085   -6.7552    1.2056 O   0  0  0  0  0  0  0  0  0  0  0  0
   -0.3455   -8.2669    3.0355 C   0  0  0  0  0  0  0  0  0  0  0  0
    0.6541   -9.2811    3.5171 C   0  0  0  0  0  0  0  0  0  0  0  0
    0.9004   -9.5252    4.8873 C   0  0  0  0  0  0  0  0  0  0  0  0
    1.8646  -10.4738    5.2698 C   0  0  0  0  0  0  0  0  0  0  0  0
    2.5673  -11.1696    4.2652 C   0  0  0  0  0  0  0  0  0  0  0  0
    2.2915  -10.8938    2.9095 C   0  0  0  0  0  0  0  0  0  0  0  0
    1.3462   -9.9804    2.5858 N   0  0  0  0  0  0  0  0  0  0  0  0
   -1.6330   -8.0566    3.8165 C   0  0  0  0  0  0  0  0  0  0  0  0
   -1.6764   -8.7881    2.5068 C   0  0  0  0  0  0  0  0  0  0  0  0
    1.9630   -5.3432    2.2770 C   0  0  0  0  0  0  0  0  0  0  0  0
    2.2639   -5.4814    0.9587 N   0  0  0  0  0  0  0  0  0  0  0  0
    3.0135   -4.5528    0.3342 C   0  0  0  0  0  0  0  0  0  0  0  0
    3.5252   -3.4251    0.9905 C   0  0  0  0  0  0  0  0  0  0  0  0
    3.2584   -3.2766    2.3588 C   0  0  0  0  0  0  0  0  0  0  0  0
    2.4800   -4.2437    3.0208 C   0  0  0  0  0  0  0  0  0  0  0  0
    2.2583   -4.0747    4.3692 O   0  0  0  0  0  0  0  0  0  0  0  0
    0.4919   -5.2713    6.9461 H   0  0  0  0  0  0  0  0  0  0  0  0
    1.2384   -3.6828    6.7881 H   0  0  0  0  0  0  0  0  0  0  0  0
    2.2413   -5.1277    6.8030 H   0  0  0  0  0  0  0  0  0  0  0  0
    0.2453   -4.3354    4.6158 H   0  0  0  0  0  0  0  0  0  0  0  0
    2.1261   -6.7691    4.7647 H   0  0  0  0  0  0  0  0  0  0  0  0
    0.3809   -6.7513    4.9359 H   0  0  0  0  0  0  0  0  0  0  0  0
    0.3560   -8.9958    5.6529 H   0  0  0  0  0  0  0  0  0  0  0  0
    2.0550  -10.6555    6.3192 H   0  0  0  0  0  0  0  0  0  0  0  0
    3.2996  -11.9158    4.5358 H   0  0  0  0  0  0  0  0  0  0  0  0
    2.7920  -11.3833    2.0843 H   0  0  0  0  0  0  0  0  0  0  0  0
   -1.7773   -8.6457    4.7207 H   0  0  0  0  0  0  0  0  0  0  0  0
   -2.0678   -7.0605    3.8465 H   0  0  0  0  0  0  0  0  0  0  0  0
   -2.1793   -8.2760    1.6903 H   0  0  0  0  0  0  0  0  0  0  0  0
   -1.8434   -9.8619    2.5376 H   0  0  0  0  0  0  0  0  0  0  0  0
    3.1957   -4.7039   -0.7168 H   0  0  0  0  0  0  0  0  0  0  0  0
    4.0894   -2.6809    0.4491 H   0  0  0  0  0  0  0  0  0  0  0  0
    3.6350   -2.4218    2.9003 H   0  0  0  0  0  0  0  0  0  0  0  0
    1.1405   -9.8143    1.5971 H   0  0  0  0  0  0  0  0  0  0  0  0
  1  2  1  0
  1 23  1  0
  1 24  1  0
  1 25  1  0
  2 22  1  0
  2  3  1  0
  2 26  1  6
  3  4  1  0
  3 27  1  0
  3 28  1  0
  4  5  1  0
  4 16  1  0
  5  6  2  0
  5  7  1  0
  7 15  1  0
  7  8  1  0
  7 14  1  0
  8 13  1  0
  8  9  2  0
  9 10  1  0
  9 29  1  0
 10 11  2  0
 10 30  1  0
 11 12  1  0
 11 31  1  0
 12 13  2  0
 12 32  1  0
 13 40  1  0
 14 15  1  0
 14 33  1  0
 14 34  1  0
 15 35  1  0
 15 36  1  0
 16 21  2  0
 16 17  1  0
 17 18  2  0
 18 19  1  0
 18 37  1  0
 19 20  2  0
 19 38  1  0
 20 21  1  0
 20 39  1  0
 21 22  1  0
M  CHG  1  13   1
M  END
>  <i_m_ct_stereo_status>  (313) 
1

>  <s_m_source_file>  (313) 
/var/tmp/pbs.5076255.sched01/tmpr9sv22dd/120oksnzf6p.sdf

>  <i_m_source_file_index>  (313) 
14

>  <i_lp_mmshare_version>  (313) 
48012

>  <i_f3d_flags>  (313) 
0

>  <s_epik_input>  (313) 
bjFbY0hdW2NIXVtjSF1jKGMxMilPW0NASF0oW0NIM10pW0NIMl1OMkMoPU8pQzMoW0NIMl1bQ0gyXTMpYzRbY0hdW2NIXVtjSF1bY0hdbjQ=

>  <s_epik_cmdline>  (313) 
J2VwaWtfcHl0aG9uJywgJy1waHQnLCAnMi4wJywgJy1waCcsICc3LjAnLCAnLXRuJywgJzgnLCAnLW1hJywgJzIwMCcsICctaW1hZScsICc8aW5maWxlLm1hZT4nLCAnLW9tYWUnLCAnPG91dGZpbGUubWFlPic=

>  <r_lp_tautomer_probability>  (313) 
1

>  <r_epik_Ionization_Penalty>  (313) 
2.21634

>  <r_epik_Ionization_Penalty_Charging>  (313) 
2.21576

>  <r_epik_Ionization_Penalty_Neutral>  (313) 
0.000578788

>  <r_epik_State_Penalty>  (313) 
2.36033

>  <r_epik_Charging_Adjusted_Penalty>  (313) 
4.57609

>  <i_epik_Tot_Q>  (313) 
1

>  <i_epik_Tot_abs_Q>  (313) 
1

>  <s_lp_Force_Field>  (313) 
OPLS3e

>  <r_lp_Energy>  (313) 
59.073

>  <b_lp_Chiralities_Consistent>  (313) 
1

>  <s_lp_Variant>  (313) 
100:0-2

>  <s_i_glide_gridfile>  (313) 
pfpi4k_grid

>  <i_i_glide_lignum>  (313) 
14

>  <i_i_glide_rotatable_bonds>  (313) 
3

>  <r_i_docking_score>  (313) 
-3.7624

>  <r_i_glide_ligand_efficiency>  (313) 
-0.171018

>  <r_i_glide_ligand_efficiency_sa>  (313) 
-0.479199

>  <r_i_glide_ligand_efficiency_ln>  (313) 
-0.919667

>  <r_i_glide_gscore>  (313) 
-3.7624

>  <r_i_glide_lipo>  (313) 
-0.183223

>  <r_i_glide_hbond>  (313) 
-0.154343

>  <r_i_glide_metal>  (313) 
-0

>  <r_i_glide_rewards>  (313) 
-1.38857

>  <r_i_glide_evdw>  (313) 
-25.0326

>  <r_i_glide_ecoul>  (313) 
-8.68066

>  <r_i_glide_erotb>  (313) 
0.625777

>  <r_i_glide_esite>  (313) 
-0.108314

>  <r_i_glide_emodel>  (313) 
-45.2256

>  <r_i_glide_energy>  (313) 
-33.7132

>  <r_i_glide_einternal>  (313) 
0.317323

>  <r_i_glide_intrahb_reward>  (313) 
-0

>  <i_i_glide_confnum>  (313) 
4

>  <i_i_glide_posenum>  (313) 
34

>  <r_i_glide_eff_state_penalty>  (313) 
0

>  <ligand_id>  (313) 
100

>  <original_smiles>  (313) 
CC1CN(C(=O)C2(c3ccccn3)CC2)c2ncccc2O1

>  <smiles>  (313) 
[H]c1nc2c(c([H])c1[H])OC([H])(C([H])([H])[H])C([H])([H])N2C(=O)C1(c2c([H])c([H])c([H])c([H])[n+]2[H])C([H])([H])C1([H])[H]

$$$$
101:0:0
     RDKit          3D

 37 40  0  0  1  0  0  0  0  0999 V2000
    5.7639   -6.8911    1.2981 C   0  0  0  0  0  0  0  0  0  0  0  0
    5.8408   -5.6526    0.5330 N   0  0  0  0  0  0  0  0  0  0  0  0
    6.8710   -4.7469    1.0122 C   0  0  0  0  0  0  0  0  0  0  0  0
    6.6126   -3.5137    0.1592 C   0  0  0  0  0  0  0  0  0  0  0  0
    5.0846   -3.4434   -0.0043 C   0  0  2  0  0  0  0  0  0  0  0  0
    4.5276   -2.2780    0.8434 C   0  0  0  0  0  0  0  0  0  0  0  0
    4.1109   -2.2334    2.1309 C   0  0  0  0  0  0  0  0  0  0  0  0
    4.0975   -3.3201    3.1393 C   0  0  0  0  0  0  0  0  0  0  0  0
    4.1245   -3.0780    4.3472 O   0  0  0  0  0  0  0  0  0  0  0  0
    4.0787   -4.5934    2.6948 O   0  0  0  0  0  0  0  0  0  0  0  0
    3.5549   -4.9809    1.4374 C   0  0  0  0  0  0  0  0  0  0  0  0
    4.6020   -4.8854    0.3205 C   0  0  2  0  0  0  0  0  0  0  0  0
    4.3992   -1.0449   -0.0435 C   0  0  1  0  0  0  0  0  0  0  0  0
    5.5557   -0.2620    0.1138 O   0  0  0  0  0  0  0  0  0  0  0  0
    4.3376   -1.6336   -1.4200 C   0  0  0  0  0  0  0  0  0  0  0  0
    3.9133   -0.9927   -2.6018 C   0  0  0  0  0  0  0  0  0  0  0  0
    3.8712   -1.7435   -3.7896 C   0  0  0  0  0  0  0  0  0  0  0  0
    4.2654   -3.1031   -3.7864 C   0  0  0  0  0  0  0  0  0  0  0  0
    4.7180   -3.7229   -2.5987 C   0  0  0  0  0  0  0  0  0  0  0  0
    4.7299   -2.9687   -1.4078 C   0  0  0  0  0  0  0  0  0  0  0  0
    6.7265   -7.4090    1.2637 H   0  0  0  0  0  0  0  0  0  0  0  0
    5.0109   -7.5613    0.8739 H   0  0  0  0  0  0  0  0  0  0  0  0
    5.5249   -6.7147    2.3504 H   0  0  0  0  0  0  0  0  0  0  0  0
    6.7241   -4.5181    2.0691 H   0  0  0  0  0  0  0  0  0  0  0  0
    7.8796   -5.1521    0.8687 H   0  0  0  0  0  0  0  0  0  0  0  0
    7.0523   -2.6099    0.5905 H   0  0  0  0  0  0  0  0  0  0  0  0
    7.0857   -3.6683   -0.8127 H   0  0  0  0  0  0  0  0  0  0  0  0
    3.7595   -1.2716    2.4860 H   0  0  0  0  0  0  0  0  0  0  0  0
    3.2229   -6.0126    1.5340 H   0  0  0  0  0  0  0  0  0  0  0  0
    2.6599   -4.4114    1.1892 H   0  0  0  0  0  0  0  0  0  0  0  0
    4.1336   -5.3286   -0.5564 H   0  0  0  0  0  0  0  0  0  0  0  0
    3.5058   -0.4676    0.2039 H   0  0  0  0  0  0  0  0  0  0  0  0
    5.4154    0.5961   -0.2988 H   0  0  0  0  0  0  0  0  0  0  0  0
    3.6115    0.0431   -2.6066 H   0  0  0  0  0  0  0  0  0  0  0  0
    3.5349   -1.2668   -4.7018 H   0  0  0  0  0  0  0  0  0  0  0  0
    4.2310   -3.6785   -4.7019 H   0  0  0  0  0  0  0  0  0  0  0  0
    5.0091   -4.7638   -2.6084 H   0  0  0  0  0  0  0  0  0  0  0  0
  1  2  1  0
  1 21  1  0
  1 22  1  0
  1 23  1  0
  2 12  1  0
  2  3  1  0
  3  4  1  0
  3 24  1  0
  3 25  1  0
  5  4  1  6
  4 26  1  0
  4 27  1  0
  5 12  1  0
  5 20  1  0
  5  6  1  0
  6  7  2  0
  6 13  1  0
  7  8  1  0
  7 28  1  0
  8  9  2  0
  8 10  1  0
 10 11  1  0
 11 12  1  0
 11 29  1  0
 11 30  1  0
 12 31  1  6
 13 14  1  0
 13 15  1  0
 13 32  1  1
 14 33  1  0
 15 20  2  0
 15 16  1  0
 16 17  2  0
 16 34  1  0
 17 18  1  0
 17 35  1  0
 18 19  2  0
 18 36  1  0
 19 20  1  0
 19 37  1  0
M  END
>  <i_m_ct_stereo_status>  (314) 
1

>  <s_m_source_file>  (314) 
/var/tmp/pbs.5076255.sched01/tmpr9sv22dd/120oksnzf6p.sdf

>  <i_m_source_file_index>  (314) 
15

>  <i_lp_mmshare_version>  (314) 
48012

>  <i_f3d_flags>  (314) 
0

>  <s_epik_input>  (314) 
W0NIMl0xW0NIMl1OKFtDSDNdKVtDQEhdMltDSDJdT0MoPU8pW0NIXT1DKFtDQEBdMTIzKVtDQEBIXShbT0hdKWM0YzNbY0hdW2NIXVtjSF1bY0hdNA==

>  <s_epik_cmdline>  (314) 
J2VwaWtfcHl0aG9uJywgJy1waHQnLCAnMi4wJywgJy1waCcsICc3LjAnLCAnLXRuJywgJzgnLCAnLW1hJywgJzIwMCcsICctaW1hZScsICc8aW5maWxlLm1hZT4nLCAnLW9tYWUnLCAnPG91dGZpbGUubWFlPic=

>  <r_epik_Ionization_Penalty>  (314) 
0.219796

>  <r_epik_Ionization_Penalty_Charging>  (314) 
0

>  <r_epik_Ionization_Penalty_Neutral>  (314) 
0.219796

>  <r_epik_State_Penalty>  (314) 
0.210094

>  <r_epik_Charging_Adjusted_Penalty>  (314) 
0.210094

>  <i_epik_Tot_Q>  (314) 
0

>  <i_epik_Tot_abs_Q>  (314) 
0

>  <s_epik_Chemistry_Notes>  (314) 
This compound has an ester and may undergo hydrolysis at high or low pH.

>  <s_lp_Force_Field>  (314) 
OPLS3e

>  <r_lp_Energy>  (314) 
38.4381

>  <b_lp_Chiralities_Consistent>  (314) 
1

>  <s_lp_Variant>  (314) 
101:0-1

>  <s_i_glide_gridfile>  (314) 
pfpi4k_grid

>  <i_i_glide_lignum>  (314) 
15

>  <i_i_glide_rotatable_bonds>  (314) 
1

>  <r_i_docking_score>  (314) 
-4.39986

>  <r_i_glide_ligand_efficiency>  (314) 
-0.219993

>  <r_i_glide_ligand_efficiency_sa>  (314) 
-0.597153

>  <r_i_glide_ligand_efficiency_ln>  (314) 
-1.10114

>  <r_i_glide_gscore>  (314) 
-4.39986

>  <r_i_glide_lipo>  (314) 
-0.694263

>  <r_i_glide_hbond>  (314) 
-0.32

>  <r_i_glide_metal>  (314) 
-0

>  <r_i_glide_rewards>  (314) 
-1.56011

>  <r_i_glide_evdw>  (314) 
-20.2805

>  <r_i_glide_ecoul>  (314) 
-5.40976

>  <r_i_glide_erotb>  (314) 
0

>  <r_i_glide_esite>  (314) 
0

>  <r_i_glide_emodel>  (314) 
-32.8555

>  <r_i_glide_energy>  (314) 
-25.6902

>  <r_i_glide_einternal>  (314) 
0.841727

>  <r_i_glide_intrahb_reward>  (314) 
-0

>  <i_i_glide_confnum>  (314) 
2

>  <i_i_glide_posenum>  (314) 
3

>  <r_i_glide_eff_state_penalty>  (314) 
0

>  <ligand_id>  (314) 
101

>  <original_smiles>  (314) 
CN1CCC23C(=CC(=O)OCC12)C(O)c1ccccc13

>  <smiles>  (314) 
[H]OC1([H])C2=C([H])C(=O)OC([H])([H])C3([H])N(C([H])([H])[H])C([H])([H])C([H])([H])C23c2c([H])c([H])c([H])c([H])c21

$$$$
101:0:1
     RDKit          3D

 37 40  0  0  1  0  0  0  0  0999 V2000
   -0.4545   -1.3556    5.6294 C   0  0  0  0  0  0  0  0  0  0  0  0
   -0.8275    0.0534    5.6119 N   0  0  0  0  0  0  0  0  0  0  0  0
   -1.6272    0.4106    4.4531 C   0  0  0  0  0  0  0  0  0  0  0  0
   -1.7141    1.9241    4.5849 C   0  0  0  0  0  0  0  0  0  0  0  0
   -0.3411    2.3582    5.1239 C   0  0  2  0  0  0  0  0  0  0  0  0
    0.4515    3.0664    4.0003 C   0  0  0  0  0  0  0  0  0  0  0  0
    1.2973    2.5757    3.0610 C   0  0  0  0  0  0  0  0  0  0  0  0
    1.6971    1.1742    2.8059 C   0  0  0  0  0  0  0  0  0  0  0  0
    2.1051    0.8151    1.6991 O   0  0  0  0  0  0  0  0  0  0  0  0
    1.5749    0.2857    3.8144 O   0  0  0  0  0  0  0  0  0  0  0  0
    1.6263    0.6478    5.1839 C   0  0  0  0  0  0  0  0  0  0  0  0
    0.2493    1.0549    5.7333 C   0  0  2  0  0  0  0  0  0  0  0  0
    0.2270    4.5690    4.1262 C   0  0  1  0  0  0  0  0  0  0  0  0
   -0.8303    4.9724    3.2787 O   0  0  0  0  0  0  0  0  0  0  0  0
   -0.1648    4.7233    5.5661 C   0  0  0  0  0  0  0  0  0  0  0  0
   -0.1839    5.9139    6.3134 C   0  0  0  0  0  0  0  0  0  0  0  0
   -0.5646    5.8432    7.6687 C   0  0  0  0  0  0  0  0  0  0  0  0
   -0.9147    4.6019    8.2488 C   0  0  0  0  0  0  0  0  0  0  0  0
   -0.8875    3.4112    7.4832 C   0  0  0  0  0  0  0  0  0  0  0  0
   -0.5013    3.4938    6.1285 C   0  0  0  0  0  0  0  0  0  0  0  0
   -1.3535   -1.9764    5.6388 H   0  0  0  0  0  0  0  0  0  0  0  0
    0.1211   -1.5869    6.5285 H   0  0  0  0  0  0  0  0  0  0  0  0
    0.1333   -1.6418    4.7540 H   0  0  0  0  0  0  0  0  0  0  0  0
   -1.1214    0.1426    3.5238 H   0  0  0  0  0  0  0  0  0  0  0  0
   -2.6074   -0.0710    4.4777 H   0  0  0  0  0  0  0  0  0  0  0  0
   -1.9914    2.4083    3.6446 H   0  0  0  0  0  0  0  0  0  0  0  0
   -2.4942    2.1630    5.3092 H   0  0  0  0  0  0  0  0  0  0  0  0
    1.7281    3.3034    2.3821 H   0  0  0  0  0  0  0  0  0  0  0  0
    1.9943   -0.2181    5.7340 H   0  0  0  0  0  0  0  0  0  0  0  0
    2.3650    1.4316    5.3584 H   0  0  0  0  0  0  0  0  0  0  0  0
    0.4009    1.1832    6.8038 H   0  0  0  0  0  0  0  0  0  0  0  0
    1.1290    5.1319    3.8826 H   0  0  0  0  0  0  0  0  0  0  0  0
   -0.5674    4.8122    2.3724 H   0  0  0  0  0  0  0  0  0  0  0  0
    0.0949    6.8544    5.8593 H   0  0  0  0  0  0  0  0  0  0  0  0
   -0.5900    6.7442    8.2680 H   0  0  0  0  0  0  0  0  0  0  0  0
   -1.2028    4.5666    9.2905 H   0  0  0  0  0  0  0  0  0  0  0  0
   -1.1384    2.4659    7.9425 H   0  0  0  0  0  0  0  0  0  0  0  0
  1  2  1  0
  1 21  1  0
  1 22  1  0
  1 23  1  0
  2 12  1  0
  2  3  1  0
  3  4  1  0
  3 24  1  0
  3 25  1  0
  5  4  1  6
  4 26  1  0
  4 27  1  0
  5 12  1  0
  5 20  1  0
  5  6  1  0
  6  7  2  0
  6 13  1  0
  7  8  1  0
  7 28  1  0
  8  9  2  0
  8 10  1  0
 10 11  1  0
 11 12  1  0
 11 29  1  0
 11 30  1  0
 12 31  1  1
 13 14  1  0
 13 15  1  0
 13 32  1  6
 14 33  1  0
 15 20  2  0
 15 16  1  0
 16 17  2  0
 16 34  1  0
 17 18  1  0
 17 35  1  0
 18 19  2  0
 18 36  1  0
 19 20  1  0
 19 37  1  0
M  END
>  <i_m_ct_stereo_status>  (315) 
1

>  <s_m_source_file>  (315) 
/var/tmp/pbs.5076255.sched01/tmpr9sv22dd/120oksnzf6p.sdf

>  <i_m_source_file_index>  (315) 
15

>  <i_lp_mmshare_version>  (315) 
48012

>  <i_f3d_flags>  (315) 
0

>  <s_epik_input>  (315) 
W0NIMl0xW0NIMl1OKFtDSDNdKVtDQEhdMltDSDJdT0MoPU8pW0NIXT1DKFtDQEBdMTIzKVtDQEBIXShbT0hdKWM0YzNbY0hdW2NIXVtjSF1bY0hdNA==

>  <s_epik_cmdline>  (315) 
J2VwaWtfcHl0aG9uJywgJy1waHQnLCAnMi4wJywgJy1waCcsICc3LjAnLCAnLXRuJywgJzgnLCAnLW1hJywgJzIwMCcsICctaW1hZScsICc8aW5maWxlLm1hZT4nLCAnLW9tYWUnLCAnPG91dGZpbGUubWFlPic=

>  <r_epik_Ionization_Penalty>  (315) 
0.219796

>  <r_epik_Ionization_Penalty_Charging>  (315) 
0

>  <r_epik_Ionization_Penalty_Neutral>  (315) 
0.219796

>  <r_epik_State_Penalty>  (315) 
0.210094

>  <r_epik_Charging_Adjusted_Penalty>  (315) 
0.210094

>  <i_epik_Tot_Q>  (315) 
0

>  <i_epik_Tot_abs_Q>  (315) 
0

>  <s_epik_Chemistry_Notes>  (315) 
This compound has an ester and may undergo hydrolysis at high or low pH.

>  <s_lp_Force_Field>  (315) 
OPLS3e

>  <r_lp_Energy>  (315) 
38.4381

>  <b_lp_Chiralities_Consistent>  (315) 
1

>  <s_lp_Variant>  (315) 
101:0-1

>  <s_i_glide_gridfile>  (315) 
pfpi4k_grid

>  <i_i_glide_lignum>  (315) 
15

>  <i_i_glide_rotatable_bonds>  (315) 
1

>  <r_i_docking_score>  (315) 
-3.78458

>  <r_i_glide_ligand_efficiency>  (315) 
-0.189229

>  <r_i_glide_ligand_efficiency_sa>  (315) 
-0.513646

>  <r_i_glide_ligand_efficiency_ln>  (315) 
-0.947155

>  <r_i_glide_gscore>  (315) 
-3.78458

>  <r_i_glide_lipo>  (315) 
0

>  <r_i_glide_hbond>  (315) 
-0.255162

>  <r_i_glide_metal>  (315) 
-0

>  <r_i_glide_rewards>  (315) 
-1.55924

>  <r_i_glide_evdw>  (315) 
-16.2522

>  <r_i_glide_ecoul>  (315) 
-7.6358

>  <r_i_glide_erotb>  (315) 
0

>  <r_i_glide_esite>  (315) 
-0.0121958

>  <r_i_glide_emodel>  (315) 
-30.4189

>  <r_i_glide_energy>  (315) 
-23.888

>  <r_i_glide_einternal>  (315) 
0.00465798

>  <r_i_glide_intrahb_reward>  (315) 
-0

>  <i_i_glide_confnum>  (315) 
2

>  <i_i_glide_posenum>  (315) 
8

>  <r_i_glide_eff_state_penalty>  (315) 
0

>  <ligand_id>  (315) 
101

>  <original_smiles>  (315) 
CN1CCC23C(=CC(=O)OCC12)C(O)c1ccccc13

>  <smiles>  (315) 
[H]OC1([H])C2=C([H])C(=O)OC([H])([H])C3([H])N(C([H])([H])[H])C([H])([H])C([H])([H])C23c2c([H])c([H])c([H])c([H])c21

$$$$
101:0:2
     RDKit          3D

 37 40  0  0  1  0  0  0  0  0999 V2000
    5.9024   -6.8197    1.3924 C   0  0  0  0  0  0  0  0  0  0  0  0
    5.8412   -5.5533    0.6715 N   0  0  0  0  0  0  0  0  0  0  0  0
    6.5897   -4.4890    1.3178 C   0  0  0  0  0  0  0  0  0  0  0  0
    6.2136   -3.2863    0.4637 C   0  0  0  0  0  0  0  0  0  0  0  0
    4.7391   -3.5054    0.0798 C   0  0  2  0  0  0  0  0  0  0  0  0
    3.8443   -2.5184    0.8667 C   0  0  0  0  0  0  0  0  0  0  0  0
    3.2558   -2.6188    2.0778 C   0  0  0  0  0  0  0  0  0  0  0  0
    3.3148   -3.7376    3.0475 C   0  0  0  0  0  0  0  0  0  0  0  0
    3.1258   -3.5506    4.2468 O   0  0  0  0  0  0  0  0  0  0  0  0
    3.6124   -4.9668    2.5825 O   0  0  0  0  0  0  0  0  0  0  0  0
    3.3610   -5.3802    1.2517 C   0  0  0  0  0  0  0  0  0  0  0  0
    4.5156   -5.0256    0.2974 C   0  0  2  0  0  0  0  0  0  0  0  0
    3.6166   -1.2851    0.0007 C   0  0  1  0  0  0  0  0  0  0  0  0
    4.5746   -0.2982    0.3376 O   0  0  0  0  0  0  0  0  0  0  0  0
    3.8577   -1.8066   -1.3858 C   0  0  0  0  0  0  0  0  0  0  0  0
    3.4751   -1.2068   -2.5968 C   0  0  0  0  0  0  0  0  0  0  0  0
    3.7590   -1.8781   -3.7994 C   0  0  0  0  0  0  0  0  0  0  0  0
    4.4081   -3.1329   -3.7724 C   0  0  0  0  0  0  0  0  0  0  0  0
    4.7982   -3.7157   -2.5477 C   0  0  0  0  0  0  0  0  0  0  0  0
    4.4998   -3.0417   -1.3495 C   0  0  0  0  0  0  0  0  0  0  0  0
    6.9428   -7.1382    1.4835 H   0  0  0  0  0  0  0  0  0  0  0  0
    5.3616   -7.5978    0.8510 H   0  0  0  0  0  0  0  0  0  0  0  0
    5.4904   -6.7425    2.4014 H   0  0  0  0  0  0  0  0  0  0  0  0
    6.2538   -4.3469    2.3460 H   0  0  0  0  0  0  0  0  0  0  0  0
    7.6662   -4.6817    1.3167 H   0  0  0  0  0  0  0  0  0  0  0  0
    6.4013   -2.3399    0.9728 H   0  0  0  0  0  0  0  0  0  0  0  0
    6.8378   -3.3000   -0.4318 H   0  0  0  0  0  0  0  0  0  0  0  0
    2.6717   -1.7612    2.3988 H   0  0  0  0  0  0  0  0  0  0  0  0
    3.2291   -6.4619    1.2712 H   0  0  0  0  0  0  0  0  0  0  0  0
    2.4121   -4.9826    0.8818 H   0  0  0  0  0  0  0  0  0  0  0  0
    4.2649   -5.5081   -0.6478 H   0  0  0  0  0  0  0  0  0  0  0  0
    2.6194   -0.8826    0.1267 H   0  0  0  0  0  0  0  0  0  0  0  0
    4.2642    0.1778    1.0941 H   0  0  0  0  0  0  0  0  0  0  0  0
    2.9481   -0.2632   -2.6082 H   0  0  0  0  0  0  0  0  0  0  0  0
    3.4565   -1.4299   -4.7347 H   0  0  0  0  0  0  0  0  0  0  0  0
    4.6050   -3.6550   -4.6957 H   0  0  0  0  0  0  0  0  0  0  0  0
    5.2736   -4.6825   -2.5380 H   0  0  0  0  0  0  0  0  0  0  0  0
  1  2  1  0
  1 21  1  0
  1 22  1  0
  1 23  1  0
  2 12  1  0
  2  3  1  0
  3  4  1  0
  3 24  1  0
  3 25  1  0
  5  4  1  1
  4 26  1  0
  4 27  1  0
  5 12  1  0
  5 20  1  0
  5  6  1  0
  6  7  2  0
  6 13  1  0
  7  8  1  0
  7 28  1  0
  8  9  2  0
  8 10  1  0
 10 11  1  0
 11 12  1  0
 11 29  1  0
 11 30  1  0
 12 31  1  6
 13 14  1  0
 13 15  1  0
 13 32  1  6
 14 33  1  0
 15 20  2  0
 15 16  1  0
 16 17  2  0
 16 34  1  0
 17 18  1  0
 17 35  1  0
 18 19  2  0
 18 36  1  0
 19 20  1  0
 19 37  1  0
M  END
>  <i_m_ct_stereo_status>  (316) 
1

>  <s_m_source_file>  (316) 
/var/tmp/pbs.5076255.sched01/tmpr9sv22dd/120oksnzf6p.sdf

>  <i_m_source_file_index>  (316) 
15

>  <i_lp_mmshare_version>  (316) 
48012

>  <i_f3d_flags>  (316) 
0

>  <s_epik_input>  (316) 
W0NIMl0xW0NIMl1OKFtDSDNdKVtDQEhdMltDSDJdT0MoPU8pW0NIXT1DKFtDQEBdMTIzKVtDQEBIXShbT0hdKWM0YzNbY0hdW2NIXVtjSF1bY0hdNA==

>  <s_epik_cmdline>  (316) 
J2VwaWtfcHl0aG9uJywgJy1waHQnLCAnMi4wJywgJy1waCcsICc3LjAnLCAnLXRuJywgJzgnLCAnLW1hJywgJzIwMCcsICctaW1hZScsICc8aW5maWxlLm1hZT4nLCAnLW9tYWUnLCAnPG91dGZpbGUubWFlPic=

>  <r_epik_Ionization_Penalty>  (316) 
0.219796

>  <r_epik_Ionization_Penalty_Charging>  (316) 
0

>  <r_epik_Ionization_Penalty_Neutral>  (316) 
0.219796

>  <r_epik_State_Penalty>  (316) 
0.210094

>  <r_epik_Charging_Adjusted_Penalty>  (316) 
0.210094

>  <i_epik_Tot_Q>  (316) 
0

>  <i_epik_Tot_abs_Q>  (316) 
0

>  <s_epik_Chemistry_Notes>  (316) 
This compound has an ester and may undergo hydrolysis at high or low pH.

>  <s_lp_Force_Field>  (316) 
OPLS3e

>  <r_lp_Energy>  (316) 
38.4381

>  <b_lp_Chiralities_Consistent>  (316) 
1

>  <s_lp_Variant>  (316) 
101:0-1

>  <s_i_glide_gridfile>  (316) 
pfpi4k_grid

>  <i_i_glide_lignum>  (316) 
15

>  <i_i_glide_rotatable_bonds>  (316) 
1

>  <r_i_docking_score>  (316) 
-3.40459

>  <r_i_glide_ligand_efficiency>  (316) 
-0.17023

>  <r_i_glide_ligand_efficiency_sa>  (316) 
-0.462075

>  <r_i_glide_ligand_efficiency_ln>  (316) 
-0.852058

>  <r_i_glide_gscore>  (316) 
-3.40459

>  <r_i_glide_lipo>  (316) 
-0.644431

>  <r_i_glide_hbond>  (316) 
0

>  <r_i_glide_metal>  (316) 
-0

>  <r_i_glide_rewards>  (316) 
-1.5594

>  <r_i_glide_evdw>  (316) 
-21.424

>  <r_i_glide_ecoul>  (316) 
-0.863755

>  <r_i_glide_erotb>  (316) 
0

>  <r_i_glide_esite>  (316) 
0

>  <r_i_glide_emodel>  (316) 
-27.9452

>  <r_i_glide_energy>  (316) 
-22.2878

>  <r_i_glide_einternal>  (316) 
0.16176

>  <r_i_glide_intrahb_reward>  (316) 
-0

>  <i_i_glide_confnum>  (316) 
2

>  <i_i_glide_posenum>  (316) 
7

>  <r_i_glide_eff_state_penalty>  (316) 
0

>  <ligand_id>  (316) 
101

>  <original_smiles>  (316) 
CN1CCC23C(=CC(=O)OCC12)C(O)c1ccccc13

>  <smiles>  (316) 
[H]OC1([H])C2=C([H])C(=O)OC([H])([H])C3([H])N(C([H])([H])[H])C([H])([H])C([H])([H])C23c2c([H])c([H])c([H])c([H])c21

$$$$
101:1:0
     RDKit          3D

 38 41  0  0  1  0  0  0  0  0999 V2000
    3.6584   -7.9007    7.7806 C   0  0  0  0  0  0  0  0  0  0  0  0
    2.7572   -8.4631    6.7456 N   0  0  2  0  0  0  0  0  0  0  0  0
    2.2363   -9.8171    7.0382 C   0  0  0  0  0  0  0  0  0  0  0  0
    1.9560  -10.4559    5.6734 C   0  0  0  0  0  0  0  0  0  0  0  0
    2.1894   -9.3393    4.6272 C   0  0  2  0  0  0  0  0  0  0  0  0
    2.5391   -9.9128    3.2471 C   0  0  0  0  0  0  0  0  0  0  0  0
    3.6857   -9.9029    2.5319 C   0  0  0  0  0  0  0  0  0  0  0  0
    5.0345   -9.3552    2.8162 C   0  0  0  0  0  0  0  0  0  0  0  0
    5.9042   -9.3541    1.9488 O   0  0  0  0  0  0  0  0  0  0  0  0
    5.2656   -8.7406    3.9940 O   0  0  0  0  0  0  0  0  0  0  0  0
    4.6440   -9.0702    5.2106 C   0  0  0  0  0  0  0  0  0  0  0  0
    3.2310   -8.4635    5.3361 C   0  0  2  0  0  0  0  0  0  0  0  0
    1.2268  -10.2836    2.5780 C   0  0  1  0  0  0  0  0  0  0  0  0
    0.8372  -11.5840    2.9706 O   0  0  0  0  0  0  0  0  0  0  0  0
    0.2984   -9.2520    3.1525 C   0  0  0  0  0  0  0  0  0  0  0  0
   -0.9364   -8.8316    2.6252 C   0  0  0  0  0  0  0  0  0  0  0  0
   -1.6291   -7.8062    3.2999 C   0  0  0  0  0  0  0  0  0  0  0  0
   -1.0842   -7.2249    4.4705 C   0  0  0  0  0  0  0  0  0  0  0  0
    0.1551   -7.6618    4.9893 C   0  0  0  0  0  0  0  0  0  0  0  0
    0.8439   -8.6885    4.3091 C   0  0  0  0  0  0  0  0  0  0  0  0
    4.5040   -8.5557    7.9892 H   0  0  0  0  0  0  0  0  0  0  0  0
    3.1098   -7.7673    8.7142 H   0  0  0  0  0  0  0  0  0  0  0  0
    4.0345   -6.9245    7.4728 H   0  0  0  0  0  0  0  0  0  0  0  0
    2.9641  -10.4145    7.5898 H   0  0  0  0  0  0  0  0  0  0  0  0
    1.3330   -9.7535    7.6481 H   0  0  0  0  0  0  0  0  0  0  0  0
    2.6639  -11.2729    5.5263 H   0  0  0  0  0  0  0  0  0  0  0  0
    0.9613  -10.9019    5.6247 H   0  0  0  0  0  0  0  0  0  0  0  0
    3.5983  -10.2663    1.5183 H   0  0  0  0  0  0  0  0  0  0  0  0
    4.6631  -10.1452    5.3955 H   0  0  0  0  0  0  0  0  0  0  0  0
    5.2988   -8.6303    5.9622 H   0  0  0  0  0  0  0  0  0  0  0  0
    3.2342   -7.4442    4.9438 H   0  0  0  0  0  0  0  0  0  0  0  0
    1.3002  -10.2135    1.4977 H   0  0  0  0  0  0  0  0  0  0  0  0
    1.4964  -12.2074    2.6943 H   0  0  0  0  0  0  0  0  0  0  0  0
   -1.3389   -9.2761    1.7258 H   0  0  0  0  0  0  0  0  0  0  0  0
   -2.5812   -7.4680    2.9208 H   0  0  0  0  0  0  0  0  0  0  0  0
   -1.6304   -6.4442    4.9780 H   0  0  0  0  0  0  0  0  0  0  0  0
    0.5516   -7.2022    5.8805 H   0  0  0  0  0  0  0  0  0  0  0  0
    1.9360   -7.8737    6.7339 H   0  0  0  0  0  0  0  0  0  0  0  0
  1  2  1  0
  1 21  1  0
  1 22  1  0
  1 23  1  0
  2 12  1  0
  2  3  1  0
  2 38  1  6
  3  4  1  0
  3 24  1  0
  3 25  1  0
  5  4  1  1
  4 26  1  0
  4 27  1  0
  5 12  1  0
  5 20  1  0
  5  6  1  0
  6  7  2  0
  6 13  1  0
  7  8  1  0
  7 28  1  0
  8  9  2  0
  8 10  1  0
 10 11  1  0
 11 12  1  0
 11 29  1  0
 11 30  1  0
 12 31  1  6
 13 14  1  0
 13 15  1  0
 13 32  1  6
 14 33  1  0
 15 20  2  0
 15 16  1  0
 16 17  2  0
 16 34  1  0
 17 18  1  0
 17 35  1  0
 18 19  2  0
 18 36  1  0
 19 20  1  0
 19 37  1  0
M  CHG  1   2   1
M  END
>  <i_m_ct_stereo_status>  (317) 
1

>  <s_m_source_file>  (317) 
/var/tmp/pbs.5076255.sched01/tmpr9sv22dd/120oksnzf6p.sdf

>  <i_m_source_file_index>  (317) 
16

>  <i_lp_mmshare_version>  (317) 
48012

>  <i_f3d_flags>  (317) 
0

>  <s_epik_input>  (317) 
W0NIMl0xW0NIMl1OKFtDSDNdKVtDQEhdMltDSDJdT0MoPU8pW0NIXT1DKFtDQEBdMTIzKVtDQEBIXShbT0hdKWM0YzNbY0hdW2NIXVtjSF1bY0hdNA==

>  <s_epik_cmdline>  (317) 
J2VwaWtfcHl0aG9uJywgJy1waHQnLCAnMi4wJywgJy1waCcsICc3LjAnLCAnLXRuJywgJzgnLCAnLW1hJywgJzIwMCcsICctaW1hZScsICc8aW5maWxlLm1hZT4nLCAnLW9tYWUnLCAnPG91dGZpbGUubWFlPic=

>  <r_epik_Ionization_Penalty>  (317) 
0.694162

>  <r_epik_Ionization_Penalty_Charging>  (317) 
0.69408

>  <r_epik_Ionization_Penalty_Neutral>  (317) 
8.22563e-05

>  <r_epik_State_Penalty>  (317) 
0.716218

>  <r_epik_Charging_Adjusted_Penalty>  (317) 
1.4103

>  <i_epik_Tot_Q>  (317) 
1

>  <i_epik_Tot_abs_Q>  (317) 
1

>  <s_epik_Chemistry_Notes>  (317) 
This compound has an ester and may undergo hydrolysis at high or low pH.

>  <s_lp_Force_Field>  (317) 
OPLS3e

>  <r_lp_Energy>  (317) 
48.8843

>  <b_lp_Chiralities_Consistent>  (317) 
1

>  <s_lp_Variant>  (317) 
101:0-2

>  <s_i_glide_gridfile>  (317) 
pfpi4k_grid

>  <i_i_glide_lignum>  (317) 
16

>  <i_i_glide_rotatable_bonds>  (317) 
1

>  <r_i_docking_score>  (317) 
-3.38876

>  <r_i_glide_ligand_efficiency>  (317) 
-0.169438

>  <r_i_glide_ligand_efficiency_sa>  (317) 
-0.459925

>  <r_i_glide_ligand_efficiency_ln>  (317) 
-0.848094

>  <r_i_glide_gscore>  (317) 
-3.38876

>  <r_i_glide_lipo>  (317) 
-0.171829

>  <r_i_glide_hbond>  (317) 
0

>  <r_i_glide_metal>  (317) 
-0

>  <r_i_glide_rewards>  (317) 
-1.55237

>  <r_i_glide_evdw>  (317) 
-18.3624

>  <r_i_glide_ecoul>  (317) 
-4.79896

>  <r_i_glide_erotb>  (317) 
0

>  <r_i_glide_esite>  (317) 
-0.0265916

>  <r_i_glide_emodel>  (317) 
-28.7283

>  <r_i_glide_energy>  (317) 
-23.1614

>  <r_i_glide_einternal>  (317) 
0.0743035

>  <r_i_glide_intrahb_reward>  (317) 
-0

>  <i_i_glide_confnum>  (317) 
2

>  <i_i_glide_posenum>  (317) 
26

>  <r_i_glide_eff_state_penalty>  (317) 
0

>  <ligand_id>  (317) 
101

>  <original_smiles>  (317) 
CN1CCC23C(=CC(=O)OCC12)C(O)c1ccccc13

>  <smiles>  (317) 
[H]OC1([H])C2=C([H])C(=O)OC([H])([H])C3([H])C2(c2c([H])c([H])c([H])c([H])c21)C([H])([H])C([H])([H])[N+]3([H])C([H])([H])[H]

$$$$
101:1:1
     RDKit          3D

 38 41  0  0  1  0  0  0  0  0999 V2000
    1.8789   -1.5550    2.1340 C   0  0  0  0  0  0  0  0  0  0  0  0
    1.5659   -0.1610    2.5248 N   0  0  2  0  0  0  0  0  0  0  0  0
    1.8412    0.8447    1.4818 C   0  0  0  0  0  0  0  0  0  0  0  0
    2.1312    2.1443    2.2326 C   0  0  0  0  0  0  0  0  0  0  0  0
    1.8453    1.8574    3.7228 C   0  0  2  0  0  0  0  0  0  0  0  0
    2.6250    2.8089    4.6424 C   0  0  0  0  0  0  0  0  0  0  0  0
    3.6617    2.5923    5.4828 C   0  0  0  0  0  0  0  0  0  0  0  0
    4.4290    1.3622    5.8153 C   0  0  0  0  0  0  0  0  0  0  0  0
    5.2551    1.3717    6.7202 O   0  0  0  0  0  0  0  0  0  0  0  0
    4.1241    0.2016    5.2056 O   0  0  0  0  0  0  0  0  0  0  0  0
    3.6491    0.0864    3.8898 C   0  0  0  0  0  0  0  0  0  0  0  0
    2.1351    0.3517    3.7997 C   0  0  2  0  0  0  0  0  0  0  0  0
    1.8223    4.0994    4.7375 C   0  0  1  0  0  0  0  0  0  0  0  0
    2.1797    4.9734    3.6915 O   0  0  0  0  0  0  0  0  0  0  0  0
    0.4200    3.5854    4.5764 C   0  0  0  0  0  0  0  0  0  0  0  0
   -0.7631    4.2275    4.9729 C   0  0  0  0  0  0  0  0  0  0  0  0
   -1.9808    3.5417    4.7896 C   0  0  0  0  0  0  0  0  0  0  0  0
   -1.9957    2.2505    4.2137 C   0  0  0  0  0  0  0  0  0  0  0  0
   -0.7974    1.6154    3.8244 C   0  0  0  0  0  0  0  0  0  0  0  0
    0.4178    2.3036    4.0208 C   0  0  0  0  0  0  0  0  0  0  0  0
    2.9136   -1.6721    1.8072 H   0  0  0  0  0  0  0  0  0  0  0  0
    1.2424   -1.8416    1.2989 H   0  0  0  0  0  0  0  0  0  0  0  0
    1.6853   -2.2361    2.9628 H   0  0  0  0  0  0  0  0  0  0  0  0
    2.7065    0.5605    0.8810 H   0  0  0  0  0  0  0  0  0  0  0  0
    0.9776    0.9401    0.8243 H   0  0  0  0  0  0  0  0  0  0  0  0
    3.1835    2.3929    2.0993 H   0  0  0  0  0  0  0  0  0  0  0  0
    1.5567    2.9772    1.8264 H   0  0  0  0  0  0  0  0  0  0  0  0
    3.9223    3.4321    6.1142 H   0  0  0  0  0  0  0  0  0  0  0  0
    4.2339    0.6924    3.1942 H   0  0  0  0  0  0  0  0  0  0  0  0
    3.8611   -0.9479    3.6285 H   0  0  0  0  0  0  0  0  0  0  0  0
    1.6305   -0.1122    4.6460 H   0  0  0  0  0  0  0  0  0  0  0  0
    1.9643    4.5986    5.6956 H   0  0  0  0  0  0  0  0  0  0  0  0
    1.8750    4.5974    2.8758 H   0  0  0  0  0  0  0  0  0  0  0  0
   -0.7330    5.2077    5.4232 H   0  0  0  0  0  0  0  0  0  0  0  0
   -2.9094    3.9942    5.0969 H   0  0  0  0  0  0  0  0  0  0  0  0
   -2.9406    1.7457    4.0744 H   0  0  0  0  0  0  0  0  0  0  0  0
   -0.8383    0.6223    3.4033 H   0  0  0  0  0  0  0  0  0  0  0  0
    0.5655   -0.1103    2.6487 H   0  0  0  0  0  0  0  0  0  0  0  0
  1  2  1  0
  1 21  1  0
  1 22  1  0
  1 23  1  0
  2 12  1  0
  2  3  1  0
  2 38  1  1
  3  4  1  0
  3 24  1  0
  3 25  1  0
  5  4  1  6
  4 26  1  0
  4 27  1  0
  5 12  1  0
  5 20  1  0
  5  6  1  0
  6  7  2  0
  6 13  1  0
  7  8  1  0
  7 28  1  0
  8  9  2  0
  8 10  1  0
 10 11  1  0
 11 12  1  0
 11 29  1  0
 11 30  1  0
 12 31  1  1
 13 14  1  0
 13 15  1  0
 13 32  1  1
 14 33  1  0
 15 20  2  0
 15 16  1  0
 16 17  2  0
 16 34  1  0
 17 18  1  0
 17 35  1  0
 18 19  2  0
 18 36  1  0
 19 20  1  0
 19 37  1  0
M  CHG  1   2   1
M  END
>  <i_m_ct_stereo_status>  (318) 
1

>  <s_m_source_file>  (318) 
/var/tmp/pbs.5076255.sched01/tmpr9sv22dd/120oksnzf6p.sdf

>  <i_m_source_file_index>  (318) 
16

>  <i_lp_mmshare_version>  (318) 
48012

>  <i_f3d_flags>  (318) 
0

>  <s_epik_input>  (318) 
W0NIMl0xW0NIMl1OKFtDSDNdKVtDQEhdMltDSDJdT0MoPU8pW0NIXT1DKFtDQEBdMTIzKVtDQEBIXShbT0hdKWM0YzNbY0hdW2NIXVtjSF1bY0hdNA==

>  <s_epik_cmdline>  (318) 
J2VwaWtfcHl0aG9uJywgJy1waHQnLCAnMi4wJywgJy1waCcsICc3LjAnLCAnLXRuJywgJzgnLCAnLW1hJywgJzIwMCcsICctaW1hZScsICc8aW5maWxlLm1hZT4nLCAnLW9tYWUnLCAnPG91dGZpbGUubWFlPic=

>  <r_epik_Ionization_Penalty>  (318) 
0.694162

>  <r_epik_Ionization_Penalty_Charging>  (318) 
0.69408

>  <r_epik_Ionization_Penalty_Neutral>  (318) 
8.22563e-05

>  <r_epik_State_Penalty>  (318) 
0.716218

>  <r_epik_Charging_Adjusted_Penalty>  (318) 
1.4103

>  <i_epik_Tot_Q>  (318) 
1

>  <i_epik_Tot_abs_Q>  (318) 
1

>  <s_epik_Chemistry_Notes>  (318) 
This compound has an ester and may undergo hydrolysis at high or low pH.

>  <s_lp_Force_Field>  (318) 
OPLS3e

>  <r_lp_Energy>  (318) 
48.8843

>  <b_lp_Chiralities_Consistent>  (318) 
1

>  <s_lp_Variant>  (318) 
101:0-2

>  <s_i_glide_gridfile>  (318) 
pfpi4k_grid

>  <i_i_glide_lignum>  (318) 
16

>  <i_i_glide_rotatable_bonds>  (318) 
1

>  <r_i_docking_score>  (318) 
-3.10788

>  <r_i_glide_ligand_efficiency>  (318) 
-0.155394

>  <r_i_glide_ligand_efficiency_sa>  (318) 
-0.421804

>  <r_i_glide_ligand_efficiency_ln>  (318) 
-0.777799

>  <r_i_glide_gscore>  (318) 
-3.10788

>  <r_i_glide_lipo>  (318) 
0

>  <r_i_glide_hbond>  (318) 
0

>  <r_i_glide_metal>  (318) 
-0

>  <r_i_glide_rewards>  (318) 
-1.5566

>  <r_i_glide_evdw>  (318) 
-15.3767

>  <r_i_glide_ecoul>  (318) 
-5.01063

>  <r_i_glide_erotb>  (318) 
0

>  <r_i_glide_esite>  (318) 
-0.030851

>  <r_i_glide_emodel>  (318) 
-25.2183

>  <r_i_glide_energy>  (318) 
-20.3873

>  <r_i_glide_einternal>  (318) 
0.51673

>  <r_i_glide_intrahb_reward>  (318) 
-0

>  <i_i_glide_confnum>  (318) 
2

>  <i_i_glide_posenum>  (318) 
3

>  <r_i_glide_eff_state_penalty>  (318) 
0

>  <ligand_id>  (318) 
101

>  <original_smiles>  (318) 
CN1CCC23C(=CC(=O)OCC12)C(O)c1ccccc13

>  <smiles>  (318) 
[H]OC1([H])C2=C([H])C(=O)OC([H])([H])C3([H])C2(c2c([H])c([H])c([H])c([H])c21)C([H])([H])C([H])([H])[N+]3([H])C([H])([H])[H]

$$$$
101:1:2
     RDKit          3D

 38 41  0  0  1  0  0  0  0  0999 V2000
    3.7999   -0.5605    0.5632 C   0  0  0  0  0  0  0  0  0  0  0  0
    2.9430   -0.3156    1.7494 N   0  0  2  0  0  0  0  0  0  0  0  0
    3.6544    0.2387    2.9245 C   0  0  0  0  0  0  0  0  0  0  0  0
    2.8602   -0.2305    4.1505 C   0  0  0  0  0  0  0  0  0  0  0  0
    1.5904   -0.9208    3.5951 C   0  0  2  0  0  0  0  0  0  0  0  0
    1.0130   -1.9294    4.6007 C   0  0  0  0  0  0  0  0  0  0  0  0
    0.9590   -3.2788    4.5867 C   0  0  0  0  0  0  0  0  0  0  0  0
    1.4343   -4.2785    3.5949 C   0  0  0  0  0  0  0  0  0  0  0  0
    1.1174   -5.4561    3.7051 O   0  0  0  0  0  0  0  0  0  0  0  0
    2.0834   -3.8693    2.4876 O   0  0  0  0  0  0  0  0  0  0  0  0
    2.9031   -2.7331    2.4023 C   0  0  0  0  0  0  0  0  0  0  0  0
    2.0912   -1.4346    2.2365 C   0  0  2  0  0  0  0  0  0  0  0  0
    0.1497   -1.1476    5.5799 C   0  0  1  0  0  0  0  0  0  0  0  0
    0.9300   -0.6915    6.6572 O   0  0  0  0  0  0  0  0  0  0  0  0
   -0.3246   -0.0133    4.7169 C   0  0  0  0  0  0  0  0  0  0  0  0
   -1.4446    0.8040    4.9427 C   0  0  0  0  0  0  0  0  0  0  0  0
   -1.7612    1.7778    3.9753 C   0  0  0  0  0  0  0  0  0  0  0  0
   -0.9656    1.9120    2.8133 C   0  0  0  0  0  0  0  0  0  0  0  0
    0.1542    1.0805    2.5953 C   0  0  0  0  0  0  0  0  0  0  0  0
    0.4655    0.1109    3.5724 C   0  0  0  0  0  0  0  0  0  0  0  0
    4.6439   -1.2144    0.7917 H   0  0  0  0  0  0  0  0  0  0  0  0
    4.2124    0.3840    0.2088 H   0  0  0  0  0  0  0  0  0  0  0  0
    3.2120   -1.0026   -0.2424 H   0  0  0  0  0  0  0  0  0  0  0  0
    4.6808   -0.1321    2.9842 H   0  0  0  0  0  0  0  0  0  0  0  0
    3.6948    1.3272    2.8665 H   0  0  0  0  0  0  0  0  0  0  0  0
    3.4710   -0.9483    4.7065 H   0  0  0  0  0  0  0  0  0  0  0  0
    2.6451    0.5975    4.8328 H   0  0  0  0  0  0  0  0  0  0  0  0
    0.3641   -3.7222    5.3754 H   0  0  0  0  0  0  0  0  0  0  0  0
    3.6097   -2.6907    3.2341 H   0  0  0  0  0  0  0  0  0  0  0  0
    3.5026   -2.9139    1.5131 H   0  0  0  0  0  0  0  0  0  0  0  0
    1.2703   -1.5999    1.5418 H   0  0  0  0  0  0  0  0  0  0  0  0
   -0.6793   -1.7387    5.9642 H   0  0  0  0  0  0  0  0  0  0  0  0
    1.6607   -0.2097    6.2978 H   0  0  0  0  0  0  0  0  0  0  0  0
   -2.0600    0.6789    5.8197 H   0  0  0  0  0  0  0  0  0  0  0  0
   -2.6262    2.4091    4.1071 H   0  0  0  0  0  0  0  0  0  0  0  0
   -1.2263    2.6621    2.0787 H   0  0  0  0  0  0  0  0  0  0  0  0
    0.7254    1.1967    1.6859 H   0  0  0  0  0  0  0  0  0  0  0  0
    2.2799    0.3992    1.4784 H   0  0  0  0  0  0  0  0  0  0  0  0
  1  2  1  0
  1 21  1  0
  1 22  1  0
  1 23  1  0
  2 12  1  0
  2  3  1  0
  2 38  1  6
  3  4  1  0
  3 24  1  0
  3 25  1  0
  5  4  1  1
  4 26  1  0
  4 27  1  0
  5 12  1  0
  5 20  1  0
  5  6  1  0
  6  7  2  0
  6 13  1  0
  7  8  1  0
  7 28  1  0
  8  9  2  0
  8 10  1  0
 10 11  1  0
 11 12  1  0
 11 29  1  0
 11 30  1  0
 12 31  1  6
 13 14  1  0
 13 15  1  0
 13 32  1  1
 14 33  1  0
 15 20  2  0
 15 16  1  0
 16 17  2  0
 16 34  1  0
 17 18  1  0
 17 35  1  0
 18 19  2  0
 18 36  1  0
 19 20  1  0
 19 37  1  0
M  CHG  1   2   1
M  END
>  <i_m_ct_stereo_status>  (319) 
1

>  <s_m_source_file>  (319) 
/var/tmp/pbs.5076255.sched01/tmpr9sv22dd/120oksnzf6p.sdf

>  <i_m_source_file_index>  (319) 
16

>  <i_lp_mmshare_version>  (319) 
48012

>  <i_f3d_flags>  (319) 
0

>  <s_epik_input>  (319) 
W0NIMl0xW0NIMl1OKFtDSDNdKVtDQEhdMltDSDJdT0MoPU8pW0NIXT1DKFtDQEBdMTIzKVtDQEBIXShbT0hdKWM0YzNbY0hdW2NIXVtjSF1bY0hdNA==

>  <s_epik_cmdline>  (319) 
J2VwaWtfcHl0aG9uJywgJy1waHQnLCAnMi4wJywgJy1waCcsICc3LjAnLCAnLXRuJywgJzgnLCAnLW1hJywgJzIwMCcsICctaW1hZScsICc8aW5maWxlLm1hZT4nLCAnLW9tYWUnLCAnPG91dGZpbGUubWFlPic=

>  <r_epik_Ionization_Penalty>  (319) 
0.694162

>  <r_epik_Ionization_Penalty_Charging>  (319) 
0.69408

>  <r_epik_Ionization_Penalty_Neutral>  (319) 
8.22563e-05

>  <r_epik_State_Penalty>  (319) 
0.716218

>  <r_epik_Charging_Adjusted_Penalty>  (319) 
1.4103

>  <i_epik_Tot_Q>  (319) 
1

>  <i_epik_Tot_abs_Q>  (319) 
1

>  <s_epik_Chemistry_Notes>  (319) 
This compound has an ester and may undergo hydrolysis at high or low pH.

>  <s_lp_Force_Field>  (319) 
OPLS3e

>  <r_lp_Energy>  (319) 
48.8843

>  <b_lp_Chiralities_Consistent>  (319) 
1

>  <s_lp_Variant>  (319) 
101:0-2

>  <s_i_glide_gridfile>  (319) 
pfpi4k_grid

>  <i_i_glide_lignum>  (319) 
16

>  <i_i_glide_rotatable_bonds>  (319) 
1

>  <r_i_docking_score>  (319) 
-2.96625

>  <r_i_glide_ligand_efficiency>  (319) 
-0.148313

>  <r_i_glide_ligand_efficiency_sa>  (319) 
-0.402583

>  <r_i_glide_ligand_efficiency_ln>  (319) 
-0.742356

>  <r_i_glide_gscore>  (319) 
-2.96625

>  <r_i_glide_lipo>  (319) 
-0.0247781

>  <r_i_glide_hbond>  (319) 
0

>  <r_i_glide_metal>  (319) 
-0

>  <r_i_glide_rewards>  (319) 
-1.55237

>  <r_i_glide_evdw>  (319) 
-16.7236

>  <r_i_glide_ecoul>  (319) 
-3.43417

>  <r_i_glide_erotb>  (319) 
0

>  <r_i_glide_esite>  (319) 
-0.0378019

>  <r_i_glide_emodel>  (319) 
-24.8809

>  <r_i_glide_energy>  (319) 
-20.1577

>  <r_i_glide_einternal>  (319) 
0.367223

>  <r_i_glide_intrahb_reward>  (319) 
-0

>  <i_i_glide_confnum>  (319) 
2

>  <i_i_glide_posenum>  (319) 
10

>  <r_i_glide_eff_state_penalty>  (319) 
0

>  <ligand_id>  (319) 
101

>  <original_smiles>  (319) 
CN1CCC23C(=CC(=O)OCC12)C(O)c1ccccc13

>  <smiles>  (319) 
[H]OC1([H])C2=C([H])C(=O)OC([H])([H])C3([H])C2(c2c([H])c([H])c([H])c([H])c21)C([H])([H])C([H])([H])[N+]3([H])C([H])([H])[H]

$$$$
102:0:0
     RDKit          3D

 72 76  0  0  1  0  0  0  0  0999 V2000
    0.2743    0.1414    2.3657 C   0  0  0  0  0  0  0  0  0  0  0  0
    1.5194    0.7674    3.0179 C   0  0  2  0  0  0  0  0  0  0  0  0
    1.6391    2.2719    2.6718 C   0  0  0  0  0  0  0  0  0  0  0  0
    0.4163    2.9473    2.8928 O   0  0  0  0  0  0  0  0  0  0  0  0
    2.8515   -0.0064    2.7403 C   0  0  2  0  0  0  0  0  0  0  0  0
    3.4068    0.1143    1.3066 C   0  0  0  0  0  0  0  0  0  0  0  0
    3.9654   -1.2628    0.8958 C   0  0  1  0  0  0  0  0  0  0  0  0
    5.2303   -1.0704    0.2993 O   0  0  0  0  0  0  0  0  0  0  0  0
    4.0236   -2.0826    2.2040 C   0  0  1  0  0  0  0  0  0  0  0  0
    2.8219   -1.5281    2.9704 C   0  0  1  0  0  0  0  0  0  0  0  0
    2.8412   -2.0061    4.4222 C   0  0  0  0  0  0  0  0  0  0  0  0
    2.8541   -3.5324    4.4025 C   0  0  0  0  0  0  0  0  0  0  0  0
    1.9082   -4.1391    4.9000 O   0  0  0  0  0  0  0  0  0  0  0  0
    4.0278   -4.2217    3.6431 C   0  0  2  0  0  0  0  0  0  0  0  0
    4.0676   -3.6633    2.1608 C   0  0  2  0  0  0  0  0  0  0  0  0
    5.4002   -3.9873    1.4257 C   0  0  0  0  0  0  0  0  0  0  0  0
    2.8509   -4.2855    1.4043 C   0  0  0  0  0  0  0  0  0  0  0  0
    2.7889   -5.8299    1.4259 C   0  0  1  0  0  0  0  0  0  0  0  0
    3.7214   -6.2889    0.4753 O   0  0  0  0  0  0  0  0  0  0  0  0
    2.9384   -6.4695    2.8550 C   0  0  1  0  0  0  0  0  0  0  0  0
    2.8288   -8.0543    2.9475 C   0  0  2  0  0  0  0  0  0  0  0  0
    3.8020   -8.7836    1.9790 C   0  0  0  0  0  0  0  0  0  0  0  0
    1.3709   -8.4740    2.5730 C   0  0  0  0  0  0  0  0  0  0  0  0
    1.0434   -9.9557    2.8340 C   0  0  0  0  0  0  0  0  0  0  0  0
    1.3249  -10.3302    4.2937 C   0  0  1  0  0  0  0  0  0  0  0  0
    1.0881  -11.7088    4.4846 O   0  0  0  0  0  0  0  0  0  0  0  0
    2.7748  -10.0086    4.6733 C   0  0  0  0  0  0  0  0  0  0  0  0
    3.1261   -8.5543    4.3767 C   0  0  0  0  0  0  0  0  0  0  0  0
    3.6386   -7.7775    5.3472 C   0  0  0  0  0  0  0  0  0  0  0  0
    4.0047   -6.3211    5.2123 C   0  0  0  0  0  0  0  0  0  0  0  0
    4.0383   -5.8006    3.7473 C   0  0  2  0  0  0  0  0  0  0  0  0
    5.3101   -6.2495    3.3431 O   0  0  0  0  0  0  0  0  0  0  0  0
    0.3619    0.1157    1.2775 H   0  0  0  0  0  0  0  0  0  0  0  0
   -0.6405    0.6856    2.5969 H   0  0  0  0  0  0  0  0  0  0  0  0
    0.1118   -0.8635    2.7376 H   0  0  0  0  0  0  0  0  0  0  0  0
    1.3496    0.7068    4.0901 H   0  0  0  0  0  0  0  0  0  0  0  0
    2.4174    2.7445    3.2768 H   0  0  0  0  0  0  0  0  0  0  0  0
    1.8994    2.4238    1.6279 H   0  0  0  0  0  0  0  0  0  0  0  0
    0.2311    3.5178    2.1348 H   0  0  0  0  0  0  0  0  0  0  0  0
    3.6116    0.4084    3.4067 H   0  0  0  0  0  0  0  0  0  0  0  0
    2.6292    0.3907    0.6010 H   0  0  0  0  0  0  0  0  0  0  0  0
    4.1754    0.8896    1.2679 H   0  0  0  0  0  0  0  0  0  0  0  0
    3.2834   -1.7223    0.1774 H   0  0  0  0  0  0  0  0  0  0  0  0
    5.0943   -0.5297   -0.4685 H   0  0  0  0  0  0  0  0  0  0  0  0
    4.9154   -1.7445    2.7390 H   0  0  0  0  0  0  0  0  0  0  0  0
    1.9343   -1.9148    2.4755 H   0  0  0  0  0  0  0  0  0  0  0  0
    3.7170   -1.6252    4.9510 H   0  0  0  0  0  0  0  0  0  0  0  0
    1.9545   -1.6481    4.9466 H   0  0  0  0  0  0  0  0  0  0  0  0
    4.9311   -3.8693    4.1438 H   0  0  0  0  0  0  0  0  0  0  0  0
    5.6300   -5.0413    1.3212 H   0  0  0  0  0  0  0  0  0  0  0  0
    6.2616   -3.5349    1.9231 H   0  0  0  0  0  0  0  0  0  0  0  0
    5.3744   -3.6240    0.3974 H   0  0  0  0  0  0  0  0  0  0  0  0
    1.9242   -3.9424    1.8520 H   0  0  0  0  0  0  0  0  0  0  0  0
    2.8164   -3.9277    0.3747 H   0  0  0  0  0  0  0  0  0  0  0  0
    1.8087   -6.1141    1.0410 H   0  0  0  0  0  0  0  0  0  0  0  0
    3.4758   -5.9628   -0.3879 H   0  0  0  0  0  0  0  0  0  0  0  0
    2.0294   -6.1485    3.3485 H   0  0  0  0  0  0  0  0  0  0  0  0
    3.4736   -8.7160    0.9403 H   0  0  0  0  0  0  0  0  0  0  0  0
    3.8836   -9.8539    2.1767 H   0  0  0  0  0  0  0  0  0  0  0  0
    4.8137   -8.3829    2.0385 H   0  0  0  0  0  0  0  0  0  0  0  0
    0.6593   -7.8794    3.1443 H   0  0  0  0  0  0  0  0  0  0  0  0
    1.1707   -8.2571    1.5230 H   0  0  0  0  0  0  0  0  0  0  0  0
   -0.0064  -10.1464    2.6017 H   0  0  0  0  0  0  0  0  0  0  0  0
    1.6220  -10.5883    2.1618 H   0  0  0  0  0  0  0  0  0  0  0  0
    0.6444   -9.7788    4.9452 H   0  0  0  0  0  0  0  0  0  0  0  0
    1.1897  -11.9140    5.4048 H   0  0  0  0  0  0  0  0  0  0  0  0
    2.9278  -10.2209    5.7303 H   0  0  0  0  0  0  0  0  0  0  0  0
    3.4587  -10.6632    4.1362 H   0  0  0  0  0  0  0  0  0  0  0  0
    3.7955   -8.1935    6.3287 H   0  0  0  0  0  0  0  0  0  0  0  0
    3.2921   -5.8094    5.8474 H   0  0  0  0  0  0  0  0  0  0  0  0
    4.9728   -6.1650    5.6886 H   0  0  0  0  0  0  0  0  0  0  0  0
    5.3653   -6.1420    2.4008 H   0  0  0  0  0  0  0  0  0  0  0  0
  1  2  1  0
  1 33  1  0
  1 34  1  0
  1 35  1  0
  2  3  1  0
  2  5  1  0
  2 36  1  1
  3  4  1  0
  3 37  1  0
  3 38  1  0
  4 39  1  0
  5 10  1  0
  5  6  1  0
  5 40  1  1
  6  7  1  0
  6 41  1  0
  6 42  1  0
  7  8  1  0
  7  9  1  0
  7 43  1  6
  8 44  1  0
  9 15  1  0
  9 10  1  0
  9 45  1  1
 10 11  1  0
 10 46  1  6
 11 12  1  0
 11 47  1  0
 11 48  1  0
 12 13  2  0
 12 14  1  0
 14 31  1  0
 14 15  1  0
 14 49  1  1
 15 16  1  6
 15 17  1  0
 16 50  1  0
 16 51  1  0
 16 52  1  0
 17 18  1  0
 17 53  1  0
 17 54  1  0
 18 19  1  0
 18 20  1  0
 18 55  1  6
 19 56  1  0
 20 31  1  0
 20 21  1  0
 20 57  1  1
 21 28  1  0
 21 22  1  6
 21 23  1  0
 22 58  1  0
 22 59  1  0
 22 60  1  0
 23 24  1  0
 23 61  1  0
 23 62  1  0
 24 25  1  0
 24 63  1  0
 24 64  1  0
 25 26  1  0
 25 27  1  0
 25 65  1  1
 26 66  1  0
 27 28  1  0
 27 67  1  0
 27 68  1  0
 28 29  2  0
 29 30  1  0
 29 69  1  0
 30 31  1  0
 30 70  1  0
 30 71  1  0
 31 32  1  6
 32 72  1  0
M  END
>  <i_m_ct_stereo_status>  (320) 
1

>  <s_m_source_file>  (320) 
/var/tmp/pbs.5076255.sched01/tmpr9sv22dd/120oksnzf6p.sdf

>  <i_m_source_file_index>  (320) 
17

>  <i_lp_mmshare_version>  (320) 
48012

>  <i_f3d_flags>  (320) 
0

>  <s_epik_input>  (320) 
W09IXVtDSDJdW0NAQEhdKFtDSDNdKVtDQEhdKFtDSDJdW0NASF0xW09IXSlbQ0BASF0oW0NASF0xW0NAQF0yM1tDSDNdKVtDSDJdQyg9TylbQ0BIXTJbQ0BdNChbT0hdKVtDQEBIXShbQ0BASF0oW0NIMl0zKVtPSF0pW0NAQF01KFtDSDNdKUMoPVtDSF1bQ0gyXTQpW0NIMl1bQ0BIXShbT0hdKVtDSDJdW0NIMl01

>  <s_epik_cmdline>  (320) 
J2VwaWtfcHl0aG9uJywgJy1waHQnLCAnMi4wJywgJy1waCcsICc3LjAnLCAnLXRuJywgJzgnLCAnLW1hJywgJzIwMCcsICctaW1hZScsICc8aW5maWxlLm1hZT4nLCAnLW9tYWUnLCAnPG91dGZpbGUubWFlPic=

>  <r_lp_tautomer_probability>  (320) 
1

>  <r_epik_Ionization_Penalty>  (320) 
3.47705e-06

>  <r_epik_Ionization_Penalty_Charging>  (320) 
0

>  <r_epik_Ionization_Penalty_Neutral>  (320) 
3.47705e-06

>  <r_epik_State_Penalty>  (320) 
-0

>  <r_epik_Charging_Adjusted_Penalty>  (320) 
0

>  <i_epik_Tot_Q>  (320) 
0

>  <i_epik_Tot_abs_Q>  (320) 
0

>  <s_lp_Force_Field>  (320) 
OPLS3e

>  <r_lp_Energy>  (320) 
50.0727

>  <b_lp_Chiralities_Consistent>  (320) 
1

>  <s_lp_Variant>  (320) 
102:0-1

>  <s_i_glide_gridfile>  (320) 
pfpi4k_grid

>  <i_i_glide_lignum>  (320) 
17

>  <i_i_glide_rotatable_bonds>  (320) 
7

>  <r_i_docking_score>  (320) 
-2.94794

>  <r_i_glide_ligand_efficiency>  (320) 
-0.0921231

>  <r_i_glide_ligand_efficiency_sa>  (320) 
-0.292472

>  <r_i_glide_ligand_efficiency_ln>  (320) 
-0.660124

>  <r_i_glide_gscore>  (320) 
-2.94794

>  <r_i_glide_lipo>  (320) 
-0.186097

>  <r_i_glide_hbond>  (320) 
-0.219479

>  <r_i_glide_metal>  (320) 
-0

>  <r_i_glide_rewards>  (320) 
-0.350508

>  <r_i_glide_evdw>  (320) 
-21.7479

>  <r_i_glide_ecoul>  (320) 
-8.69045

>  <r_i_glide_erotb>  (320) 
0.199111

>  <r_i_glide_esite>  (320) 
0

>  <r_i_glide_emodel>  (320) 
-34.5586

>  <r_i_glide_energy>  (320) 
-30.4384

>  <r_i_glide_einternal>  (320) 
3.34157

>  <r_i_glide_intrahb_reward>  (320) 
-0

>  <i_i_glide_confnum>  (320) 
3

>  <i_i_glide_posenum>  (320) 
21

>  <r_i_glide_eff_state_penalty>  (320) 
0

>  <ligand_id>  (320) 
102

>  <original_smiles>  (320) 
CC(CO)C1CC(O)C2C1CC(=O)C1C2(C)CC(O)C2C3(C)CCC(O)CC3=CCC21O

>  <smiles>  (320) 
[H]OC([H])([H])C([H])(C([H])([H])[H])C1([H])C([H])([H])C([H])(O[H])C2([H])C1([H])C([H])([H])C(=O)C1([H])C3(O[H])C([H])([H])C([H])=C4C([H])([H])C([H])(O[H])C([H])([H])C([H])([H])C4(C([H])([H])[H])C3([H])C([H])(O[H])C([H])([H])C12C([H])([H])[H]

$$$$
102:0:1
     RDKit          3D

 72 76  0  0  1  0  0  0  0  0999 V2000
   -0.1932   -9.1886    3.6999 C   0  0  0  0  0  0  0  0  0  0  0  0
    1.2014   -9.5930    4.2254 C   0  0  2  0  0  0  0  0  0  0  0  0
    1.2864  -11.1195    4.4839 C   0  0  0  0  0  0  0  0  0  0  0  0
    1.0735  -11.8508    3.2884 O   0  0  0  0  0  0  0  0  0  0  0  0
    1.6947   -8.7638    5.4548 C   0  0  2  0  0  0  0  0  0  0  0  0
    0.9792   -9.0496    6.7945 C   0  0  0  0  0  0  0  0  0  0  0  0
    0.8145   -7.6937    7.5213 C   0  0  1  0  0  0  0  0  0  0  0  0
    1.1132   -7.8213    8.8969 O   0  0  0  0  0  0  0  0  0  0  0  0
    1.7107   -6.6940    6.7563 C   0  0  1  0  0  0  0  0  0  0  0  0
    1.6184   -7.2294    5.3244 C   0  0  1  0  0  0  0  0  0  0  0  0
    2.6659   -6.5543    4.4357 C   0  0  0  0  0  0  0  0  0  0  0  0
    2.4188   -5.0472    4.4983 C   0  0  0  0  0  0  0  0  0  0  0  0
    2.1034   -4.4524    3.4700 O   0  0  0  0  0  0  0  0  0  0  0  0
    2.4667   -4.3796    5.9106 C   0  0  2  0  0  0  0  0  0  0  0  0
    1.4481   -5.1347    6.8610 C   0  0  2  0  0  0  0  0  0  0  0  0
    1.6651   -4.8042    8.3664 C   0  0  0  0  0  0  0  0  0  0  0  0
    0.0091   -4.7221    6.4087 C   0  0  0  0  0  0  0  0  0  0  0  0
   -0.2628   -3.1995    6.3778 C   0  0  1  0  0  0  0  0  0  0  0  0
   -0.5258   -2.7989    7.7055 O   0  0  0  0  0  0  0  0  0  0  0  0
    0.8266   -2.3570    5.6197 C   0  0  1  0  0  0  0  0  0  0  0  0
    0.5795   -0.7882    5.5202 C   0  0  2  0  0  0  0  0  0  0  0  0
    0.3385   -0.1271    6.9070 C   0  0  0  0  0  0  0  0  0  0  0  0
   -0.6840   -0.5416    4.6359 C   0  0  0  0  0  0  0  0  0  0  0  0
   -0.9268    0.9309    4.2537 C   0  0  0  0  0  0  0  0  0  0  0  0
    0.3023    1.5316    3.5562 C   0  0  1  0  0  0  0  0  0  0  0  0
    0.0591    2.9051    3.2867 O   0  0  0  0  0  0  0  0  0  0  0  0
    1.5518    1.3801    4.4385 C   0  0  0  0  0  0  0  0  0  0  0  0
    1.7757   -0.0714    4.8607 C   0  0  0  0  0  0  0  0  0  0  0  0
    2.9634   -0.6633    4.6276 C   0  0  0  0  0  0  0  0  0  0  0  0
    3.3186   -2.0917    4.9578 C   0  0  0  0  0  0  0  0  0  0  0  0
    2.3037   -2.8038    5.8958 C   0  0  2  0  0  0  0  0  0  0  0  0
    2.7347   -2.2967    7.1439 O   0  0  0  0  0  0  0  0  0  0  0  0
   -0.9612   -9.3125    4.4600 H   0  0  0  0  0  0  0  0  0  0  0  0
   -0.4821   -9.7970    2.8430 H   0  0  0  0  0  0  0  0  0  0  0  0
   -0.2240   -8.1592    3.3511 H   0  0  0  0  0  0  0  0  0  0  0  0
    1.9038   -9.3769    3.4203 H   0  0  0  0  0  0  0  0  0  0  0  0
    2.2699  -11.3831    4.8704 H   0  0  0  0  0  0  0  0  0  0  0  0
    0.5561  -11.4345    5.2293 H   0  0  0  0  0  0  0  0  0  0  0  0
    1.3416  -12.7583    3.4098 H   0  0  0  0  0  0  0  0  0  0  0  0
    2.7472   -9.0148    5.6070 H   0  0  0  0  0  0  0  0  0  0  0  0
    0.0004   -9.5077    6.6481 H   0  0  0  0  0  0  0  0  0  0  0  0
    1.5695   -9.7586    7.3783 H   0  0  0  0  0  0  0  0  0  0  0  0
   -0.2165   -7.3746    7.4354 H   0  0  0  0  0  0  0  0  0  0  0  0
    1.9753   -8.2063    8.9842 H   0  0  0  0  0  0  0  0  0  0  0  0
    2.7342   -6.8766    7.0909 H   0  0  0  0  0  0  0  0  0  0  0  0
    0.6270   -6.9875    4.9493 H   0  0  0  0  0  0  0  0  0  0  0  0
    3.6783   -6.7856    4.7726 H   0  0  0  0  0  0  0  0  0  0  0  0
    2.5726   -6.9037    3.4065 H   0  0  0  0  0  0  0  0  0  0  0  0
    3.4709   -4.5886    6.2824 H   0  0  0  0  0  0  0  0  0  0  0  0
    1.5695   -3.7604    8.6386 H   0  0  0  0  0  0  0  0  0  0  0  0
    2.6508   -5.1238    8.7088 H   0  0  0  0  0  0  0  0  0  0  0  0
    0.9199   -5.3075    8.9824 H   0  0  0  0  0  0  0  0  0  0  0  0
   -0.1815   -5.0724    5.3979 H   0  0  0  0  0  0  0  0  0  0  0  0
   -0.7455   -5.2163    7.0216 H   0  0  0  0  0  0  0  0  0  0  0  0
   -1.2086   -3.0565    5.8560 H   0  0  0  0  0  0  0  0  0  0  0  0
    0.2614   -2.9438    8.2104 H   0  0  0  0  0  0  0  0  0  0  0  0
    0.6872   -2.6803    4.5920 H   0  0  0  0  0  0  0  0  0  0  0  0
   -0.6474   -0.3616    7.3007 H   0  0  0  0  0  0  0  0  0  0  0  0
    0.3744    0.9616    6.8712 H   0  0  0  0  0  0  0  0  0  0  0  0
    1.0793   -0.4350    7.6429 H   0  0  0  0  0  0  0  0  0  0  0  0
   -0.5885   -1.1044    3.7079 H   0  0  0  0  0  0  0  0  0  0  0  0
   -1.5764   -0.9256    5.1292 H   0  0  0  0  0  0  0  0  0  0  0  0
   -1.7884    0.9953    3.5890 H   0  0  0  0  0  0  0  0  0  0  0  0
   -1.1842    1.5092    5.1399 H   0  0  0  0  0  0  0  0  0  0  0  0
    0.4672    1.0117    2.6098 H   0  0  0  0  0  0  0  0  0  0  0  0
    0.2142    3.1084    2.3700 H   0  0  0  0  0  0  0  0  0  0  0  0
    2.4250    1.7477    3.9018 H   0  0  0  0  0  0  0  0  0  0  0  0
    1.4685    2.0026    5.3281 H   0  0  0  0  0  0  0  0  0  0  0  0
    3.7450   -0.1029    4.1436 H   0  0  0  0  0  0  0  0  0  0  0  0
    3.4391   -2.5671    3.9907 H   0  0  0  0  0  0  0  0  0  0  0  0
    4.3146   -2.1045    5.4030 H   0  0  0  0  0  0  0  0  0  0  0  0
    2.2311   -2.7035    7.8284 H   0  0  0  0  0  0  0  0  0  0  0  0
  1  2  1  0
  1 33  1  0
  1 34  1  0
  1 35  1  0
  2  3  1  0
  2  5  1  0
  2 36  1  6
  3  4  1  0
  3 37  1  0
  3 38  1  0
  4 39  1  0
  5 10  1  0
  5  6  1  0
  5 40  1  1
  6  7  1  0
  6 41  1  0
  6 42  1  0
  7  8  1  0
  7  9  1  0
  7 43  1  1
  8 44  1  0
  9 15  1  0
  9 10  1  0
  9 45  1  1
 10 11  1  0
 10 46  1  6
 11 12  1  0
 11 47  1  0
 11 48  1  0
 12 13  2  0
 12 14  1  0
 14 31  1  0
 14 15  1  0
 14 49  1  1
 15 16  1  1
 15 17  1  0
 16 50  1  0
 16 51  1  0
 16 52  1  0
 17 18  1  0
 17 53  1  0
 17 54  1  0
 18 19  1  0
 18 20  1  0
 18 55  1  6
 19 56  1  0
 20 31  1  0
 20 21  1  0
 20 57  1  6
 21 28  1  0
 21 22  1  1
 21 23  1  0
 22 58  1  0
 22 59  1  0
 22 60  1  0
 23 24  1  0
 23 61  1  0
 23 62  1  0
 24 25  1  0
 24 63  1  0
 24 64  1  0
 25 26  1  0
 25 27  1  0
 25 65  1  6
 26 66  1  0
 27 28  1  0
 27 67  1  0
 27 68  1  0
 28 29  2  0
 29 30  1  0
 29 69  1  0
 30 31  1  0
 30 70  1  0
 30 71  1  0
 31 32  1  1
 32 72  1  0
M  END
>  <i_m_ct_stereo_status>  (321) 
1

>  <s_m_source_file>  (321) 
/var/tmp/pbs.5076255.sched01/tmpr9sv22dd/120oksnzf6p.sdf

>  <i_m_source_file_index>  (321) 
17

>  <i_lp_mmshare_version>  (321) 
48012

>  <i_f3d_flags>  (321) 
0

>  <s_epik_input>  (321) 
W09IXVtDSDJdW0NAQEhdKFtDSDNdKVtDQEhdKFtDSDJdW0NASF0xW09IXSlbQ0BASF0oW0NASF0xW0NAQF0yM1tDSDNdKVtDSDJdQyg9TylbQ0BIXTJbQ0BdNChbT0hdKVtDQEBIXShbQ0BASF0oW0NIMl0zKVtPSF0pW0NAQF01KFtDSDNdKUMoPVtDSF1bQ0gyXTQpW0NIMl1bQ0BIXShbT0hdKVtDSDJdW0NIMl01

>  <s_epik_cmdline>  (321) 
J2VwaWtfcHl0aG9uJywgJy1waHQnLCAnMi4wJywgJy1waCcsICc3LjAnLCAnLXRuJywgJzgnLCAnLW1hJywgJzIwMCcsICctaW1hZScsICc8aW5maWxlLm1hZT4nLCAnLW9tYWUnLCAnPG91dGZpbGUubWFlPic=

>  <r_lp_tautomer_probability>  (321) 
1

>  <r_epik_Ionization_Penalty>  (321) 
3.47705e-06

>  <r_epik_Ionization_Penalty_Charging>  (321) 
0

>  <r_epik_Ionization_Penalty_Neutral>  (321) 
3.47705e-06

>  <r_epik_State_Penalty>  (321) 
-0

>  <r_epik_Charging_Adjusted_Penalty>  (321) 
0

>  <i_epik_Tot_Q>  (321) 
0

>  <i_epik_Tot_abs_Q>  (321) 
0

>  <s_lp_Force_Field>  (321) 
OPLS3e

>  <r_lp_Energy>  (321) 
50.0727

>  <b_lp_Chiralities_Consistent>  (321) 
1

>  <s_lp_Variant>  (321) 
102:0-1

>  <s_i_glide_gridfile>  (321) 
pfpi4k_grid

>  <i_i_glide_lignum>  (321) 
17

>  <i_i_glide_rotatable_bonds>  (321) 
7

>  <r_i_docking_score>  (321) 
-2.90687

>  <r_i_glide_ligand_efficiency>  (321) 
-0.0908397

>  <r_i_glide_ligand_efficiency_sa>  (321) 
-0.288398

>  <r_i_glide_ligand_efficiency_ln>  (321) 
-0.650927

>  <r_i_glide_gscore>  (321) 
-2.90687

>  <r_i_glide_lipo>  (321) 
-0.0204456

>  <r_i_glide_hbond>  (321) 
-0.456

>  <r_i_glide_metal>  (321) 
-0

>  <r_i_glide_rewards>  (321) 
-0.350508

>  <r_i_glide_evdw>  (321) 
-17.5722

>  <r_i_glide_ecoul>  (321) 
-9.33611

>  <r_i_glide_erotb>  (321) 
0.199111

>  <r_i_glide_esite>  (321) 
0

>  <r_i_glide_emodel>  (321) 
-31.473

>  <r_i_glide_energy>  (321) 
-26.9083

>  <r_i_glide_einternal>  (321) 
2.39326

>  <r_i_glide_intrahb_reward>  (321) 
-0

>  <i_i_glide_confnum>  (321) 
3

>  <i_i_glide_posenum>  (321) 
2

>  <r_i_glide_eff_state_penalty>  (321) 
0

>  <ligand_id>  (321) 
102

>  <original_smiles>  (321) 
CC(CO)C1CC(O)C2C1CC(=O)C1C2(C)CC(O)C2C3(C)CCC(O)CC3=CCC21O

>  <smiles>  (321) 
[H]OC([H])([H])C([H])(C([H])([H])[H])C1([H])C([H])([H])C([H])(O[H])C2([H])C1([H])C([H])([H])C(=O)C1([H])C3(O[H])C([H])([H])C([H])=C4C([H])([H])C([H])(O[H])C([H])([H])C([H])([H])C4(C([H])([H])[H])C3([H])C([H])(O[H])C([H])([H])C12C([H])([H])[H]

$$$$
102:0:2
     RDKit          3D

 72 76  0  0  1  0  0  0  0  0999 V2000
    0.7234    0.3658    1.9241 C   0  0  0  0  0  0  0  0  0  0  0  0
    1.8741    0.7019    2.8984 C   0  0  2  0  0  0  0  0  0  0  0  0
    2.1556    2.2221    2.9417 C   0  0  0  0  0  0  0  0  0  0  0  0
    0.9863    2.9823    3.1876 O   0  0  0  0  0  0  0  0  0  0  0  0
    3.1830   -0.1234    2.6656 C   0  0  2  0  0  0  0  0  0  0  0  0
    3.8010   -0.0398    1.2486 C   0  0  0  0  0  0  0  0  0  0  0  0
    4.3027   -1.4464    0.8687 C   0  0  1  0  0  0  0  0  0  0  0  0
    5.5971   -1.3486    0.3027 O   0  0  0  0  0  0  0  0  0  0  0  0
    4.2779   -2.2524    2.1834 C   0  0  1  0  0  0  0  0  0  0  0  0
    3.0738   -1.6404    2.9083 C   0  0  1  0  0  0  0  0  0  0  0  0
    3.0474   -2.1067    4.3653 C   0  0  0  0  0  0  0  0  0  0  0  0
    3.0030   -3.6354    4.3651 C   0  0  0  0  0  0  0  0  0  0  0  0
    2.0262   -4.2021    4.8457 O   0  0  0  0  0  0  0  0  0  0  0  0
    4.1742   -4.3738    3.6382 C   0  0  2  0  0  0  0  0  0  0  0  0
    4.2722   -3.8333    2.1530 C   0  0  2  0  0  0  0  0  0  0  0  0
    5.6112   -4.2222    1.4561 C   0  0  0  0  0  0  0  0  0  0  0  0
    3.0529   -4.4166    1.3714 C   0  0  0  0  0  0  0  0  0  0  0  0
    2.9325   -5.9587    1.4044 C   0  0  1  0  0  0  0  0  0  0  0  0
    3.8674   -6.4680    0.4747 O   0  0  0  0  0  0  0  0  0  0  0  0
    3.0168   -6.5851    2.8433 C   0  0  1  0  0  0  0  0  0  0  0  0
    2.8466   -8.1647    2.9449 C   0  0  2  0  0  0  0  0  0  0  0  0
    3.8180   -8.9418    2.0082 C   0  0  0  0  0  0  0  0  0  0  0  0
    1.3828   -8.5316    2.5387 C   0  0  0  0  0  0  0  0  0  0  0  0
    0.9930   -9.9986    2.8042 C   0  0  0  0  0  0  0  0  0  0  0  0
    1.2271  -10.3734    4.2746 C   0  0  1  0  0  0  0  0  0  0  0  0
    0.9494  -11.7423    4.4837 O   0  0  0  0  0  0  0  0  0  0  0  0
    2.6766  -10.0986    4.6879 C   0  0  0  0  0  0  0  0  0  0  0  0
    3.0875   -8.6597    4.3864 C   0  0  0  0  0  0  0  0  0  0  0  0
    3.6038   -7.8939    5.3633 C   0  0  0  0  0  0  0  0  0  0  0  0
    4.0312   -6.4531    5.2247 C   0  0  0  0  0  0  0  0  0  0  0  0
    4.1237   -5.9518    3.7558 C   0  0  2  0  0  0  0  0  0  0  0  0
    5.3882   -6.4614    3.3866 O   0  0  0  0  0  0  0  0  0  0  0  0
    0.9734    0.5921    0.8894 H   0  0  0  0  0  0  0  0  0  0  0  0
   -0.1759    0.9368    2.1527 H   0  0  0  0  0  0  0  0  0  0  0  0
    0.4379   -0.6806    1.9793 H   0  0  0  0  0  0  0  0  0  0  0  0
    1.5177    0.4365    3.8938 H   0  0  0  0  0  0  0  0  0  0  0  0
    2.8650    2.4433    3.7391 H   0  0  0  0  0  0  0  0  0  0  0  0
    2.6048    2.5694    2.0161 H   0  0  0  0  0  0  0  0  0  0  0  0
    0.6460    3.3040    2.3529 H   0  0  0  0  0  0  0  0  0  0  0  0
    3.9374    0.2470    3.3665 H   0  0  0  0  0  0  0  0  0  0  0  0
    3.0892    0.2763    0.4912 H   0  0  0  0  0  0  0  0  0  0  0  0
    4.6131    0.6820    1.2311 H   0  0  0  0  0  0  0  0  0  0  0  0
    3.6147   -1.8796    0.1435 H   0  0  0  0  0  0  0  0  0  0  0  0
    5.8599   -2.2167    0.0323 H   0  0  0  0  0  0  0  0  0  0  0  0
    5.1640   -1.9480    2.7457 H   0  0  0  0  0  0  0  0  0  0  0  0
    2.1668   -1.9753    2.4098 H   0  0  0  0  0  0  0  0  0  0  0  0
    3.9269   -1.7576    4.9095 H   0  0  0  0  0  0  0  0  0  0  0  0
    2.1654   -1.7132    4.8714 H   0  0  0  0  0  0  0  0  0  0  0  0
    5.0751   -4.0515    4.1631 H   0  0  0  0  0  0  0  0  0  0  0  0
    5.8006   -5.2862    1.3749 H   0  0  0  0  0  0  0  0  0  0  0  0
    6.4763   -3.7967    1.9687 H   0  0  0  0  0  0  0  0  0  0  0  0
    5.6244   -3.8865    0.4204 H   0  0  0  0  0  0  0  0  0  0  0  0
    2.1277   -4.0289    1.7902 H   0  0  0  0  0  0  0  0  0  0  0  0
    3.0581   -4.0683    0.3392 H   0  0  0  0  0  0  0  0  0  0  0  0
    1.9515   -6.2051    0.9961 H   0  0  0  0  0  0  0  0  0  0  0  0
    3.6403   -6.1564   -0.3951 H   0  0  0  0  0  0  0  0  0  0  0  0
    2.1064   -6.2205    3.3135 H   0  0  0  0  0  0  0  0  0  0  0  0
    3.5188   -8.8734    0.9621 H   0  0  0  0  0  0  0  0  0  0  0  0
    3.8529  -10.0116    2.2185 H   0  0  0  0  0  0  0  0  0  0  0  0
    4.8419   -8.5793    2.0899 H   0  0  0  0  0  0  0  0  0  0  0  0
    0.6805   -7.9026    3.0854 H   0  0  0  0  0  0  0  0  0  0  0  0
    1.2180   -8.3161    1.4832 H   0  0  0  0  0  0  0  0  0  0  0  0
   -0.0573  -10.1494    2.5460 H   0  0  0  0  0  0  0  0  0  0  0  0
    1.5633  -10.6547    2.1494 H   0  0  0  0  0  0  0  0  0  0  0  0
    0.5488   -9.7939    4.9035 H   0  0  0  0  0  0  0  0  0  0  0  0
    1.0277  -11.9329    5.4088 H   0  0  0  0  0  0  0  0  0  0  0  0
    2.7934  -10.3093    5.7506 H   0  0  0  0  0  0  0  0  0  0  0  0
    3.3486  -10.7845    4.1742 H   0  0  0  0  0  0  0  0  0  0  0  0
    3.7182   -8.3101    6.3513 H   0  0  0  0  0  0  0  0  0  0  0  0
    3.3220   -5.9085    5.8378 H   0  0  0  0  0  0  0  0  0  0  0  0
    4.9907   -6.3301    5.7279 H   0  0  0  0  0  0  0  0  0  0  0  0
    5.4660   -6.3767    2.4466 H   0  0  0  0  0  0  0  0  0  0  0  0
  1  2  1  0
  1 33  1  0
  1 34  1  0
  1 35  1  0
  2  3  1  0
  2  5  1  0
  2 36  1  1
  3  4  1  0
  3 37  1  0
  3 38  1  0
  4 39  1  0
  5 10  1  0
  5  6  1  0
  5 40  1  1
  6  7  1  0
  6 41  1  0
  6 42  1  0
  7  8  1  0
  7  9  1  0
  7 43  1  6
  8 44  1  0
  9 15  1  0
  9 10  1  0
  9 45  1  1
 10 11  1  0
 10 46  1  6
 11 12  1  0
 11 47  1  0
 11 48  1  0
 12 13  2  0
 12 14  1  0
 14 31  1  0
 14 15  1  0
 14 49  1  1
 15 16  1  6
 15 17  1  0
 16 50  1  0
 16 51  1  0
 16 52  1  0
 17 18  1  0
 17 53  1  0
 17 54  1  0
 18 19  1  0
 18 20  1  0
 18 55  1  6
 19 56  1  0
 20 31  1  0
 20 21  1  0
 20 57  1  1
 21 28  1  0
 21 22  1  6
 21 23  1  0
 22 58  1  0
 22 59  1  0
 22 60  1  0
 23 24  1  0
 23 61  1  0
 23 62  1  0
 24 25  1  0
 24 63  1  0
 24 64  1  0
 25 26  1  0
 25 27  1  0
 25 65  1  1
 26 66  1  0
 27 28  1  0
 27 67  1  0
 27 68  1  0
 28 29  2  0
 29 30  1  0
 29 69  1  0
 30 31  1  0
 30 70  1  0
 30 71  1  0
 31 32  1  6
 32 72  1  0
M  END
>  <i_m_ct_stereo_status>  (322) 
1

>  <s_m_source_file>  (322) 
/var/tmp/pbs.5076255.sched01/tmpr9sv22dd/120oksnzf6p.sdf

>  <i_m_source_file_index>  (322) 
17

>  <i_lp_mmshare_version>  (322) 
48012

>  <i_f3d_flags>  (322) 
0

>  <s_epik_input>  (322) 
W09IXVtDSDJdW0NAQEhdKFtDSDNdKVtDQEhdKFtDSDJdW0NASF0xW09IXSlbQ0BASF0oW0NASF0xW0NAQF0yM1tDSDNdKVtDSDJdQyg9TylbQ0BIXTJbQ0BdNChbT0hdKVtDQEBIXShbQ0BASF0oW0NIMl0zKVtPSF0pW0NAQF01KFtDSDNdKUMoPVtDSF1bQ0gyXTQpW0NIMl1bQ0BIXShbT0hdKVtDSDJdW0NIMl01

>  <s_epik_cmdline>  (322) 
J2VwaWtfcHl0aG9uJywgJy1waHQnLCAnMi4wJywgJy1waCcsICc3LjAnLCAnLXRuJywgJzgnLCAnLW1hJywgJzIwMCcsICctaW1hZScsICc8aW5maWxlLm1hZT4nLCAnLW9tYWUnLCAnPG91dGZpbGUubWFlPic=

>  <r_lp_tautomer_probability>  (322) 
1

>  <r_epik_Ionization_Penalty>  (322) 
3.47705e-06

>  <r_epik_Ionization_Penalty_Charging>  (322) 
0

>  <r_epik_Ionization_Penalty_Neutral>  (322) 
3.47705e-06

>  <r_epik_State_Penalty>  (322) 
-0

>  <r_epik_Charging_Adjusted_Penalty>  (322) 
0

>  <i_epik_Tot_Q>  (322) 
0

>  <i_epik_Tot_abs_Q>  (322) 
0

>  <s_lp_Force_Field>  (322) 
OPLS3e

>  <r_lp_Energy>  (322) 
50.0727

>  <b_lp_Chiralities_Consistent>  (322) 
1

>  <s_lp_Variant>  (322) 
102:0-1

>  <s_i_glide_gridfile>  (322) 
pfpi4k_grid

>  <i_i_glide_lignum>  (322) 
17

>  <i_i_glide_rotatable_bonds>  (322) 
7

>  <r_i_docking_score>  (322) 
-2.59723

>  <r_i_glide_ligand_efficiency>  (322) 
-0.0811634

>  <r_i_glide_ligand_efficiency_sa>  (322) 
-0.257678

>  <r_i_glide_ligand_efficiency_ln>  (322) 
-0.581591

>  <r_i_glide_gscore>  (322) 
-2.59723

>  <r_i_glide_lipo>  (322) 
-0.234033

>  <r_i_glide_hbond>  (322) 
-0.218643

>  <r_i_glide_metal>  (322) 
-0

>  <r_i_glide_rewards>  (322) 
-0.350514

>  <r_i_glide_evdw>  (322) 
-23.1969

>  <r_i_glide_ecoul>  (322) 
-5.55537

>  <r_i_glide_erotb>  (322) 
0.199111

>  <r_i_glide_esite>  (322) 
0

>  <r_i_glide_emodel>  (322) 
-32.407

>  <r_i_glide_energy>  (322) 
-28.7523

>  <r_i_glide_einternal>  (322) 
2.53511

>  <r_i_glide_intrahb_reward>  (322) 
-0

>  <i_i_glide_confnum>  (322) 
3

>  <i_i_glide_posenum>  (322) 
1

>  <r_i_glide_eff_state_penalty>  (322) 
0

>  <ligand_id>  (322) 
102

>  <original_smiles>  (322) 
CC(CO)C1CC(O)C2C1CC(=O)C1C2(C)CC(O)C2C3(C)CCC(O)CC3=CCC21O

>  <smiles>  (322) 
[H]OC([H])([H])C([H])(C([H])([H])[H])C1([H])C([H])([H])C([H])(O[H])C2([H])C1([H])C([H])([H])C(=O)C1([H])C3(O[H])C([H])([H])C([H])=C4C([H])([H])C([H])(O[H])C([H])([H])C([H])([H])C4(C([H])([H])[H])C3([H])C([H])(O[H])C([H])([H])C12C([H])([H])[H]

$$$$
104:0:0
     RDKit          3D

 38 41  0  0  1  0  0  0  0  0999 V2000
   -1.8144   -7.9415    3.8639 C   0  0  0  0  0  0  0  0  0  0  0  0
   -0.7044   -7.6294    3.0181 O   0  0  0  0  0  0  0  0  0  0  0  0
    0.3154   -8.5642    2.9693 C   0  0  0  0  0  0  0  0  0  0  0  0
    0.3066   -9.7379    3.7640 C   0  0  0  0  0  0  0  0  0  0  0  0
    1.3392  -10.6746    3.6873 C   0  0  0  0  0  0  0  0  0  0  0  0
    2.4081  -10.4565    2.8118 C   0  0  0  0  0  0  0  0  0  0  0  0
    2.4796   -9.2738    2.0336 C   0  0  0  0  0  0  0  0  0  0  0  0
    3.5434   -9.0149    1.1929 O   0  0  0  0  0  0  0  0  0  0  0  0
    4.8040   -8.9007    1.7447 C   0  0  0  0  0  0  0  0  0  0  0  0
    5.2873   -9.9413    2.4752 N   0  0  0  0  0  0  0  0  0  0  0  0
    6.4987   -9.7902    3.0665 C   0  0  0  0  0  0  0  0  0  0  0  0
    7.3298   -8.7175    2.9977 N   0  0  0  0  0  0  0  0  0  0  0  0
    6.8142   -7.7555    2.2427 N   0  0  0  0  0  0  0  0  0  0  0  0
    7.4060   -6.5470    1.9499 C   0  0  0  0  0  0  0  0  0  0  0  0
    6.5449   -5.8160    1.1398 C   0  0  0  0  0  0  0  0  0  0  0  0
    6.8479   -4.4704    0.6103 C   0  0  0  0  0  0  0  0  0  0  0  0
    5.8267   -3.6402    0.0960 C   0  0  0  0  0  0  0  0  0  0  0  0
    6.1565   -2.3606   -0.3821 C   0  0  0  0  0  0  0  0  0  0  0  0
    7.4103   -1.8663   -0.3816 N   0  0  0  0  0  0  0  0  0  0  0  0
    8.3918   -2.6626    0.0821 C   0  0  0  0  0  0  0  0  0  0  0  0
    8.1670   -3.9570    0.5912 C   0  0  0  0  0  0  0  0  0  0  0  0
    5.3298   -6.5570    0.8846 C   0  0  0  0  0  0  0  0  0  0  0  0
    5.6054   -7.7413    1.6002 C   0  0  0  0  0  0  0  0  0  0  0  0
    1.4172   -8.3418    2.1041 C   0  0  0  0  0  0  0  0  0  0  0  0
   -2.5689   -7.1545    3.8653 H   0  0  0  0  0  0  0  0  0  0  0  0
   -1.4981   -8.0733    4.8989 H   0  0  0  0  0  0  0  0  0  0  0  0
   -2.2983   -8.8645    3.5390 H   0  0  0  0  0  0  0  0  0  0  0  0
   -0.4833   -9.9662    4.4566 H   0  0  0  0  0  0  0  0  0  0  0  0
    1.3040  -11.5553    4.3080 H   0  0  0  0  0  0  0  0  0  0  0  0
    3.1693  -11.2186    2.7564 H   0  0  0  0  0  0  0  0  0  0  0  0
    6.8108  -10.6290    3.6725 H   0  0  0  0  0  0  0  0  0  0  0  0
    8.3889   -6.3583    2.3593 H   0  0  0  0  0  0  0  0  0  0  0  0
    4.7972   -3.9660    0.0747 H   0  0  0  0  0  0  0  0  0  0  0  0
    5.3945   -1.7112   -0.7756 H   0  0  0  0  0  0  0  0  0  0  0  0
    9.3833   -2.2479    0.0628 H   0  0  0  0  0  0  0  0  0  0  0  0
    8.9956   -4.5337    0.9704 H   0  0  0  0  0  0  0  0  0  0  0  0
    4.4344   -6.3791    0.3086 H   0  0  0  0  0  0  0  0  0  0  0  0
    1.4554   -7.4543    1.4839 H   0  0  0  0  0  0  0  0  0  0  0  0
  1  2  1  0
  1 25  1  0
  1 26  1  0
  1 27  1  0
  2  3  1  0
  3 24  2  0
  3  4  1  0
  4  5  2  0
  4 28  1  0
  5  6  1  0
  5 29  1  0
  6  7  2  0
  6 30  1  0
  7  8  1  0
  7 24  1  0
  8  9  1  0
  9 23  1  0
  9 10  2  0
 10 11  1  0
 11 12  2  0
 11 31  1  0
 12 13  1  0
 13 23  1  0
 13 14  1  0
 14 15  2  0
 14 32  1  0
 15 16  1  0
 15 22  1  0
 16 21  1  0
 16 17  2  0
 17 18  1  0
 17 33  1  0
 18 19  2  0
 18 34  1  0
 19 20  1  0
 20 21  2  0
 20 35  1  0
 21 36  1  0
 22 23  2  0
 22 37  1  0
 24 38  1  0
M  END
>  <i_m_ct_stereo_status>  (323) 
1

>  <s_m_source_file>  (323) 
/var/tmp/pbs.5076255.sched01/tmpr9sv22dd/120oksnzf6p.sdf

>  <i_m_source_file_index>  (323) 
19

>  <i_lp_mmshare_version>  (323) 
48012

>  <i_f3d_flags>  (323) 
0

>  <s_epik_input>  (323) 
W0NIM11PYzFbY0hdW2NIXVtjSF1jKFtjSF0xKU9jKG5bY0hdbjIpYyhuMjMpW2NIXWMoW2NIXTMpLWM0W2NIXVtjSF1uW2NIXVtjSF00

>  <s_epik_cmdline>  (323) 
J2VwaWtfcHl0aG9uJywgJy1waHQnLCAnMi4wJywgJy1waCcsICc3LjAnLCAnLXRuJywgJzgnLCAnLW1hJywgJzIwMCcsICctaW1hZScsICc8aW5maWxlLm1hZT4nLCAnLW9tYWUnLCAnPG91dGZpbGUubWFlPic=

>  <r_lp_tautomer_probability>  (323) 
1

>  <r_epik_Ionization_Penalty>  (323) 
0.00472308

>  <r_epik_Ionization_Penalty_Charging>  (323) 
0

>  <r_epik_Ionization_Penalty_Neutral>  (323) 
0.00472308

>  <r_epik_State_Penalty>  (323) 
0.00340952

>  <r_epik_Charging_Adjusted_Penalty>  (323) 
0.00340952

>  <i_epik_Tot_Q>  (323) 
0

>  <i_epik_Tot_abs_Q>  (323) 
0

>  <s_lp_Force_Field>  (323) 
OPLS3e

>  <r_lp_Energy>  (323) 
47.5647

>  <b_lp_Chiralities_Consistent>  (323) 
1

>  <s_lp_Variant>  (323) 
104:0-1

>  <s_i_glide_gridfile>  (323) 
pfpi4k_grid

>  <i_i_glide_lignum>  (323) 
19

>  <i_i_glide_rotatable_bonds>  (323) 
4

>  <r_i_docking_score>  (323) 
-3.71751

>  <r_i_glide_ligand_efficiency>  (323) 
-0.154896

>  <r_i_glide_ligand_efficiency_sa>  (323) 
-0.446798

>  <r_i_glide_ligand_efficiency_ln>  (323) 
-0.889771

>  <r_i_glide_gscore>  (323) 
-3.71751

>  <r_i_glide_lipo>  (323) 
-0.796704

>  <r_i_glide_hbond>  (323) 
-0.153966

>  <r_i_glide_metal>  (323) 
-0

>  <r_i_glide_rewards>  (323) 
-1.31229

>  <r_i_glide_evdw>  (323) 
-29.2585

>  <r_i_glide_ecoul>  (323) 
-3.62202

>  <r_i_glide_erotb>  (323) 
0.551941

>  <r_i_glide_esite>  (323) 
-0.000268433

>  <r_i_glide_emodel>  (323) 
-39.4569

>  <r_i_glide_energy>  (323) 
-32.8805

>  <r_i_glide_einternal>  (323) 
4.43953

>  <r_i_glide_intrahb_reward>  (323) 
-0

>  <i_i_glide_confnum>  (323) 
3

>  <i_i_glide_posenum>  (323) 
20

>  <r_i_glide_eff_state_penalty>  (323) 
0

>  <ligand_id>  (323) 
104

>  <original_smiles>  (323) 
COc1cccc(Oc2ncnn3cc(-c4ccncc4)cc23)c1

>  <smiles>  (323) 
[H]c1nc(Oc2c([H])c([H])c([H])c(OC([H])([H])[H])c2[H])c2c([H])c(-c3c([H])c([H])nc([H])c3[H])c([H])n2n1

$$$$
104:0:1
     RDKit          3D

 38 41  0  0  1  0  0  0  0  0999 V2000
    2.4732   -2.9156   -3.7720 C   0  0  0  0  0  0  0  0  0  0  0  0
    3.8782   -3.1164   -3.6889 O   0  0  0  0  0  0  0  0  0  0  0  0
    4.5388   -2.6558   -2.5702 C   0  0  0  0  0  0  0  0  0  0  0  0
    5.8810   -3.0566   -2.4130 C   0  0  0  0  0  0  0  0  0  0  0  0
    6.6352   -2.6455   -1.2971 C   0  0  0  0  0  0  0  0  0  0  0  0
    6.0520   -1.8038   -0.3277 C   0  0  0  0  0  0  0  0  0  0  0  0
    4.7112   -1.3810   -0.4726 C   0  0  0  0  0  0  0  0  0  0  0  0
    4.1230   -0.5751    0.4796 O   0  0  0  0  0  0  0  0  0  0  0  0
    3.2777   -1.1586    1.4033 C   0  0  0  0  0  0  0  0  0  0  0  0
    3.4230   -2.4916    1.6429 N   0  0  0  0  0  0  0  0  0  0  0  0
    2.5726   -3.0681    2.5335 C   0  0  0  0  0  0  0  0  0  0  0  0
    1.5709   -2.4763    3.2384 N   0  0  0  0  0  0  0  0  0  0  0  0
    1.4919   -1.1756    2.9671 N   0  0  0  0  0  0  0  0  0  0  0  0
    0.5920   -0.2801    3.5110 C   0  0  0  0  0  0  0  0  0  0  0  0
    0.8395    0.9756    2.9797 C   0  0  0  0  0  0  0  0  0  0  0  0
    0.0708    2.1827    3.3365 C   0  0  0  0  0  0  0  0  0  0  0  0
   -1.3415    2.1848    3.3534 C   0  0  0  0  0  0  0  0  0  0  0  0
   -2.0257    3.3729    3.6854 C   0  0  0  0  0  0  0  0  0  0  0  0
   -1.4084    4.5260    4.0140 N   0  0  0  0  0  0  0  0  0  0  0  0
   -0.0581    4.5245    3.9981 C   0  0  0  0  0  0  0  0  0  0  0  0
    0.7178    3.3907    3.6798 C   0  0  0  0  0  0  0  0  0  0  0  0
    1.9368    0.9335    2.0466 C   0  0  0  0  0  0  0  0  0  0  0  0
    2.2690   -0.4414    2.1046 C   0  0  0  0  0  0  0  0  0  0  0  0
    3.9599   -1.8130   -1.5869 C   0  0  0  0  0  0  0  0  0  0  0  0
    2.1058   -3.3411   -4.7066 H   0  0  0  0  0  0  0  0  0  0  0  0
    2.2155   -1.8564   -3.7702 H   0  0  0  0  0  0  0  0  0  0  0  0
    1.9476   -3.4168   -2.9578 H   0  0  0  0  0  0  0  0  0  0  0  0
    6.3314   -3.7021   -3.1517 H   0  0  0  0  0  0  0  0  0  0  0  0
    7.6563   -2.9830   -1.1930 H   0  0  0  0  0  0  0  0  0  0  0  0
    6.6263   -1.5004    0.5324 H   0  0  0  0  0  0  0  0  0  0  0  0
    2.7194   -4.1296    2.6793 H   0  0  0  0  0  0  0  0  0  0  0  0
   -0.1225   -0.6521    4.2275 H   0  0  0  0  0  0  0  0  0  0  0  0
   -1.9032    1.3056    3.0826 H   0  0  0  0  0  0  0  0  0  0  0  0
   -3.1036    3.4005    3.6856 H   0  0  0  0  0  0  0  0  0  0  0  0
    0.4136    5.4594    4.2576 H   0  0  0  0  0  0  0  0  0  0  0  0
    1.7941    3.4615    3.6819 H   0  0  0  0  0  0  0  0  0  0  0  0
    2.4302    1.6658    1.4230 H   0  0  0  0  0  0  0  0  0  0  0  0
    2.9335   -1.4918   -1.6537 H   0  0  0  0  0  0  0  0  0  0  0  0
  1  2  1  0
  1 25  1  0
  1 26  1  0
  1 27  1  0
  2  3  1  0
  3 24  2  0
  3  4  1  0
  4  5  2  0
  4 28  1  0
  5  6  1  0
  5 29  1  0
  6  7  2  0
  6 30  1  0
  7  8  1  0
  7 24  1  0
  8  9  1  0
  9 23  1  0
  9 10  2  0
 10 11  1  0
 11 12  2  0
 11 31  1  0
 12 13  1  0
 13 23  1  0
 13 14  1  0
 14 15  2  0
 14 32  1  0
 15 16  1  0
 15 22  1  0
 16 21  1  0
 16 17  2  0
 17 18  1  0
 17 33  1  0
 18 19  2  0
 18 34  1  0
 19 20  1  0
 20 21  2  0
 20 35  1  0
 21 36  1  0
 22 23  2  0
 22 37  1  0
 24 38  1  0
M  END
>  <i_m_ct_stereo_status>  (324) 
1

>  <s_m_source_file>  (324) 
/var/tmp/pbs.5076255.sched01/tmpr9sv22dd/120oksnzf6p.sdf

>  <i_m_source_file_index>  (324) 
19

>  <i_lp_mmshare_version>  (324) 
48012

>  <i_f3d_flags>  (324) 
0

>  <s_epik_input>  (324) 
W0NIM11PYzFbY0hdW2NIXVtjSF1jKFtjSF0xKU9jKG5bY0hdbjIpYyhuMjMpW2NIXWMoW2NIXTMpLWM0W2NIXVtjSF1uW2NIXVtjSF00

>  <s_epik_cmdline>  (324) 
J2VwaWtfcHl0aG9uJywgJy1waHQnLCAnMi4wJywgJy1waCcsICc3LjAnLCAnLXRuJywgJzgnLCAnLW1hJywgJzIwMCcsICctaW1hZScsICc8aW5maWxlLm1hZT4nLCAnLW9tYWUnLCAnPG91dGZpbGUubWFlPic=

>  <r_lp_tautomer_probability>  (324) 
1

>  <r_epik_Ionization_Penalty>  (324) 
0.00472308

>  <r_epik_Ionization_Penalty_Charging>  (324) 
0

>  <r_epik_Ionization_Penalty_Neutral>  (324) 
0.00472308

>  <r_epik_State_Penalty>  (324) 
0.00340952

>  <r_epik_Charging_Adjusted_Penalty>  (324) 
0.00340952

>  <i_epik_Tot_Q>  (324) 
0

>  <i_epik_Tot_abs_Q>  (324) 
0

>  <s_lp_Force_Field>  (324) 
OPLS3e

>  <r_lp_Energy>  (324) 
47.5647

>  <b_lp_Chiralities_Consistent>  (324) 
1

>  <s_lp_Variant>  (324) 
104:0-1

>  <s_i_glide_gridfile>  (324) 
pfpi4k_grid

>  <i_i_glide_lignum>  (324) 
19

>  <i_i_glide_rotatable_bonds>  (324) 
4

>  <r_i_docking_score>  (324) 
-3.64171

>  <r_i_glide_ligand_efficiency>  (324) 
-0.151738

>  <r_i_glide_ligand_efficiency_sa>  (324) 
-0.437688

>  <r_i_glide_ligand_efficiency_ln>  (324) 
-0.871629

>  <r_i_glide_gscore>  (324) 
-3.64171

>  <r_i_glide_lipo>  (324) 
-0.48389

>  <r_i_glide_hbond>  (324) 
-0.121362

>  <r_i_glide_metal>  (324) 
-0

>  <r_i_glide_rewards>  (324) 
-1.23866

>  <r_i_glide_evdw>  (324) 
-33.3156

>  <r_i_glide_ecoul>  (324) 
-4.42011

>  <r_i_glide_erotb>  (324) 
0.551941

>  <r_i_glide_esite>  (324) 
-0.0209446

>  <r_i_glide_emodel>  (324) 
-45.2786

>  <r_i_glide_energy>  (324) 
-37.7357

>  <r_i_glide_einternal>  (324) 
2.55593

>  <r_i_glide_intrahb_reward>  (324) 
-0

>  <i_i_glide_confnum>  (324) 
3

>  <i_i_glide_posenum>  (324) 
22

>  <r_i_glide_eff_state_penalty>  (324) 
0

>  <ligand_id>  (324) 
104

>  <original_smiles>  (324) 
COc1cccc(Oc2ncnn3cc(-c4ccncc4)cc23)c1

>  <smiles>  (324) 
[H]c1nc(Oc2c([H])c([H])c([H])c(OC([H])([H])[H])c2[H])c2c([H])c(-c3c([H])c([H])nc([H])c3[H])c([H])n2n1

$$$$
104:0:2
     RDKit          3D

 38 41  0  0  1  0  0  0  0  0999 V2000
    4.7821   -3.8199   -3.9446 C   0  0  0  0  0  0  0  0  0  0  0  0
    4.3656   -2.6111   -3.3177 O   0  0  0  0  0  0  0  0  0  0  0  0
    5.0335   -2.2594   -2.1626 C   0  0  0  0  0  0  0  0  0  0  0  0
    6.3634   -2.6599   -1.8471 C   0  0  0  0  0  0  0  0  0  0  0  0
    6.9612   -2.2860   -0.6299 C   0  0  0  0  0  0  0  0  0  0  0  0
    6.2522   -1.4850    0.2848 C   0  0  0  0  0  0  0  0  0  0  0  0
    4.9336   -1.0520   -0.0167 C   0  0  0  0  0  0  0  0  0  0  0  0
    4.2123   -0.2917    0.8955 O   0  0  0  0  0  0  0  0  0  0  0  0
    3.3242   -0.9230    1.7409 C   0  0  0  0  0  0  0  0  0  0  0  0
    3.4864   -2.2557    1.9613 N   0  0  0  0  0  0  0  0  0  0  0  0
    2.5786   -2.8926    2.7479 C   0  0  0  0  0  0  0  0  0  0  0  0
    1.4881   -2.3715    3.3797 N   0  0  0  0  0  0  0  0  0  0  0  0
    1.4023   -1.0571    3.1398 N   0  0  0  0  0  0  0  0  0  0  0  0
    0.4345   -0.2038    3.6235 C   0  0  0  0  0  0  0  0  0  0  0  0
    0.7069    1.0638    3.1459 C   0  0  0  0  0  0  0  0  0  0  0  0
   -0.1241    2.2350    3.4715 C   0  0  0  0  0  0  0  0  0  0  0  0
   -1.5306    2.1409    3.5912 C   0  0  0  0  0  0  0  0  0  0  0  0
   -2.2814    3.3050    3.8729 C   0  0  0  0  0  0  0  0  0  0  0  0
   -1.7345    4.5144    4.0609 N   0  0  0  0  0  0  0  0  0  0  0  0
   -0.3876    4.6035    3.9576 C   0  0  0  0  0  0  0  0  0  0  0  0
    0.4497    3.5079    3.6823 C   0  0  0  0  0  0  0  0  0  0  0  0
    1.8968    1.0948    2.3036 C   0  0  0  0  0  0  0  0  0  0  0  0
    2.2318   -0.2716    2.3755 C   0  0  0  0  0  0  0  0  0  0  0  0
    4.3385   -1.4364   -1.2459 C   0  0  0  0  0  0  0  0  0  0  0  0
    4.2340   -4.0044   -4.8661 H   0  0  0  0  0  0  0  0  0  0  0  0
    4.6149   -4.6586   -3.2707 H   0  0  0  0  0  0  0  0  0  0  0  0
    5.8256   -3.8586   -4.2542 H   0  0  0  0  0  0  0  0  0  0  0  0
    6.9883   -3.2475   -2.5097 H   0  0  0  0  0  0  0  0  0  0  0  0
    7.9643   -2.6332   -0.4283 H   0  0  0  0  0  0  0  0  0  0  0  0
    6.7177   -1.2225    1.2234 H   0  0  0  0  0  0  0  0  0  0  0  0
    2.7482   -3.9533    2.8746 H   0  0  0  0  0  0  0  0  0  0  0  0
   -0.3240   -0.6212    4.2576 H   0  0  0  0  0  0  0  0  0  0  0  0
   -2.0485    1.2083    3.4287 H   0  0  0  0  0  0  0  0  0  0  0  0
   -3.3526    3.2635    3.9528 H   0  0  0  0  0  0  0  0  0  0  0  0
    0.0193    5.5930    4.1178 H   0  0  0  0  0  0  0  0  0  0  0  0
    1.5141    3.6622    3.5931 H   0  0  0  0  0  0  0  0  0  0  0  0
    2.4497    1.8384    1.7366 H   0  0  0  0  0  0  0  0  0  0  0  0
    3.3199   -1.1264   -1.4569 H   0  0  0  0  0  0  0  0  0  0  0  0
  1  2  1  0
  1 25  1  0
  1 26  1  0
  1 27  1  0
  2  3  1  0
  3 24  2  0
  3  4  1  0
  4  5  2  0
  4 28  1  0
  5  6  1  0
  5 29  1  0
  6  7  2  0
  6 30  1  0
  7  8  1  0
  7 24  1  0
  8  9  1  0
  9 23  1  0
  9 10  2  0
 10 11  1  0
 11 12  2  0
 11 31  1  0
 12 13  1  0
 13 23  1  0
 13 14  1  0
 14 15  2  0
 14 32  1  0
 15 16  1  0
 15 22  1  0
 16 21  1  0
 16 17  2  0
 17 18  1  0
 17 33  1  0
 18 19  2  0
 18 34  1  0
 19 20  1  0
 20 21  2  0
 20 35  1  0
 21 36  1  0
 22 23  2  0
 22 37  1  0
 24 38  1  0
M  END
>  <i_m_ct_stereo_status>  (325) 
1

>  <s_m_source_file>  (325) 
/var/tmp/pbs.5076255.sched01/tmpr9sv22dd/120oksnzf6p.sdf

>  <i_m_source_file_index>  (325) 
19

>  <i_lp_mmshare_version>  (325) 
48012

>  <i_f3d_flags>  (325) 
0

>  <s_epik_input>  (325) 
W0NIM11PYzFbY0hdW2NIXVtjSF1jKFtjSF0xKU9jKG5bY0hdbjIpYyhuMjMpW2NIXWMoW2NIXTMpLWM0W2NIXVtjSF1uW2NIXVtjSF00

>  <s_epik_cmdline>  (325) 
J2VwaWtfcHl0aG9uJywgJy1waHQnLCAnMi4wJywgJy1waCcsICc3LjAnLCAnLXRuJywgJzgnLCAnLW1hJywgJzIwMCcsICctaW1hZScsICc8aW5maWxlLm1hZT4nLCAnLW9tYWUnLCAnPG91dGZpbGUubWFlPic=

>  <r_lp_tautomer_probability>  (325) 
1

>  <r_epik_Ionization_Penalty>  (325) 
0.00472308

>  <r_epik_Ionization_Penalty_Charging>  (325) 
0

>  <r_epik_Ionization_Penalty_Neutral>  (325) 
0.00472308

>  <r_epik_State_Penalty>  (325) 
0.00340952

>  <r_epik_Charging_Adjusted_Penalty>  (325) 
0.00340952

>  <i_epik_Tot_Q>  (325) 
0

>  <i_epik_Tot_abs_Q>  (325) 
0

>  <s_lp_Force_Field>  (325) 
OPLS3e

>  <r_lp_Energy>  (325) 
47.5647

>  <b_lp_Chiralities_Consistent>  (325) 
1

>  <s_lp_Variant>  (325) 
104:0-1

>  <s_i_glide_gridfile>  (325) 
pfpi4k_grid

>  <i_i_glide_lignum>  (325) 
19

>  <i_i_glide_rotatable_bonds>  (325) 
4

>  <r_i_docking_score>  (325) 
-3.12284

>  <r_i_glide_ligand_efficiency>  (325) 
-0.130118

>  <r_i_glide_ligand_efficiency_sa>  (325) 
-0.375326

>  <r_i_glide_ligand_efficiency_ln>  (325) 
-0.747438

>  <r_i_glide_gscore>  (325) 
-3.12284

>  <r_i_glide_lipo>  (325) 
-0.0804846

>  <r_i_glide_hbond>  (325) 
-0.136244

>  <r_i_glide_metal>  (325) 
-0

>  <r_i_glide_rewards>  (325) 
-1.23866

>  <r_i_glide_evdw>  (325) 
-30.837

>  <r_i_glide_ecoul>  (325) 
-4.40535

>  <r_i_glide_erotb>  (325) 
0.551941

>  <r_i_glide_esite>  (325) 
-0.0167319

>  <r_i_glide_emodel>  (325) 
-39.73

>  <r_i_glide_energy>  (325) 
-35.2423

>  <r_i_glide_einternal>  (325) 
5.72574

>  <r_i_glide_intrahb_reward>  (325) 
-0

>  <i_i_glide_confnum>  (325) 
3

>  <i_i_glide_posenum>  (325) 
1

>  <r_i_glide_eff_state_penalty>  (325) 
0

>  <ligand_id>  (325) 
104

>  <original_smiles>  (325) 
COc1cccc(Oc2ncnn3cc(-c4ccncc4)cc23)c1

>  <smiles>  (325) 
[H]c1nc(Oc2c([H])c([H])c([H])c(OC([H])([H])[H])c2[H])c2c([H])c(-c3c([H])c([H])nc([H])c3[H])c([H])n2n1

$$$$
105:0:0
     RDKit          3D

 37 40  0  0  1  0  0  0  0  0999 V2000
   -0.8117   -7.8932    1.9144 C   0  0  0  0  0  0  0  0  0  0  0  0
    0.5009   -7.3463    1.7018 N   0  0  0  0  0  0  0  0  0  0  0  0
    1.7274   -7.7471    2.1861 C   0  0  0  0  0  0  0  0  0  0  0  0
    2.6618   -6.8833    1.6897 C   0  0  0  0  0  0  0  0  0  0  0  0
    4.1664   -6.8978    1.9286 C   0  0  0  0  0  0  0  0  0  0  0  0
    4.8771   -5.7470    1.3775 N   0  0  0  0  0  0  0  0  0  0  0  0
    4.4848   -4.4781    2.0061 C   0  0  0  0  0  0  0  0  0  0  0  0
    4.6617   -3.4095    0.9219 C   0  0  2  0  0  0  0  0  0  0  0  0
    3.3754   -2.7855    0.6765 O   0  0  0  0  0  0  0  0  0  0  0  0
    3.4204   -1.8569   -0.4229 N   0  0  0  0  0  0  0  0  0  0  0  0
    3.9391   -2.4603   -1.5489 C   0  0  0  0  0  0  0  0  0  0  0  0
    4.7804   -3.5219   -1.5584 C   0  0  0  0  0  0  0  0  0  0  0  0
    5.1033   -3.8141   -2.8776 N   0  0  0  0  0  0  0  0  0  0  0  0
    4.4813   -2.9703   -3.6537 N   0  0  0  0  0  0  0  0  0  0  0  0
    3.7865   -2.1025   -2.8724 N   0  0  0  0  0  0  0  0  0  0  0  0
    3.0426   -1.0148   -3.4811 C   0  0  0  0  0  0  0  0  0  0  0  0
    5.2608   -4.1699   -0.2921 C   0  0  2  0  0  0  0  0  0  0  0  0
    4.8253   -5.6250   -0.0860 C   0  0  0  0  0  0  0  0  0  0  0  0
    1.8746   -5.9715    0.9184 C   0  0  0  0  0  0  0  0  0  0  0  0
    0.5924   -6.2582    0.9225 N   0  0  0  0  0  0  0  0  0  0  0  0
   -0.7655   -8.6557    2.6918 H   0  0  0  0  0  0  0  0  0  0  0  0
   -1.1586   -8.3098    0.9681 H   0  0  0  0  0  0  0  0  0  0  0  0
   -1.4777   -7.0796    2.2084 H   0  0  0  0  0  0  0  0  0  0  0  0
    1.8194   -8.5901    2.8580 H   0  0  0  0  0  0  0  0  0  0  0  0
    4.3964   -6.9548    2.9957 H   0  0  0  0  0  0  0  0  0  0  0  0
    4.6356   -7.7931    1.5192 H   0  0  0  0  0  0  0  0  0  0  0  0
    3.4492   -4.4871    2.3411 H   0  0  0  0  0  0  0  0  0  0  0  0
    5.0792   -4.2673    2.9006 H   0  0  0  0  0  0  0  0  0  0  0  0
    5.3442   -2.6234    1.2597 H   0  0  0  0  0  0  0  0  0  0  0  0
    2.5118   -1.3931   -0.4821 H   0  0  0  0  0  0  0  0  0  0  0  0
    2.6633   -0.3391   -2.7174 H   0  0  0  0  0  0  0  0  0  0  0  0
    2.2142   -1.4272   -4.0582 H   0  0  0  0  0  0  0  0  0  0  0  0
    3.7003   -0.4611   -4.1503 H   0  0  0  0  0  0  0  0  0  0  0  0
    6.3489   -4.1037   -0.2399 H   0  0  0  0  0  0  0  0  0  0  0  0
    5.5244   -6.3128   -0.5636 H   0  0  0  0  0  0  0  0  0  0  0  0
    3.8262   -5.7551   -0.4900 H   0  0  0  0  0  0  0  0  0  0  0  0
    2.1978   -5.0960    0.3651 H   0  0  0  0  0  0  0  0  0  0  0  0
  1  2  1  0
  1 21  1  0
  1 22  1  0
  1 23  1  0
  2 20  1  0
  2  3  1  0
  3  4  2  0
  3 24  1  0
  4  5  1  0
  4 19  1  0
  5  6  1  0
  5 25  1  0
  5 26  1  0
  6 18  1  0
  6  7  1  0
  7  8  1  0
  7 27  1  0
  7 28  1  0
  8 17  1  0
  8  9  1  0
  8 29  1  1
  9 10  1  0
 10 11  1  0
 10 30  1  0
 11 15  1  0
 11 12  2  0
 12 13  1  0
 12 17  1  0
 13 14  2  0
 14 15  1  0
 15 16  1  0
 16 31  1  0
 16 32  1  0
 16 33  1  0
 17 18  1  0
 17 34  1  1
 18 35  1  0
 18 36  1  0
 19 20  2  0
 19 37  1  0
M  END
>  <i_m_ct_stereo_status>  (326) 
1

>  <s_m_source_file>  (326) 
/var/tmp/pbs.5076255.sched01/tmpr9sv22dd/120oksnzf6p.sdf

>  <i_m_source_file_index>  (326) 
20

>  <i_lp_mmshare_version>  (326) 
48012

>  <i_f3d_flags>  (326) 
0

>  <s_epik_input>  (326) 
W0NIM11uMVtjSF1jKFtjSF1uMSlbQ0gyXU4oW0NIMl0yKVtDSDJdW0NASF0oW0NASF0yMyljNGMoW05IXU8zKW4obm40KVtDSDNd

>  <s_epik_cmdline>  (326) 
J2VwaWtfcHl0aG9uJywgJy1waHQnLCAnMi4wJywgJy1waCcsICc3LjAnLCAnLXRuJywgJzgnLCAnLW1hJywgJzIwMCcsICctaW1hZScsICc8aW5maWxlLm1hZT4nLCAnLW9tYWUnLCAnPG91dGZpbGUubWFlPic=

>  <r_lp_tautomer_probability>  (326) 
1

>  <r_epik_Ionization_Penalty>  (326) 
0.344627

>  <r_epik_Ionization_Penalty_Charging>  (326) 
0

>  <r_epik_Ionization_Penalty_Neutral>  (326) 
0.344627

>  <r_epik_State_Penalty>  (326) 
0.271379

>  <r_epik_Charging_Adjusted_Penalty>  (326) 
0.271379

>  <i_epik_Tot_Q>  (326) 
0

>  <i_epik_Tot_abs_Q>  (326) 
0

>  <s_epik_Chemistry_Notes>  (326) 
This compound has a N-S or N-O group and may undergo hydrolysis at high or low pH.

>  <s_lp_Force_Field>  (326) 
OPLS3e

>  <r_lp_Energy>  (326) 
24.155

>  <b_lp_Chiralities_Consistent>  (326) 
1

>  <s_lp_Variant>  (326) 
105:0-1

>  <s_i_glide_gridfile>  (326) 
pfpi4k_grid

>  <i_i_glide_lignum>  (326) 
20

>  <i_i_glide_rotatable_bonds>  (326) 
2

>  <r_i_docking_score>  (326) 
-4.23224

>  <r_i_glide_ligand_efficiency>  (326) 
-0.211612

>  <r_i_glide_ligand_efficiency_sa>  (326) 
-0.574404

>  <r_i_glide_ligand_efficiency_ln>  (326) 
-1.05919

>  <r_i_glide_gscore>  (326) 
-4.23224

>  <r_i_glide_lipo>  (326) 
-0.314059

>  <r_i_glide_hbond>  (326) 
-0.32

>  <r_i_glide_metal>  (326) 
-0

>  <r_i_glide_rewards>  (326) 
-1.59265

>  <r_i_glide_evdw>  (326) 
-24.8912

>  <r_i_glide_ecoul>  (326) 
-7.19415

>  <r_i_glide_erotb>  (326) 
0.474225

>  <r_i_glide_esite>  (326) 
-0.156075

>  <r_i_glide_emodel>  (326) 
-39.0957

>  <r_i_glide_energy>  (326) 
-32.0853

>  <r_i_glide_einternal>  (326) 
3.93156

>  <r_i_glide_intrahb_reward>  (326) 
-0

>  <i_i_glide_confnum>  (326) 
3

>  <i_i_glide_posenum>  (326) 
32

>  <r_i_glide_eff_state_penalty>  (326) 
0

>  <ligand_id>  (326) 
105

>  <original_smiles>  (326) 
Cn1cc(CN2CC3ONc4c(nnn4C)C3C2)cn1

>  <smiles>  (326) 
[H]c1nn(C([H])([H])[H])c([H])c1C([H])([H])N1C([H])([H])C2([H])ON([H])c3c(nnn3C([H])([H])[H])C2([H])C1([H])[H]

$$$$
105:0:1
     RDKit          3D

 37 40  0  0  1  0  0  0  0  0999 V2000
    1.1054   -3.4682    3.6797 C   0  0  0  0  0  0  0  0  0  0  0  0
    2.4555   -3.6378    3.2040 N   0  0  0  0  0  0  0  0  0  0  0  0
    3.0784   -4.7389    2.6506 C   0  0  0  0  0  0  0  0  0  0  0  0
    4.3633   -4.3741    2.3498 C   0  0  0  0  0  0  0  0  0  0  0  0
    5.4374   -5.2118    1.6796 C   0  0  0  0  0  0  0  0  0  0  0  0
    5.9219   -4.6712    0.4084 N   0  0  0  0  0  0  0  0  0  0  0  0
    6.6818   -3.4183    0.4933 C   0  0  0  0  0  0  0  0  0  0  0  0
    6.4064   -2.6600   -0.8104 C   0  0  2  0  0  0  0  0  0  0  0  0
    5.7351   -1.4207   -0.4715 O   0  0  0  0  0  0  0  0  0  0  0  0
    5.2183   -0.7047   -1.6168 N   0  0  0  0  0  0  0  0  0  0  0  0
    4.5361   -1.5226   -2.4952 C   0  0  0  0  0  0  0  0  0  0  0  0
    4.6318   -2.8701   -2.5494 C   0  0  0  0  0  0  0  0  0  0  0  0
    3.8137   -3.3260   -3.5763 N   0  0  0  0  0  0  0  0  0  0  0  0
    3.2204   -2.3018   -4.1129 N   0  0  0  0  0  0  0  0  0  0  0  0
    3.6929   -1.1742   -3.5169 N   0  0  0  0  0  0  0  0  0  0  0  0
    3.2702    0.1367   -3.9844 C   0  0  0  0  0  0  0  0  0  0  0  0
    5.5564   -3.6324   -1.6489 C   0  0  2  0  0  0  0  0  0  0  0  0
    4.8701   -4.5146   -0.6002 C   0  0  0  0  0  0  0  0  0  0  0  0
    4.4263   -3.0276    2.8328 C   0  0  0  0  0  0  0  0  0  0  0  0
    3.2795   -2.5848    3.3028 N   0  0  0  0  0  0  0  0  0  0  0  0
    0.5914   -4.4315    3.7073 H   0  0  0  0  0  0  0  0  0  0  0  0
    0.5852   -2.7672    3.0194 H   0  0  0  0  0  0  0  0  0  0  0  0
    1.1492   -3.0395    4.6837 H   0  0  0  0  0  0  0  0  0  0  0  0
    2.5539   -5.6766    2.5127 H   0  0  0  0  0  0  0  0  0  0  0  0
    6.2987   -5.3473    2.3298 H   0  0  0  0  0  0  0  0  0  0  0  0
    5.0783   -6.2293    1.4958 H   0  0  0  0  0  0  0  0  0  0  0  0
    6.3434   -2.7943    1.3046 H   0  0  0  0  0  0  0  0  0  0  0  0
    7.7441   -3.6325    0.6428 H   0  0  0  0  0  0  0  0  0  0  0  0
    7.3318   -2.4190   -1.3366 H   0  0  0  0  0  0  0  0  0  0  0  0
    5.0336    0.2677   -1.3701 H   0  0  0  0  0  0  0  0  0  0  0  0
    3.8603    0.9244   -3.5107 H   0  0  0  0  0  0  0  0  0  0  0  0
    2.2150    0.2657   -3.7464 H   0  0  0  0  0  0  0  0  0  0  0  0
    3.3998    0.1924   -5.0640 H   0  0  0  0  0  0  0  0  0  0  0  0
    6.2106   -4.2483   -2.2607 H   0  0  0  0  0  0  0  0  0  0  0  0
    4.5281   -5.4669   -1.0182 H   0  0  0  0  0  0  0  0  0  0  0  0
    4.0091   -3.9936   -0.1823 H   0  0  0  0  0  0  0  0  0  0  0  0
    5.2505   -2.3317    2.8465 H   0  0  0  0  0  0  0  0  0  0  0  0
  1  2  1  0
  1 21  1  0
  1 22  1  0
  1 23  1  0
  2 20  1  0
  2  3  1  0
  3  4  2  0
  3 24  1  0
  4  5  1  0
  4 19  1  0
  5  6  1  0
  5 25  1  0
  5 26  1  0
  6 18  1  0
  6  7  1  0
  7  8  1  0
  7 27  1  0
  7 28  1  0
  8 17  1  0
  8  9  1  0
  8 29  1  6
  9 10  1  0
 10 11  1  0
 10 30  1  0
 11 15  1  0
 11 12  2  0
 12 13  1  0
 12 17  1  0
 13 14  2  0
 14 15  1  0
 15 16  1  0
 16 31  1  0
 16 32  1  0
 16 33  1  0
 17 18  1  0
 17 34  1  6
 18 35  1  0
 18 36  1  0
 19 20  2  0
 19 37  1  0
M  END
>  <i_m_ct_stereo_status>  (327) 
1

>  <s_m_source_file>  (327) 
/var/tmp/pbs.5076255.sched01/tmpr9sv22dd/120oksnzf6p.sdf

>  <i_m_source_file_index>  (327) 
20

>  <i_lp_mmshare_version>  (327) 
48012

>  <i_f3d_flags>  (327) 
0

>  <s_epik_input>  (327) 
W0NIM11uMVtjSF1jKFtjSF1uMSlbQ0gyXU4oW0NIMl0yKVtDSDJdW0NASF0oW0NASF0yMyljNGMoW05IXU8zKW4obm40KVtDSDNd

>  <s_epik_cmdline>  (327) 
J2VwaWtfcHl0aG9uJywgJy1waHQnLCAnMi4wJywgJy1waCcsICc3LjAnLCAnLXRuJywgJzgnLCAnLW1hJywgJzIwMCcsICctaW1hZScsICc8aW5maWxlLm1hZT4nLCAnLW9tYWUnLCAnPG91dGZpbGUubWFlPic=

>  <r_lp_tautomer_probability>  (327) 
1

>  <r_epik_Ionization_Penalty>  (327) 
0.344627

>  <r_epik_Ionization_Penalty_Charging>  (327) 
0

>  <r_epik_Ionization_Penalty_Neutral>  (327) 
0.344627

>  <r_epik_State_Penalty>  (327) 
0.271379

>  <r_epik_Charging_Adjusted_Penalty>  (327) 
0.271379

>  <i_epik_Tot_Q>  (327) 
0

>  <i_epik_Tot_abs_Q>  (327) 
0

>  <s_epik_Chemistry_Notes>  (327) 
This compound has a N-S or N-O group and may undergo hydrolysis at high or low pH.

>  <s_lp_Force_Field>  (327) 
OPLS3e

>  <r_lp_Energy>  (327) 
24.155

>  <b_lp_Chiralities_Consistent>  (327) 
1

>  <s_lp_Variant>  (327) 
105:0-1

>  <s_i_glide_gridfile>  (327) 
pfpi4k_grid

>  <i_i_glide_lignum>  (327) 
20

>  <i_i_glide_rotatable_bonds>  (327) 
2

>  <r_i_docking_score>  (327) 
-3.87507

>  <r_i_glide_ligand_efficiency>  (327) 
-0.193753

>  <r_i_glide_ligand_efficiency_sa>  (327) 
-0.525927

>  <r_i_glide_ligand_efficiency_ln>  (327) 
-0.969801

>  <r_i_glide_gscore>  (327) 
-3.87507

>  <r_i_glide_lipo>  (327) 
-0.426699

>  <r_i_glide_hbond>  (327) 
-0.32

>  <r_i_glide_metal>  (327) 
-0

>  <r_i_glide_rewards>  (327) 
-1.80806

>  <r_i_glide_evdw>  (327) 
-23.5005

>  <r_i_glide_ecoul>  (327) 
-3.75571

>  <r_i_glide_erotb>  (327) 
0.474225

>  <r_i_glide_esite>  (327) 
-0.0561498

>  <r_i_glide_emodel>  (327) 
-34.2677

>  <r_i_glide_energy>  (327) 
-27.2562

>  <r_i_glide_einternal>  (327) 
2.95528

>  <r_i_glide_intrahb_reward>  (327) 
-0

>  <i_i_glide_confnum>  (327) 
3

>  <i_i_glide_posenum>  (327) 
22

>  <r_i_glide_eff_state_penalty>  (327) 
0

>  <ligand_id>  (327) 
105

>  <original_smiles>  (327) 
Cn1cc(CN2CC3ONc4c(nnn4C)C3C2)cn1

>  <smiles>  (327) 
[H]c1nn(C([H])([H])[H])c([H])c1C([H])([H])N1C([H])([H])C2([H])ON([H])c3c(nnn3C([H])([H])[H])C2([H])C1([H])[H]

$$$$
105:0:2
     RDKit          3D

 37 40  0  0  1  0  0  0  0  0999 V2000
    1.6368   -1.5656    2.5875 C   0  0  0  0  0  0  0  0  0  0  0  0
    2.3277   -2.8306    2.5641 N   0  0  0  0  0  0  0  0  0  0  0  0
    3.4638   -3.1262    1.8669 C   0  0  0  0  0  0  0  0  0  0  0  0
    3.8049   -4.4222    2.1451 C   0  0  0  0  0  0  0  0  0  0  0  0
    4.9728   -5.2383    1.6253 C   0  0  0  0  0  0  0  0  0  0  0  0
    5.6055   -4.6795    0.4281 N   0  0  0  0  0  0  0  0  0  0  0  0
    6.3494   -3.4319    0.6378 C   0  0  0  0  0  0  0  0  0  0  0  0
    6.2239   -2.6488   -0.6834 C   0  0  2  0  0  0  0  0  0  0  0  0
    5.5330   -1.3995   -0.4153 O   0  0  0  0  0  0  0  0  0  0  0  0
    5.1600   -0.6770   -1.5983 N   0  0  0  0  0  0  0  0  0  0  0  0
    4.5634   -1.4751   -2.5482 C   0  0  0  0  0  0  0  0  0  0  0  0
    4.6483   -2.8201   -2.6176 C   0  0  0  0  0  0  0  0  0  0  0  0
    3.9361   -3.2573   -3.7302 N   0  0  0  0  0  0  0  0  0  0  0  0
    3.4240   -2.2133   -4.3104 N   0  0  0  0  0  0  0  0  0  0  0  0
    3.8307   -1.1049   -3.6490 N   0  0  0  0  0  0  0  0  0  0  0  0
    3.4832    0.2199   -4.1365 C   0  0  0  0  0  0  0  0  0  0  0  0
    5.4793   -3.6065   -1.6462 C   0  0  2  0  0  0  0  0  0  0  0  0
    4.6879   -4.5121   -0.7025 C   0  0  0  0  0  0  0  0  0  0  0  0
    2.7693   -4.8366    3.0363 C   0  0  0  0  0  0  0  0  0  0  0  0
    1.8806   -3.8817    3.2845 N   0  0  0  0  0  0  0  0  0  0  0  0
    2.0670   -0.9066    1.8368 H   0  0  0  0  0  0  0  0  0  0  0  0
    1.7381   -1.0901    3.5622 H   0  0  0  0  0  0  0  0  0  0  0  0
    0.5885   -1.7049    2.3432 H   0  0  0  0  0  0  0  0  0  0  0  0
    3.9166   -2.3689    1.2360 H   0  0  0  0  0  0  0  0  0  0  0  0
    5.7555   -5.3405    2.3820 H   0  0  0  0  0  0  0  0  0  0  0  0
    4.6524   -6.2571    1.3892 H   0  0  0  0  0  0  0  0  0  0  0  0
    5.9272   -2.8586    1.4623 H   0  0  0  0  0  0  0  0  0  0  0  0
    7.3904   -3.6530    0.9011 H   0  0  0  0  0  0  0  0  0  0  0  0
    7.2109   -2.4247   -1.0828 H   0  0  0  0  0  0  0  0  0  0  0  0
    4.9831    0.2955   -1.3684 H   0  0  0  0  0  0  0  0  0  0  0  0
    4.0419    0.9865   -3.5887 H   0  0  0  0  0  0  0  0  0  0  0  0
    2.4086    0.3847   -4.0049 H   0  0  0  0  0  0  0  0  0  0  0  0
    3.7307    0.2928   -5.2006 H   0  0  0  0  0  0  0  0  0  0  0  0
    6.1987   -4.2164   -2.1942 H   0  0  0  0  0  0  0  0  0  0  0  0
    4.4151   -5.4801   -1.1243 H   0  0  0  0  0  0  0  0  0  0  0  0
    3.7631   -4.0096   -0.4229 H   0  0  0  0  0  0  0  0  0  0  0  0
    2.6392   -5.8100    3.4843 H   0  0  0  0  0  0  0  0  0  0  0  0
  1  2  1  0
  1 21  1  0
  1 22  1  0
  1 23  1  0
  2 20  1  0
  2  3  1  0
  3  4  2  0
  3 24  1  0
  4  5  1  0
  4 19  1  0
  5  6  1  0
  5 25  1  0
  5 26  1  0
  6 18  1  0
  6  7  1  0
  7  8  1  0
  7 27  1  0
  7 28  1  0
  8 17  1  0
  8  9  1  0
  8 29  1  6
  9 10  1  0
 10 11  1  0
 10 30  1  0
 11 15  1  0
 11 12  2  0
 12 13  1  0
 12 17  1  0
 13 14  2  0
 14 15  1  0
 15 16  1  0
 16 31  1  0
 16 32  1  0
 16 33  1  0
 17 18  1  0
 17 34  1  6
 18 35  1  0
 18 36  1  0
 19 20  2  0
 19 37  1  0
M  END
>  <i_m_ct_stereo_status>  (328) 
1

>  <s_m_source_file>  (328) 
/var/tmp/pbs.5076255.sched01/tmpr9sv22dd/120oksnzf6p.sdf

>  <i_m_source_file_index>  (328) 
20

>  <i_lp_mmshare_version>  (328) 
48012

>  <i_f3d_flags>  (328) 
0

>  <s_epik_input>  (328) 
W0NIM11uMVtjSF1jKFtjSF1uMSlbQ0gyXU4oW0NIMl0yKVtDSDJdW0NASF0oW0NASF0yMyljNGMoW05IXU8zKW4obm40KVtDSDNd

>  <s_epik_cmdline>  (328) 
J2VwaWtfcHl0aG9uJywgJy1waHQnLCAnMi4wJywgJy1waCcsICc3LjAnLCAnLXRuJywgJzgnLCAnLW1hJywgJzIwMCcsICctaW1hZScsICc8aW5maWxlLm1hZT4nLCAnLW9tYWUnLCAnPG91dGZpbGUubWFlPic=

>  <r_lp_tautomer_probability>  (328) 
1

>  <r_epik_Ionization_Penalty>  (328) 
0.344627

>  <r_epik_Ionization_Penalty_Charging>  (328) 
0

>  <r_epik_Ionization_Penalty_Neutral>  (328) 
0.344627

>  <r_epik_State_Penalty>  (328) 
0.271379

>  <r_epik_Charging_Adjusted_Penalty>  (328) 
0.271379

>  <i_epik_Tot_Q>  (328) 
0

>  <i_epik_Tot_abs_Q>  (328) 
0

>  <s_epik_Chemistry_Notes>  (328) 
This compound has a N-S or N-O group and may undergo hydrolysis at high or low pH.

>  <s_lp_Force_Field>  (328) 
OPLS3e

>  <r_lp_Energy>  (328) 
24.155

>  <b_lp_Chiralities_Consistent>  (328) 
1

>  <s_lp_Variant>  (328) 
105:0-1

>  <s_i_glide_gridfile>  (328) 
pfpi4k_grid

>  <i_i_glide_lignum>  (328) 
20

>  <i_i_glide_rotatable_bonds>  (328) 
2

>  <r_i_docking_score>  (328) 
-3.87264

>  <r_i_glide_ligand_efficiency>  (328) 
-0.193632

>  <r_i_glide_ligand_efficiency_sa>  (328) 
-0.525598

>  <r_i_glide_ligand_efficiency_ln>  (328) 
-0.969193

>  <r_i_glide_gscore>  (328) 
-3.87264

>  <r_i_glide_lipo>  (328) 
-0.35033

>  <r_i_glide_hbond>  (328) 
-0.32

>  <r_i_glide_metal>  (328) 
-0

>  <r_i_glide_rewards>  (328) 
-1.84987

>  <r_i_glide_evdw>  (328) 
-24.1226

>  <r_i_glide_ecoul>  (328) 
-3.48026

>  <r_i_glide_erotb>  (328) 
0.474225

>  <r_i_glide_esite>  (328) 
-0.0984935

>  <r_i_glide_emodel>  (328) 
-34.4502

>  <r_i_glide_energy>  (328) 
-27.6028

>  <r_i_glide_einternal>  (328) 
3.15599

>  <r_i_glide_intrahb_reward>  (328) 
-0

>  <i_i_glide_confnum>  (328) 
5

>  <i_i_glide_posenum>  (328) 
2

>  <r_i_glide_eff_state_penalty>  (328) 
0

>  <ligand_id>  (328) 
105

>  <original_smiles>  (328) 
Cn1cc(CN2CC3ONc4c(nnn4C)C3C2)cn1

>  <smiles>  (328) 
[H]c1nn(C([H])([H])[H])c([H])c1C([H])([H])N1C([H])([H])C2([H])ON([H])c3c(nnn3C([H])([H])[H])C2([H])C1([H])[H]

$$$$
105:1:0
     RDKit          3D

 38 41  0  0  1  0  0  0  0  0999 V2000
    3.5875    0.1271   -4.2414 C   0  0  0  0  0  0  0  0  0  0  0  0
    3.8732   -1.1329   -3.5925 N   0  0  0  0  0  0  0  0  0  0  0  0
    4.2113   -1.3594   -2.2762 C   0  0  0  0  0  0  0  0  0  0  0  0
    4.3520   -2.7131   -2.1151 C   0  0  0  0  0  0  0  0  0  0  0  0
    4.7117   -3.4870   -0.8735 C   0  0  0  0  0  0  0  0  0  0  0  0
    4.0086   -2.9287    0.3134 N   0  0  2  0  0  0  0  0  0  0  0  0
    4.7615   -3.0791    1.5818 C   0  0  0  0  0  0  0  0  0  0  0  0
    4.2563   -4.3752    2.1994 C   0  0  2  0  0  0  0  0  0  0  0  0
    5.0187   -5.4579    1.6156 O   0  0  0  0  0  0  0  0  0  0  0  0
    4.4995   -6.7552    1.9665 N   0  0  0  0  0  0  0  0  0  0  0  0
    3.1342   -6.8409    1.7771 C   0  0  0  0  0  0  0  0  0  0  0  0
    2.2880   -5.7976    1.6586 C   0  0  0  0  0  0  0  0  0  0  0  0
    1.0028   -6.2832    1.4328 N   0  0  0  0  0  0  0  0  0  0  0  0
    1.0558   -7.5886    1.4555 N   0  0  0  0  0  0  0  0  0  0  0  0
    2.3528   -7.9636    1.6718 N   0  0  0  0  0  0  0  0  0  0  0  0
    2.7165   -9.3717    1.7134 C   0  0  0  0  0  0  0  0  0  0  0  0
    2.7506   -4.3865    1.8095 C   0  0  2  0  0  0  0  0  0  0  0  0
    2.6635   -3.5162    0.5385 C   0  0  0  0  0  0  0  0  0  0  0  0
    4.1047   -3.2249   -3.4237 C   0  0  0  0  0  0  0  0  0  0  0  0
    3.8145   -2.2750   -4.3046 N   0  0  0  0  0  0  0  0  0  0  0  0
    3.8479    0.9479   -3.5765 H   0  0  0  0  0  0  0  0  0  0  0  0
    2.5260    0.1929   -4.4761 H   0  0  0  0  0  0  0  0  0  0  0  0
    4.1631    0.2245   -5.1592 H   0  0  0  0  0  0  0  0  0  0  0  0
    4.3126   -0.5439   -1.5743 H   0  0  0  0  0  0  0  0  0  0  0  0
    4.4777   -4.5483   -0.9771 H   0  0  0  0  0  0  0  0  0  0  0  0
    5.7886   -3.4452   -0.7227 H   0  0  0  0  0  0  0  0  0  0  0  0
    5.8477   -3.0482    1.4777 H   0  0  0  0  0  0  0  0  0  0  0  0
    4.4731   -2.2465    2.2276 H   0  0  0  0  0  0  0  0  0  0  0  0
    4.3852   -4.3853    3.2841 H   0  0  0  0  0  0  0  0  0  0  0  0
    5.1855   -7.4709    1.7826 H   0  0  0  0  0  0  0  0  0  0  0  0
    3.7021   -9.5075    2.1659 H   0  0  0  0  0  0  0  0  0  0  0  0
    2.7387   -9.7869    0.7032 H   0  0  0  0  0  0  0  0  0  0  0  0
    1.9869   -9.9316    2.3006 H   0  0  0  0  0  0  0  0  0  0  0  0
    2.1782   -3.8984    2.6018 H   0  0  0  0  0  0  0  0  0  0  0  0
    1.9865   -2.6822    0.7354 H   0  0  0  0  0  0  0  0  0  0  0  0
    2.2750   -4.0463   -0.3347 H   0  0  0  0  0  0  0  0  0  0  0  0
    4.1334   -4.2529   -3.7668 H   0  0  0  0  0  0  0  0  0  0  0  0
    3.8956   -1.9396    0.1388 H   0  0  0  0  0  0  0  0  0  0  0  0
  1  2  1  0
  1 21  1  0
  1 22  1  0
  1 23  1  0
  2 20  1  0
  2  3  1  0
  3  4  2  0
  3 24  1  0
  4  5  1  0
  4 19  1  0
  5  6  1  0
  5 25  1  0
  5 26  1  0
  6 18  1  0
  6  7  1  0
  6 38  1  6
  7  8  1  0
  7 27  1  0
  7 28  1  0
  8 17  1  0
  8  9  1  0
  8 29  1  1
  9 10  1  0
 10 11  1  0
 10 30  1  0
 11 15  1  0
 11 12  2  0
 12 13  1  0
 12 17  1  0
 13 14  2  0
 14 15  1  0
 15 16  1  0
 16 31  1  0
 16 32  1  0
 16 33  1  0
 17 18  1  0
 17 34  1  1
 18 35  1  0
 18 36  1  0
 19 20  2  0
 19 37  1  0
M  CHG  1   6   1
M  END
>  <i_m_ct_stereo_status>  (329) 
1

>  <s_m_source_file>  (329) 
/var/tmp/pbs.5076255.sched01/tmpr9sv22dd/120oksnzf6p.sdf

>  <i_m_source_file_index>  (329) 
21

>  <i_lp_mmshare_version>  (329) 
48012

>  <i_f3d_flags>  (329) 
0

>  <s_epik_input>  (329) 
W0NIM11uMVtjSF1jKFtjSF1uMSlbQ0gyXU4oW0NIMl0yKVtDSDJdW0NASF0oW0NASF0yMyljNGMoW05IXU8zKW4obm40KVtDSDNd

>  <s_epik_cmdline>  (329) 
J2VwaWtfcHl0aG9uJywgJy1waHQnLCAnMi4wJywgJy1waCcsICc3LjAnLCAnLXRuJywgJzgnLCAnLW1hJywgJzIwMCcsICctaW1hZScsICc8aW5maWxlLm1hZT4nLCAnLW9tYWUnLCAnPG91dGZpbGUubWFlPic=

>  <r_lp_tautomer_probability>  (329) 
1

>  <r_epik_Ionization_Penalty>  (329) 
0.568836

>  <r_epik_Ionization_Penalty_Charging>  (329) 
0.500596

>  <r_epik_Ionization_Penalty_Neutral>  (329) 
0.0682407

>  <r_epik_State_Penalty>  (329) 
0.658353

>  <r_epik_Charging_Adjusted_Penalty>  (329) 
1.15895

>  <i_epik_Tot_Q>  (329) 
1

>  <i_epik_Tot_abs_Q>  (329) 
1

>  <s_epik_Chemistry_Notes>  (329) 
This compound has a N-S or N-O group and may undergo hydrolysis at high or low pH.

>  <s_lp_Force_Field>  (329) 
OPLS3e

>  <r_lp_Energy>  (329) 
21.4751

>  <b_lp_Chiralities_Consistent>  (329) 
1

>  <s_lp_Variant>  (329) 
105:0-2

>  <s_i_glide_gridfile>  (329) 
pfpi4k_grid

>  <i_i_glide_lignum>  (329) 
21

>  <i_i_glide_rotatable_bonds>  (329) 
2

>  <r_i_docking_score>  (329) 
-4.94311

>  <r_i_glide_ligand_efficiency>  (329) 
-0.247155

>  <r_i_glide_ligand_efficiency_sa>  (329) 
-0.670883

>  <r_i_glide_ligand_efficiency_ln>  (329) 
-1.2371

>  <r_i_glide_gscore>  (329) 
-4.94311

>  <r_i_glide_lipo>  (329) 
-0.386876

>  <r_i_glide_hbond>  (329) 
-0.32

>  <r_i_glide_metal>  (329) 
-0

>  <r_i_glide_rewards>  (329) 
-1.8427

>  <r_i_glide_evdw>  (329) 
-27.1499

>  <r_i_glide_ecoul>  (329) 
-8.95263

>  <r_i_glide_erotb>  (329) 
0.47123

>  <r_i_glide_esite>  (329) 
-0.164368

>  <r_i_glide_emodel>  (329) 
-48.2939

>  <r_i_glide_energy>  (329) 
-36.1025

>  <r_i_glide_einternal>  (329) 
2.08964

>  <r_i_glide_intrahb_reward>  (329) 
-0

>  <i_i_glide_confnum>  (329) 
5

>  <i_i_glide_posenum>  (329) 
23

>  <r_i_glide_eff_state_penalty>  (329) 
0

>  <ligand_id>  (329) 
105

>  <original_smiles>  (329) 
Cn1cc(CN2CC3ONc4c(nnn4C)C3C2)cn1

>  <smiles>  (329) 
[H]c1nn(C([H])([H])[H])c([H])c1C([H])([H])[N+]1([H])C([H])([H])C2([H])ON([H])c3c(nnn3C([H])([H])[H])C2([H])C1([H])[H]

$$$$
105:1:1
     RDKit          3D

 38 41  0  0  1  0  0  0  0  0999 V2000
    0.3880   -7.0809    3.1017 C   0  0  0  0  0  0  0  0  0  0  0  0
    1.2543   -6.2592    2.2911 N   0  0  0  0  0  0  0  0  0  0  0  0
    2.3073   -5.4377    2.6503 C   0  0  0  0  0  0  0  0  0  0  0  0
    2.8356   -4.9213    1.4841 C   0  0  0  0  0  0  0  0  0  0  0  0
    3.9913   -3.9504    1.3219 C   0  0  0  0  0  0  0  0  0  0  0  0
    5.1191   -4.5119    0.5292 N   0  0  2  0  0  0  0  0  0  0  0  0
    6.3466   -3.6819    0.5380 C   0  0  0  0  0  0  0  0  0  0  0  0
    6.2590   -2.8044   -0.7101 C   0  0  2  0  0  0  0  0  0  0  0  0
    5.4998   -1.6292   -0.3344 O   0  0  0  0  0  0  0  0  0  0  0  0
    5.0895   -0.8368   -1.4698 N   0  0  0  0  0  0  0  0  0  0  0  0
    4.5389   -1.5809   -2.4837 C   0  0  0  0  0  0  0  0  0  0  0  0
    4.6875   -2.9048   -2.6647 C   0  0  0  0  0  0  0  0  0  0  0  0
    3.9919   -3.2830   -3.8065 N   0  0  0  0  0  0  0  0  0  0  0  0
    3.4240   -2.2265   -4.3093 N   0  0  0  0  0  0  0  0  0  0  0  0
    3.7826   -1.1582   -3.5494 N   0  0  0  0  0  0  0  0  0  0  0  0
    3.3527    0.1735   -3.9278 C   0  0  0  0  0  0  0  0  0  0  0  0
    5.5541   -3.7225   -1.7563 C   0  0  2  0  0  0  0  0  0  0  0  0
    4.7956   -4.7324   -0.9054 C   0  0  0  0  0  0  0  0  0  0  0  0
    1.9597   -5.4696    0.4862 C   0  0  0  0  0  0  0  0  0  0  0  0
    1.0247   -6.2560    0.9714 N   0  0  0  0  0  0  0  0  0  0  0  0
    0.5039   -6.8258    4.1518 H   0  0  0  0  0  0  0  0  0  0  0  0
    0.6376   -8.1315    2.9403 H   0  0  0  0  0  0  0  0  0  0  0  0
   -0.6463   -6.9313    2.7900 H   0  0  0  0  0  0  0  0  0  0  0  0
    2.5699   -5.2778    3.6859 H   0  0  0  0  0  0  0  0  0  0  0  0
    3.6595   -3.0086    0.8843 H   0  0  0  0  0  0  0  0  0  0  0  0
    4.3867   -3.6596    2.2997 H   0  0  0  0  0  0  0  0  0  0  0  0
    6.5268   -3.1127    1.4622 H   0  0  0  0  0  0  0  0  0  0  0  0
    7.1873   -4.3698    0.4024 H   0  0  0  0  0  0  0  0  0  0  0  0
    7.2411   -2.5093   -1.0779 H   0  0  0  0  0  0  0  0  0  0  0  0
    4.8110    0.0943   -1.1786 H   0  0  0  0  0  0  0  0  0  0  0  0
    3.9440    0.9306   -3.4107 H   0  0  0  0  0  0  0  0  0  0  0  0
    2.3019    0.2887   -3.6746 H   0  0  0  0  0  0  0  0  0  0  0  0
    3.4664    0.3139   -5.0018 H   0  0  0  0  0  0  0  0  0  0  0  0
    6.2575   -4.2600   -2.3774 H   0  0  0  0  0  0  0  0  0  0  0  0
    5.0876   -5.7591   -1.1562 H   0  0  0  0  0  0  0  0  0  0  0  0
    3.7527   -4.5901   -1.1660 H   0  0  0  0  0  0  0  0  0  0  0  0
    1.9097   -5.3266   -0.5878 H   0  0  0  0  0  0  0  0  0  0  0  0
    5.3407   -5.3983    0.9761 H   0  0  0  0  0  0  0  0  0  0  0  0
  1  2  1  0
  1 21  1  0
  1 22  1  0
  1 23  1  0
  2 20  1  0
  2  3  1  0
  3  4  2  0
  3 24  1  0
  4  5  1  0
  4 19  1  0
  5  6  1  0
  5 25  1  0
  5 26  1  0
  6 18  1  0
  6  7  1  0
  6 38  1  1
  7  8  1  0
  7 27  1  0
  7 28  1  0
  8 17  1  0
  8  9  1  0
  8 29  1  6
  9 10  1  0
 10 11  1  0
 10 30  1  0
 11 15  1  0
 11 12  2  0
 12 13  1  0
 12 17  1  0
 13 14  2  0
 14 15  1  0
 15 16  1  0
 16 31  1  0
 16 32  1  0
 16 33  1  0
 17 18  1  0
 17 34  1  6
 18 35  1  0
 18 36  1  0
 19 20  2  0
 19 37  1  0
M  CHG  1   6   1
M  END
>  <i_m_ct_stereo_status>  (330) 
1

>  <s_m_source_file>  (330) 
/var/tmp/pbs.5076255.sched01/tmpr9sv22dd/120oksnzf6p.sdf

>  <i_m_source_file_index>  (330) 
21

>  <i_lp_mmshare_version>  (330) 
48012

>  <i_f3d_flags>  (330) 
0

>  <s_epik_input>  (330) 
W0NIM11uMVtjSF1jKFtjSF1uMSlbQ0gyXU4oW0NIMl0yKVtDSDJdW0NASF0oW0NASF0yMyljNGMoW05IXU8zKW4obm40KVtDSDNd

>  <s_epik_cmdline>  (330) 
J2VwaWtfcHl0aG9uJywgJy1waHQnLCAnMi4wJywgJy1waCcsICc3LjAnLCAnLXRuJywgJzgnLCAnLW1hJywgJzIwMCcsICctaW1hZScsICc8aW5maWxlLm1hZT4nLCAnLW9tYWUnLCAnPG91dGZpbGUubWFlPic=

>  <r_lp_tautomer_probability>  (330) 
1

>  <r_epik_Ionization_Penalty>  (330) 
0.568836

>  <r_epik_Ionization_Penalty_Charging>  (330) 
0.500596

>  <r_epik_Ionization_Penalty_Neutral>  (330) 
0.0682407

>  <r_epik_State_Penalty>  (330) 
0.658353

>  <r_epik_Charging_Adjusted_Penalty>  (330) 
1.15895

>  <i_epik_Tot_Q>  (330) 
1

>  <i_epik_Tot_abs_Q>  (330) 
1

>  <s_epik_Chemistry_Notes>  (330) 
This compound has a N-S or N-O group and may undergo hydrolysis at high or low pH.

>  <s_lp_Force_Field>  (330) 
OPLS3e

>  <r_lp_Energy>  (330) 
21.4751

>  <b_lp_Chiralities_Consistent>  (330) 
1

>  <s_lp_Variant>  (330) 
105:0-2

>  <s_i_glide_gridfile>  (330) 
pfpi4k_grid

>  <i_i_glide_lignum>  (330) 
21

>  <i_i_glide_rotatable_bonds>  (330) 
2

>  <r_i_docking_score>  (330) 
-4.53728

>  <r_i_glide_ligand_efficiency>  (330) 
-0.226864

>  <r_i_glide_ligand_efficiency_sa>  (330) 
-0.615803

>  <r_i_glide_ligand_efficiency_ln>  (330) 
-1.13553

>  <r_i_glide_gscore>  (330) 
-4.53728

>  <r_i_glide_lipo>  (330) 
-0.30609

>  <r_i_glide_hbond>  (330) 
-0.417188

>  <r_i_glide_metal>  (330) 
-0

>  <r_i_glide_rewards>  (330) 
-1.82

>  <r_i_glide_evdw>  (330) 
-24.6738

>  <r_i_glide_ecoul>  (330) 
-7.2962

>  <r_i_glide_erotb>  (330) 
0.47123

>  <r_i_glide_esite>  (330) 
-0.137107

>  <r_i_glide_emodel>  (330) 
-43.1307

>  <r_i_glide_energy>  (330) 
-31.97

>  <r_i_glide_einternal>  (330) 
0.884471

>  <r_i_glide_intrahb_reward>  (330) 
-0

>  <i_i_glide_confnum>  (330) 
5

>  <i_i_glide_posenum>  (330) 
25

>  <r_i_glide_eff_state_penalty>  (330) 
0

>  <ligand_id>  (330) 
105

>  <original_smiles>  (330) 
Cn1cc(CN2CC3ONc4c(nnn4C)C3C2)cn1

>  <smiles>  (330) 
[H]c1nn(C([H])([H])[H])c([H])c1C([H])([H])[N+]1([H])C([H])([H])C2([H])ON([H])c3c(nnn3C([H])([H])[H])C2([H])C1([H])[H]

$$$$
105:1:2
     RDKit          3D

 38 41  0  0  1  0  0  0  0  0999 V2000
    0.4268   -7.4058    1.3990 C   0  0  0  0  0  0  0  0  0  0  0  0
    1.2190   -6.2615    1.7845 N   0  0  0  0  0  0  0  0  0  0  0  0
    2.2165   -5.6628    1.0547 C   0  0  0  0  0  0  0  0  0  0  0  0
    2.6944   -4.6043    1.7884 C   0  0  0  0  0  0  0  0  0  0  0  0
    3.7764   -3.6061    1.4384 C   0  0  0  0  0  0  0  0  0  0  0  0
    4.9001   -4.2566    0.7100 N   0  0  2  0  0  0  0  0  0  0  0  0
    6.1546   -3.4631    0.6996 C   0  0  0  0  0  0  0  0  0  0  0  0
    6.1128   -2.6570   -0.5955 C   0  0  2  0  0  0  0  0  0  0  0  0
    5.3722   -1.4419   -0.3188 O   0  0  0  0  0  0  0  0  0  0  0  0
    5.0292   -0.6984   -1.5055 N   0  0  0  0  0  0  0  0  0  0  0  0
    4.4960   -1.4914   -2.4953 C   0  0  0  0  0  0  0  0  0  0  0  0
    4.6169   -2.8323   -2.5898 C   0  0  0  0  0  0  0  0  0  0  0  0
    3.9431   -3.2614   -3.7289 N   0  0  0  0  0  0  0  0  0  0  0  0
    3.4194   -2.2182   -4.3129 N   0  0  0  0  0  0  0  0  0  0  0  0
    3.7828   -1.1156   -3.6033 N   0  0  0  0  0  0  0  0  0  0  0  0
    3.4074    0.2043   -4.0720 C   0  0  0  0  0  0  0  0  0  0  0  0
    5.4136   -3.6194   -1.5983 C   0  0  2  0  0  0  0  0  0  0  0  0
    4.5837   -4.5595   -0.7174 C   0  0  0  0  0  0  0  0  0  0  0  0
    1.9047   -4.6632    2.9804 C   0  0  0  0  0  0  0  0  0  0  0  0
    1.0051   -5.6376    2.9591 N   0  0  0  0  0  0  0  0  0  0  0  0
    0.8449   -7.8399    0.4963 H   0  0  0  0  0  0  0  0  0  0  0  0
   -0.5990   -7.1038    1.1935 H   0  0  0  0  0  0  0  0  0  0  0  0
    0.4409   -8.1558    2.1900 H   0  0  0  0  0  0  0  0  0  0  0  0
    2.4689   -6.0463    0.0790 H   0  0  0  0  0  0  0  0  0  0  0  0
    3.3862   -2.7725    0.8548 H   0  0  0  0  0  0  0  0  0  0  0  0
    4.1684   -3.1677    2.3576 H   0  0  0  0  0  0  0  0  0  0  0  0
    6.3145   -2.8481    1.5876 H   0  0  0  0  0  0  0  0  0  0  0  0
    6.9775   -4.1786    0.6388 H   0  0  0  0  0  0  0  0  0  0  0  0
    7.1145   -2.4051   -0.9492 H   0  0  0  0  0  0  0  0  0  0  0  0
    4.7964    0.2577   -1.2637 H   0  0  0  0  0  0  0  0  0  0  0  0
    4.0012    0.9725   -3.5706 H   0  0  0  0  0  0  0  0  0  0  0  0
    2.3488    0.3711   -3.8691 H   0  0  0  0  0  0  0  0  0  0  0  0
    3.5673    0.2811   -5.1496 H   0  0  0  0  0  0  0  0  0  0  0  0
    6.1572   -4.2155   -2.1252 H   0  0  0  0  0  0  0  0  0  0  0  0
    4.8828   -5.5959   -0.9003 H   0  0  0  0  0  0  0  0  0  0  0  0
    3.5269   -4.4540   -0.9610 H   0  0  0  0  0  0  0  0  0  0  0  0
    1.9328   -4.0114    3.8495 H   0  0  0  0  0  0  0  0  0  0  0  0
    5.0875   -5.1184    1.2092 H   0  0  0  0  0  0  0  0  0  0  0  0
  1  2  1  0
  1 21  1  0
  1 22  1  0
  1 23  1  0
  2 20  1  0
  2  3  1  0
  3  4  2  0
  3 24  1  0
  4  5  1  0
  4 19  1  0
  5  6  1  0
  5 25  1  0
  5 26  1  0
  6 18  1  0
  6  7  1  0
  6 38  1  1
  7  8  1  0
  7 27  1  0
  7 28  1  0
  8 17  1  0
  8  9  1  0
  8 29  1  6
  9 10  1  0
 10 11  1  0
 10 30  1  0
 11 15  1  0
 11 12  2  0
 12 13  1  0
 12 17  1  0
 13 14  2  0
 14 15  1  0
 15 16  1  0
 16 31  1  0
 16 32  1  0
 16 33  1  0
 17 18  1  0
 17 34  1  6
 18 35  1  0
 18 36  1  0
 19 20  2  0
 19 37  1  0
M  CHG  1   6   1
M  END
>  <i_m_ct_stereo_status>  (331) 
1

>  <s_m_source_file>  (331) 
/var/tmp/pbs.5076255.sched01/tmpr9sv22dd/120oksnzf6p.sdf

>  <i_m_source_file_index>  (331) 
21

>  <i_lp_mmshare_version>  (331) 
48012

>  <i_f3d_flags>  (331) 
0

>  <s_epik_input>  (331) 
W0NIM11uMVtjSF1jKFtjSF1uMSlbQ0gyXU4oW0NIMl0yKVtDSDJdW0NASF0oW0NASF0yMyljNGMoW05IXU8zKW4obm40KVtDSDNd

>  <s_epik_cmdline>  (331) 
J2VwaWtfcHl0aG9uJywgJy1waHQnLCAnMi4wJywgJy1waCcsICc3LjAnLCAnLXRuJywgJzgnLCAnLW1hJywgJzIwMCcsICctaW1hZScsICc8aW5maWxlLm1hZT4nLCAnLW9tYWUnLCAnPG91dGZpbGUubWFlPic=

>  <r_lp_tautomer_probability>  (331) 
1

>  <r_epik_Ionization_Penalty>  (331) 
0.568836

>  <r_epik_Ionization_Penalty_Charging>  (331) 
0.500596

>  <r_epik_Ionization_Penalty_Neutral>  (331) 
0.0682407

>  <r_epik_State_Penalty>  (331) 
0.658353

>  <r_epik_Charging_Adjusted_Penalty>  (331) 
1.15895

>  <i_epik_Tot_Q>  (331) 
1

>  <i_epik_Tot_abs_Q>  (331) 
1

>  <s_epik_Chemistry_Notes>  (331) 
This compound has a N-S or N-O group and may undergo hydrolysis at high or low pH.

>  <s_lp_Force_Field>  (331) 
OPLS3e

>  <r_lp_Energy>  (331) 
21.4751

>  <b_lp_Chiralities_Consistent>  (331) 
1

>  <s_lp_Variant>  (331) 
105:0-2

>  <s_i_glide_gridfile>  (331) 
pfpi4k_grid

>  <i_i_glide_lignum>  (331) 
21

>  <i_i_glide_rotatable_bonds>  (331) 
2

>  <r_i_docking_score>  (331) 
-4.20486

>  <r_i_glide_ligand_efficiency>  (331) 
-0.210243

>  <r_i_glide_ligand_efficiency_sa>  (331) 
-0.570687

>  <r_i_glide_ligand_efficiency_ln>  (331) 
-1.05234

>  <r_i_glide_gscore>  (331) 
-4.20486

>  <r_i_glide_lipo>  (331) 
-0.282171

>  <r_i_glide_hbond>  (331) 
-0.2733

>  <r_i_glide_metal>  (331) 
-0

>  <r_i_glide_rewards>  (331) 
-1.8481

>  <r_i_glide_evdw>  (331) 
-26.5643

>  <r_i_glide_ecoul>  (331) 
-5.2434

>  <r_i_glide_erotb>  (331) 
0.47123

>  <r_i_glide_esite>  (331) 
-0.157787

>  <r_i_glide_emodel>  (331) 
-41.9643

>  <r_i_glide_energy>  (331) 
-31.8077

>  <r_i_glide_einternal>  (331) 
1.95581

>  <r_i_glide_intrahb_reward>  (331) 
-0

>  <i_i_glide_confnum>  (331) 
2

>  <i_i_glide_posenum>  (331) 
15

>  <r_i_glide_eff_state_penalty>  (331) 
0

>  <ligand_id>  (331) 
105

>  <original_smiles>  (331) 
Cn1cc(CN2CC3ONc4c(nnn4C)C3C2)cn1

>  <smiles>  (331) 
[H]c1nn(C([H])([H])[H])c([H])c1C([H])([H])[N+]1([H])C([H])([H])C2([H])ON([H])c3c(nnn3C([H])([H])[H])C2([H])C1([H])[H]

$$$$
105:2:0
     RDKit          3D

 37 40  0  0  1  0  0  0  0  0999 V2000
    3.4874   -0.2386   -4.6208 C   0  0  0  0  0  0  0  0  0  0  0  0
    3.5926   -1.3827   -3.7381 N   0  0  0  0  0  0  0  0  0  0  0  0
    3.1518   -1.5113   -2.4363 C   0  0  0  0  0  0  0  0  0  0  0  0
    3.5114   -2.7592   -1.9959 C   0  0  0  0  0  0  0  0  0  0  0  0
    3.2397   -3.4179   -0.6703 C   0  0  0  0  0  0  0  0  0  0  0  0
    3.7426   -2.5789    0.4493 N   0  0  2  0  0  0  0  0  0  0  0  0
    5.1237   -2.9032    0.8957 C   0  0  0  0  0  0  0  0  0  0  0  0
    5.0179   -3.4547    2.3348 C   0  0  2  0  0  0  0  0  0  0  0  0
    5.8504   -4.6169    2.5466 O   0  0  0  0  0  0  0  0  0  0  0  0
    5.3498   -5.7942    1.9020 N   0  0  0  0  0  0  0  0  0  0  0  0
    4.0089   -5.9821    1.9456 C   0  0  0  0  0  0  0  0  0  0  0  0
    3.0979   -5.0403    2.2442 C   0  0  0  0  0  0  0  0  0  0  0  0
    1.8232   -5.6012    2.1590 N   0  0  0  0  0  0  0  0  0  0  0  0
    1.9551   -6.8612    1.8352 N   0  0  0  0  0  0  0  0  0  0  0  0
    3.2882   -7.1277    1.6942 N   0  0  0  0  0  0  0  0  0  0  0  0
    3.7357   -8.4608    1.3319 C   0  0  0  0  0  0  0  0  0  0  0  0
    3.4920   -3.6423    2.5976 C   0  0  2  0  0  0  0  0  0  0  0  0
    2.8905   -2.6007    1.6584 C   0  0  0  0  0  0  0  0  0  0  0  0
    4.1575   -3.3287   -3.1327 C   0  0  0  0  0  0  0  0  0  0  0  0
    4.2092   -2.4965   -4.1606 N   0  0  0  0  0  0  0  0  0  0  0  0
    3.0507    0.6051   -4.0900 H   0  0  0  0  0  0  0  0  0  0  0  0
    2.8618   -0.4678   -5.4815 H   0  0  0  0  0  0  0  0  0  0  0  0
    4.4729    0.0543   -4.9789 H   0  0  0  0  0  0  0  0  0  0  0  0
    2.6156   -0.7094   -1.9467 H   0  0  0  0  0  0  0  0  0  0  0  0
    2.1692   -3.5843   -0.5715 H   0  0  0  0  0  0  0  0  0  0  0  0
    3.6791   -4.4141   -0.6258 H   0  0  0  0  0  0  0  0  0  0  0  0
    5.6185   -3.6006    0.2184 H   0  0  0  0  0  0  0  0  0  0  0  0
    5.7209   -1.9912    0.8986 H   0  0  0  0  0  0  0  0  0  0  0  0
    5.3912   -2.6710    3.0021 H   0  0  0  0  0  0  0  0  0  0  0  0
    4.7832   -8.4408    1.0266 H   0  0  0  0  0  0  0  0  0  0  0  0
    3.1451   -8.8479    0.5031 H   0  0  0  0  0  0  0  0  0  0  0  0
    3.6192   -9.1437    2.1753 H   0  0  0  0  0  0  0  0  0  0  0  0
    3.2600   -3.4253    3.6400 H   0  0  0  0  0  0  0  0  0  0  0  0
    2.9925   -1.6218    2.1256 H   0  0  0  0  0  0  0  0  0  0  0  0
    1.8278   -2.7489    1.4685 H   0  0  0  0  0  0  0  0  0  0  0  0
    4.5741   -4.3183   -3.2540 H   0  0  0  0  0  0  0  0  0  0  0  0
    3.7238   -1.6318    0.0996 H   0  0  0  0  0  0  0  0  0  0  0  0
  1  2  1  0
  1 21  1  0
  1 22  1  0
  1 23  1  0
  2 20  1  0
  2  3  1  0
  3  4  2  0
  3 24  1  0
  4  5  1  0
  4 19  1  0
  5  6  1  0
  5 25  1  0
  5 26  1  0
  6 18  1  0
  6  7  1  0
  6 37  1  6
  7  8  1  0
  7 27  1  0
  7 28  1  0
  8 17  1  0
  8  9  1  0
  8 29  1  1
  9 10  1  0
 10 11  1  0
 11 15  1  0
 11 12  2  0
 12 13  1  0
 12 17  1  0
 13 14  2  0
 14 15  1  0
 15 16  1  0
 16 30  1  0
 16 31  1  0
 16 32  1  0
 17 18  1  0
 17 33  1  1
 18 34  1  0
 18 35  1  0
 19 20  2  0
 19 36  1  0
M  CHG  2   6   1  10  -1
M  END
>  <i_m_ct_stereo_status>  (332) 
1

>  <s_m_source_file>  (332) 
/var/tmp/pbs.5076255.sched01/tmpr9sv22dd/120oksnzf6p.sdf

>  <i_m_source_file_index>  (332) 
22

>  <i_lp_mmshare_version>  (332) 
48012

>  <i_f3d_flags>  (332) 
0

>  <s_epik_input>  (332) 
W0NIM11uMVtjSF1jKFtjSF1uMSlbQ0gyXU4oW0NIMl0yKVtDSDJdW0NASF0oW0NASF0yMyljNGMoW05IXU8zKW4obm40KVtDSDNd

>  <s_epik_cmdline>  (332) 
J2VwaWtfcHl0aG9uJywgJy1waHQnLCAnMi4wJywgJy1waCcsICc3LjAnLCAnLXRuJywgJzgnLCAnLW1hJywgJzIwMCcsICctaW1hZScsICc8aW5maWxlLm1hZT4nLCAnLW9tYWUnLCAnPG91dGZpbGUubWFlPic=

>  <r_epik_Ionization_Penalty>  (332) 
1.66555

>  <r_epik_Ionization_Penalty_Charging>  (332) 
1.66545

>  <r_epik_Ionization_Penalty_Neutral>  (332) 
0.000101011

>  <r_epik_State_Penalty>  (332) 
2.19642

>  <r_epik_Charging_Adjusted_Penalty>  (332) 
3.86187

>  <i_epik_Tot_Q>  (332) 
0

>  <i_epik_Tot_abs_Q>  (332) 
2

>  <s_lp_Force_Field>  (332) 
OPLS3e

>  <r_lp_Energy>  (332) 
14.9279

>  <b_lp_Chiralities_Consistent>  (332) 
1

>  <s_lp_Variant>  (332) 
105:0-3

>  <s_i_glide_gridfile>  (332) 
pfpi4k_grid

>  <i_i_glide_lignum>  (332) 
22

>  <i_i_glide_rotatable_bonds>  (332) 
2

>  <r_i_docking_score>  (332) 
-4.46855

>  <r_i_glide_ligand_efficiency>  (332) 
-0.223428

>  <r_i_glide_ligand_efficiency_sa>  (332) 
-0.606476

>  <r_i_glide_ligand_efficiency_ln>  (332) 
-1.11833

>  <r_i_glide_gscore>  (332) 
-4.46855

>  <r_i_glide_lipo>  (332) 
-0.540316

>  <r_i_glide_hbond>  (332) 
-0.31928

>  <r_i_glide_metal>  (332) 
-0

>  <r_i_glide_rewards>  (332) 
-1.8479

>  <r_i_glide_evdw>  (332) 
-21.0729

>  <r_i_glide_ecoul>  (332) 
-7.35991

>  <r_i_glide_erotb>  (332) 
0.474225

>  <r_i_glide_esite>  (332) 
-0.0776453

>  <r_i_glide_emodel>  (332) 
-39.8642

>  <r_i_glide_energy>  (332) 
-28.4329

>  <r_i_glide_einternal>  (332) 
2.52253

>  <r_i_glide_intrahb_reward>  (332) 
-0

>  <i_i_glide_confnum>  (332) 
4

>  <i_i_glide_posenum>  (332) 
22

>  <r_i_glide_eff_state_penalty>  (332) 
0

>  <ligand_id>  (332) 
105

>  <original_smiles>  (332) 
Cn1cc(CN2CC3ONc4c(nnn4C)C3C2)cn1

>  <smiles>  (332) 
[H]c1nn(C([H])([H])[H])c([H])c1C([H])([H])[N+]1([H])C([H])([H])C2([H])O[N-]c3c(nnn3C([H])([H])[H])C2([H])C1([H])[H]

$$$$
105:2:1
     RDKit          3D

 37 40  0  0  1  0  0  0  0  0999 V2000
    3.4809    0.0951   -4.9064 C   0  0  0  0  0  0  0  0  0  0  0  0
    3.5517   -1.0080   -3.9769 N   0  0  0  0  0  0  0  0  0  0  0  0
    3.0211   -1.0840   -2.7117 C   0  0  0  0  0  0  0  0  0  0  0  0
    3.3720   -2.2902   -2.1785 C   0  0  0  0  0  0  0  0  0  0  0  0
    3.0251   -2.8859   -0.8375 C   0  0  0  0  0  0  0  0  0  0  0  0
    3.4277   -1.9813    0.2666 N   0  0  2  0  0  0  0  0  0  0  0  0
    4.8799   -1.9992    0.5697 C   0  0  0  0  0  0  0  0  0  0  0  0
    5.0462   -2.5975    1.9835 C   0  0  2  0  0  0  0  0  0  0  0  0
    6.1375   -3.5406    2.0436 O   0  0  0  0  0  0  0  0  0  0  0  0
    5.8381   -4.7921    1.4208 N   0  0  0  0  0  0  0  0  0  0  0  0
    4.5827   -5.2745    1.5905 C   0  0  0  0  0  0  0  0  0  0  0  0
    3.5208   -4.5679    2.0115 C   0  0  0  0  0  0  0  0  0  0  0  0
    2.3960   -5.3921    2.0198 N   0  0  0  0  0  0  0  0  0  0  0  0
    2.7659   -6.5852    1.6314 N   0  0  0  0  0  0  0  0  0  0  0  0
    4.1038   -6.5436    1.3596 N   0  0  0  0  0  0  0  0  0  0  0  0
    4.7883   -7.7322    0.8904 C   0  0  0  0  0  0  0  0  0  0  0  0
    3.6344   -3.1255    2.3817 C   0  0  2  0  0  0  0  0  0  0  0  0
    2.7289   -2.2248    1.5432 C   0  0  0  0  0  0  0  0  0  0  0  0
    4.0935   -2.9123   -3.2408 C   0  0  0  0  0  0  0  0  0  0  0  0
    4.2020   -2.1327   -4.3069 N   0  0  0  0  0  0  0  0  0  0  0  0
    2.9840    0.9499   -4.4520 H   0  0  0  0  0  0  0  0  0  0  0  0
    2.9315   -0.1976   -5.8036 H   0  0  0  0  0  0  0  0  0  0  0  0
    4.4860    0.4174   -5.1687 H   0  0  0  0  0  0  0  0  0  0  0  0
    2.4260   -0.2658   -2.3142 H   0  0  0  0  0  0  0  0  0  0  0  0
    1.9523   -3.0687   -0.7892 H   0  0  0  0  0  0  0  0  0  0  0  0
    3.4925   -3.8639   -0.7082 H   0  0  0  0  0  0  0  0  0  0  0  0
    5.4393   -2.5631   -0.1782 H   0  0  0  0  0  0  0  0  0  0  0  0
    5.2619   -0.9786    0.5559 H   0  0  0  0  0  0  0  0  0  0  0  0
    5.3006   -1.7678    2.6511 H   0  0  0  0  0  0  0  0  0  0  0  0
    5.7732   -7.4635    0.5110 H   0  0  0  0  0  0  0  0  0  0  0  0
    4.2147   -8.1975    0.0891 H   0  0  0  0  0  0  0  0  0  0  0  0
    4.9073   -8.4499    1.7037 H   0  0  0  0  0  0  0  0  0  0  0  0
    3.4600   -2.9858    3.4494 H   0  0  0  0  0  0  0  0  0  0  0  0
    2.6521   -1.2582    2.0414 H   0  0  0  0  0  0  0  0  0  0  0  0
    1.7180   -2.6105    1.4397 H   0  0  0  0  0  0  0  0  0  0  0  0
    4.5249   -3.9053   -3.2768 H   0  0  0  0  0  0  0  0  0  0  0  0
    3.1509   -1.0622   -0.0423 H   0  0  0  0  0  0  0  0  0  0  0  0
  1  2  1  0
  1 21  1  0
  1 22  1  0
  1 23  1  0
  2 20  1  0
  2  3  1  0
  3  4  2  0
  3 24  1  0
  4  5  1  0
  4 19  1  0
  5  6  1  0
  5 25  1  0
  5 26  1  0
  6 18  1  0
  6  7  1  0
  6 37  1  6
  7  8  1  0
  7 27  1  0
  7 28  1  0
  8 17  1  0
  8  9  1  0
  8 29  1  1
  9 10  1  0
 10 11  1  0
 11 15  1  0
 11 12  2  0
 12 13  1  0
 12 17  1  0
 13 14  2  0
 14 15  1  0
 15 16  1  0
 16 30  1  0
 16 31  1  0
 16 32  1  0
 17 18  1  0
 17 33  1  1
 18 34  1  0
 18 35  1  0
 19 20  2  0
 19 36  1  0
M  CHG  2   6   1  10  -1
M  END
>  <i_m_ct_stereo_status>  (333) 
1

>  <s_m_source_file>  (333) 
/var/tmp/pbs.5076255.sched01/tmpr9sv22dd/120oksnzf6p.sdf

>  <i_m_source_file_index>  (333) 
22

>  <i_lp_mmshare_version>  (333) 
48012

>  <i_f3d_flags>  (333) 
0

>  <s_epik_input>  (333) 
W0NIM11uMVtjSF1jKFtjSF1uMSlbQ0gyXU4oW0NIMl0yKVtDSDJdW0NASF0oW0NASF0yMyljNGMoW05IXU8zKW4obm40KVtDSDNd

>  <s_epik_cmdline>  (333) 
J2VwaWtfcHl0aG9uJywgJy1waHQnLCAnMi4wJywgJy1waCcsICc3LjAnLCAnLXRuJywgJzgnLCAnLW1hJywgJzIwMCcsICctaW1hZScsICc8aW5maWxlLm1hZT4nLCAnLW9tYWUnLCAnPG91dGZpbGUubWFlPic=

>  <r_epik_Ionization_Penalty>  (333) 
1.66555

>  <r_epik_Ionization_Penalty_Charging>  (333) 
1.66545

>  <r_epik_Ionization_Penalty_Neutral>  (333) 
0.000101011

>  <r_epik_State_Penalty>  (333) 
2.19642

>  <r_epik_Charging_Adjusted_Penalty>  (333) 
3.86187

>  <i_epik_Tot_Q>  (333) 
0

>  <i_epik_Tot_abs_Q>  (333) 
2

>  <s_lp_Force_Field>  (333) 
OPLS3e

>  <r_lp_Energy>  (333) 
14.9279

>  <b_lp_Chiralities_Consistent>  (333) 
1

>  <s_lp_Variant>  (333) 
105:0-3

>  <s_i_glide_gridfile>  (333) 
pfpi4k_grid

>  <i_i_glide_lignum>  (333) 
22

>  <i_i_glide_rotatable_bonds>  (333) 
2

>  <r_i_docking_score>  (333) 
-4.36492

>  <r_i_glide_ligand_efficiency>  (333) 
-0.218246

>  <r_i_glide_ligand_efficiency_sa>  (333) 
-0.592411

>  <r_i_glide_ligand_efficiency_ln>  (333) 
-1.0924

>  <r_i_glide_gscore>  (333) 
-4.36492

>  <r_i_glide_lipo>  (333) 
-0.422939

>  <r_i_glide_hbond>  (333) 
-0.32

>  <r_i_glide_metal>  (333) 
-0

>  <r_i_glide_rewards>  (333) 
-1.83312

>  <r_i_glide_evdw>  (333) 
-21.1195

>  <r_i_glide_ecoul>  (333) 
-7.55876

>  <r_i_glide_erotb>  (333) 
0.474225

>  <r_i_glide_esite>  (333) 
-0.0732985

>  <r_i_glide_emodel>  (333) 
-40.2607

>  <r_i_glide_energy>  (333) 
-28.6783

>  <r_i_glide_einternal>  (333) 
1.62817

>  <r_i_glide_intrahb_reward>  (333) 
-0

>  <i_i_glide_confnum>  (333) 
1

>  <i_i_glide_posenum>  (333) 
6

>  <r_i_glide_eff_state_penalty>  (333) 
0

>  <ligand_id>  (333) 
105

>  <original_smiles>  (333) 
Cn1cc(CN2CC3ONc4c(nnn4C)C3C2)cn1

>  <smiles>  (333) 
[H]c1nn(C([H])([H])[H])c([H])c1C([H])([H])[N+]1([H])C([H])([H])C2([H])O[N-]c3c(nnn3C([H])([H])[H])C2([H])C1([H])[H]

$$$$
105:2:2
     RDKit          3D

 37 40  0  0  1  0  0  0  0  0999 V2000
    3.4131   -0.0473   -4.8694 C   0  0  0  0  0  0  0  0  0  0  0  0
    3.5977   -0.9864   -3.7848 N   0  0  0  0  0  0  0  0  0  0  0  0
    4.2115   -0.8240   -2.5577 C   0  0  0  0  0  0  0  0  0  0  0  0
    4.1139   -2.0219   -1.8816 C   0  0  0  0  0  0  0  0  0  0  0  0
    4.5918   -2.3826   -0.4892 C   0  0  0  0  0  0  0  0  0  0  0  0
    5.2414   -3.7187   -0.4505 N   0  0  2  0  0  0  0  0  0  0  0  0
    4.3019   -4.8624   -0.5146 C   0  0  0  0  0  0  0  0  0  0  0  0
    4.3581   -5.6293    0.8123 C   0  0  2  0  0  0  0  0  0  0  0  0
    3.0324   -5.9990    1.2748 O   0  0  0  0  0  0  0  0  0  0  0  0
    2.2779   -4.8920    1.7840 N   0  0  0  0  0  0  0  0  0  0  0  0
    2.9607   -3.9703    2.4907 C   0  0  0  0  0  0  0  0  0  0  0  0
    4.3048   -3.8272    2.5156 C   0  0  0  0  0  0  0  0  0  0  0  0
    4.6349   -2.7623    3.3438 N   0  0  0  0  0  0  0  0  0  0  0  0
    3.5323   -2.2553    3.8215 N   0  0  0  0  0  0  0  0  0  0  0  0
    2.4907   -2.9734    3.3185 N   0  0  0  0  0  0  0  0  0  0  0  0
    1.1304   -2.6194    3.6815 C   0  0  0  0  0  0  0  0  0  0  0  0
    5.2126   -4.7248    1.7433 C   0  0  2  0  0  0  0  0  0  0  0  0
    6.0810   -3.9595    0.7357 C   0  0  0  0  0  0  0  0  0  0  0  0
    3.3900   -2.8371   -2.8062 C   0  0  0  0  0  0  0  0  0  0  0  0
    3.1146   -2.2268   -3.9386 N   0  0  0  0  0  0  0  0  0  0  0  0
    3.9309    0.8843   -4.6542 H   0  0  0  0  0  0  0  0  0  0  0  0
    2.3509    0.1550   -5.0098 H   0  0  0  0  0  0  0  0  0  0  0  0
    3.8039   -0.4737   -5.7924 H   0  0  0  0  0  0  0  0  0  0  0  0
    4.6345    0.1297   -2.2762 H   0  0  0  0  0  0  0  0  0  0  0  0
    5.3033   -1.6325   -0.1451 H   0  0  0  0  0  0  0  0  0  0  0  0
    3.7700   -2.3436    0.2243 H   0  0  0  0  0  0  0  0  0  0  0  0
    3.2739   -4.5535   -0.6812 H   0  0  0  0  0  0  0  0  0  0  0  0
    4.6185   -5.5101   -1.3335 H   0  0  0  0  0  0  0  0  0  0  0  0
    4.9032   -6.5588    0.6168 H   0  0  0  0  0  0  0  0  0  0  0  0
    0.4243   -3.1179    3.0228 H   0  0  0  0  0  0  0  0  0  0  0  0
    0.9936   -1.5414    3.5875 H   0  0  0  0  0  0  0  0  0  0  0  0
    0.9271   -2.9170    4.7111 H   0  0  0  0  0  0  0  0  0  0  0  0
    5.8125   -5.3395    2.4146 H   0  0  0  0  0  0  0  0  0  0  0  0
    6.8830   -4.6265    0.4165 H   0  0  0  0  0  0  0  0  0  0  0  0
    6.5532   -3.0709    1.1536 H   0  0  0  0  0  0  0  0  0  0  0  0
    3.0516   -3.8561   -2.7344 H   0  0  0  0  0  0  0  0  0  0  0  0
    5.8400   -3.7513   -1.2610 H   0  0  0  0  0  0  0  0  0  0  0  0
  1  2  1  0
  1 21  1  0
  1 22  1  0
  1 23  1  0
  2 20  1  0
  2  3  1  0
  3  4  2  0
  3 24  1  0
  4  5  1  0
  4 19  1  0
  5  6  1  0
  5 25  1  0
  5 26  1  0
  6 18  1  0
  6  7  1  0
  6 37  1  6
  7  8  1  0
  7 27  1  0
  7 28  1  0
  8 17  1  0
  8  9  1  0
  8 29  1  6
  9 10  1  0
 10 11  1  0
 11 15  1  0
 11 12  2  0
 12 13  1  0
 12 17  1  0
 13 14  2  0
 14 15  1  0
 15 16  1  0
 16 30  1  0
 16 31  1  0
 16 32  1  0
 17 18  1  0
 17 33  1  1
 18 34  1  0
 18 35  1  0
 19 20  2  0
 19 36  1  0
M  CHG  2   6   1  10  -1
M  END
>  <i_m_ct_stereo_status>  (334) 
1

>  <s_m_source_file>  (334) 
/var/tmp/pbs.5076255.sched01/tmpr9sv22dd/120oksnzf6p.sdf

>  <i_m_source_file_index>  (334) 
22

>  <i_lp_mmshare_version>  (334) 
48012

>  <i_f3d_flags>  (334) 
0

>  <s_epik_input>  (334) 
W0NIM11uMVtjSF1jKFtjSF1uMSlbQ0gyXU4oW0NIMl0yKVtDSDJdW0NASF0oW0NASF0yMyljNGMoW05IXU8zKW4obm40KVtDSDNd

>  <s_epik_cmdline>  (334) 
J2VwaWtfcHl0aG9uJywgJy1waHQnLCAnMi4wJywgJy1waCcsICc3LjAnLCAnLXRuJywgJzgnLCAnLW1hJywgJzIwMCcsICctaW1hZScsICc8aW5maWxlLm1hZT4nLCAnLW9tYWUnLCAnPG91dGZpbGUubWFlPic=

>  <r_epik_Ionization_Penalty>  (334) 
1.66555

>  <r_epik_Ionization_Penalty_Charging>  (334) 
1.66545

>  <r_epik_Ionization_Penalty_Neutral>  (334) 
0.000101011

>  <r_epik_State_Penalty>  (334) 
2.19642

>  <r_epik_Charging_Adjusted_Penalty>  (334) 
3.86187

>  <i_epik_Tot_Q>  (334) 
0

>  <i_epik_Tot_abs_Q>  (334) 
2

>  <s_lp_Force_Field>  (334) 
OPLS3e

>  <r_lp_Energy>  (334) 
14.9279

>  <b_lp_Chiralities_Consistent>  (334) 
1

>  <s_lp_Variant>  (334) 
105:0-3

>  <s_i_glide_gridfile>  (334) 
pfpi4k_grid

>  <i_i_glide_lignum>  (334) 
22

>  <i_i_glide_rotatable_bonds>  (334) 
2

>  <r_i_docking_score>  (334) 
-3.51702

>  <r_i_glide_ligand_efficiency>  (334) 
-0.175851

>  <r_i_glide_ligand_efficiency_sa>  (334) 
-0.477334

>  <r_i_glide_ligand_efficiency_ln>  (334) 
-0.880195

>  <r_i_glide_gscore>  (334) 
-3.51702

>  <r_i_glide_lipo>  (334) 
-0.446948

>  <r_i_glide_hbond>  (334) 
0

>  <r_i_glide_metal>  (334) 
-0

>  <r_i_glide_rewards>  (334) 
-1.80913

>  <r_i_glide_evdw>  (334) 
-23.4501

>  <r_i_glide_ecoul>  (334) 
-3.59206

>  <r_i_glide_erotb>  (334) 
0.474225

>  <r_i_glide_esite>  (334) 
-0.0238592

>  <r_i_glide_emodel>  (334) 
-36.1588

>  <r_i_glide_energy>  (334) 
-27.0422

>  <r_i_glide_einternal>  (334) 
1.40836

>  <r_i_glide_intrahb_reward>  (334) 
-0

>  <i_i_glide_confnum>  (334) 
3

>  <i_i_glide_posenum>  (334) 
5

>  <r_i_glide_eff_state_penalty>  (334) 
0

>  <ligand_id>  (334) 
105

>  <original_smiles>  (334) 
Cn1cc(CN2CC3ONc4c(nnn4C)C3C2)cn1

>  <smiles>  (334) 
[H]c1nn(C([H])([H])[H])c([H])c1C([H])([H])[N+]1([H])C([H])([H])C2([H])O[N-]c3c(nnn3C([H])([H])[H])C2([H])C1([H])[H]

$$$$
105:3:0
     RDKit          3D

 36 39  0  0  1  0  0  0  0  0999 V2000
    3.0150   -0.7513   -3.6642 C   0  0  0  0  0  0  0  0  0  0  0  0
    3.7890   -1.8256   -3.0959 N   0  0  0  0  0  0  0  0  0  0  0  0
    3.8534   -2.2483   -1.7869 C   0  0  0  0  0  0  0  0  0  0  0  0
    4.7050   -3.3202   -1.7482 C   0  0  0  0  0  0  0  0  0  0  0  0
    5.1295   -4.1497   -0.5663 C   0  0  0  0  0  0  0  0  0  0  0  0
    4.1419   -4.1243    0.5082 N   0  0  0  0  0  0  0  0  0  0  0  0
    4.6883   -4.5522    1.8017 C   0  0  0  0  0  0  0  0  0  0  0  0
    3.5920   -5.3925    2.4750 C   0  0  2  0  0  0  0  0  0  0  0  0
    4.0483   -6.7588    2.5528 O   0  0  0  0  0  0  0  0  0  0  0  0
    3.0144   -7.6551    2.9655 N   0  0  0  0  0  0  0  0  0  0  0  0
    1.8136   -7.4676    2.3672 C   0  0  0  0  0  0  0  0  0  0  0  0
    1.4432   -6.3726    1.6911 C   0  0  0  0  0  0  0  0  0  0  0  0
    0.1208   -6.5186    1.2763 N   0  0  0  0  0  0  0  0  0  0  0  0
   -0.3068   -7.6816    1.6878 N   0  0  0  0  0  0  0  0  0  0  0  0
    0.7116   -8.2929    2.3569 N   0  0  0  0  0  0  0  0  0  0  0  0
    0.5246   -9.6233    2.9060 C   0  0  0  0  0  0  0  0  0  0  0  0
    2.3615   -5.1950    1.5720 C   0  0  2  0  0  0  0  0  0  0  0  0
    3.0021   -4.9944    0.2066 C   0  0  0  0  0  0  0  0  0  0  0  0
    5.1187   -3.4567   -3.1010 C   0  0  0  0  0  0  0  0  0  0  0  0
    4.5618   -2.5738   -3.9049 N   0  0  0  0  0  0  0  0  0  0  0  0
    2.5736   -0.1649   -2.8639 H   0  0  0  0  0  0  0  0  0  0  0  0
    2.2232   -1.1572   -4.2968 H   0  0  0  0  0  0  0  0  0  0  0  0
    3.6516   -0.1025   -4.2667 H   0  0  0  0  0  0  0  0  0  0  0  0
    3.2877   -1.7702   -0.9984 H   0  0  0  0  0  0  0  0  0  0  0  0
    5.3199   -5.1859   -0.8564 H   0  0  0  0  0  0  0  0  0  0  0  0
    6.0837   -3.7891   -0.1810 H   0  0  0  0  0  0  0  0  0  0  0  0
    5.6241   -5.1100    1.7225 H   0  0  0  0  0  0  0  0  0  0  0  0
    4.8868   -3.6535    2.3926 H   0  0  0  0  0  0  0  0  0  0  0  0
    3.3916   -5.0576    3.4922 H   0  0  0  0  0  0  0  0  0  0  0  0
    1.2473   -9.8113    3.7020 H   0  0  0  0  0  0  0  0  0  0  0  0
    0.6571  -10.3657    2.1169 H   0  0  0  0  0  0  0  0  0  0  0  0
   -0.4832   -9.7191    3.3111 H   0  0  0  0  0  0  0  0  0  0  0  0
    1.8610   -4.2757    1.8730 H   0  0  0  0  0  0  0  0  0  0  0  0
    2.3215   -4.5332   -0.5104 H   0  0  0  0  0  0  0  0  0  0  0  0
    3.3411   -5.9555   -0.1850 H   0  0  0  0  0  0  0  0  0  0  0  0
    5.8022   -4.1775   -3.5227 H   0  0  0  0  0  0  0  0  0  0  0  0
  1  2  1  0
  1 21  1  0
  1 22  1  0
  1 23  1  0
  2 20  1  0
  2  3  1  0
  3  4  2  0
  3 24  1  0
  4  5  1  0
  4 19  1  0
  5  6  1  0
  5 25  1  0
  5 26  1  0
  6 18  1  0
  6  7  1  0
  7  8  1  0
  7 27  1  0
  7 28  1  0
  8 17  1  0
  8  9  1  0
  8 29  1  1
  9 10  1  0
 10 11  1  0
 11 15  1  0
 11 12  2  0
 12 13  1  0
 12 17  1  0
 13 14  2  0
 14 15  1  0
 15 16  1  0
 16 30  1  0
 16 31  1  0
 16 32  1  0
 17 18  1  0
 17 33  1  1
 18 34  1  0
 18 35  1  0
 19 20  2  0
 19 36  1  0
M  CHG  1  10  -1
M  END
>  <i_m_ct_stereo_status>  (335) 
1

>  <s_m_source_file>  (335) 
/var/tmp/pbs.5076255.sched01/tmpr9sv22dd/120oksnzf6p.sdf

>  <i_m_source_file_index>  (335) 
23

>  <i_lp_mmshare_version>  (335) 
48012

>  <i_f3d_flags>  (335) 
0

>  <s_epik_input>  (335) 
W0NIM11uMVtjSF1jKFtjSF1uMSlbQ0gyXU4oW0NIMl0yKVtDSDJdW0NASF0oW0NASF0yMyljNGMoW05IXU8zKW4obm40KVtDSDNd

>  <s_epik_cmdline>  (335) 
J2VwaWtfcHl0aG9uJywgJy1waHQnLCAnMi4wJywgJy1waCcsICc3LjAnLCAnLXRuJywgJzgnLCAnLW1hJywgJzIwMCcsICctaW1hZScsICc8aW5maWxlLm1hZT4nLCAnLW9tYWUnLCAnPG91dGZpbGUubWFlPic=

>  <r_lp_tautomer_probability>  (335) 
1

>  <r_epik_Ionization_Penalty>  (335) 
2.81952

>  <r_epik_Ionization_Penalty_Charging>  (335) 
2.33207

>  <r_epik_Ionization_Penalty_Neutral>  (335) 
0.487454

>  <r_epik_State_Penalty>  (335) 
2.53968

>  <r_epik_Charging_Adjusted_Penalty>  (335) 
4.87175

>  <i_epik_Tot_Q>  (335) 
-1

>  <i_epik_Tot_abs_Q>  (335) 
1

>  <s_lp_Force_Field>  (335) 
OPLS3e

>  <r_lp_Energy>  (335) 
25.1246

>  <b_lp_Chiralities_Consistent>  (335) 
1

>  <s_lp_Variant>  (335) 
105:0-4

>  <s_i_glide_gridfile>  (335) 
pfpi4k_grid

>  <i_i_glide_lignum>  (335) 
23

>  <i_i_glide_rotatable_bonds>  (335) 
2

>  <r_i_docking_score>  (335) 
-4.15632

>  <r_i_glide_ligand_efficiency>  (335) 
-0.207816

>  <r_i_glide_ligand_efficiency_sa>  (335) 
-0.5641

>  <r_i_glide_ligand_efficiency_ln>  (335) 
-1.04019

>  <r_i_glide_gscore>  (335) 
-4.15632

>  <r_i_glide_lipo>  (335) 
-0.554573

>  <r_i_glide_hbond>  (335) 
-0.118371

>  <r_i_glide_metal>  (335) 
-0

>  <r_i_glide_rewards>  (335) 
-1.63627

>  <r_i_glide_evdw>  (335) 
-24.2865

>  <r_i_glide_ecoul>  (335) 
-5.92638

>  <r_i_glide_erotb>  (335) 
0.47725

>  <r_i_glide_esite>  (335) 
-0.22107

>  <r_i_glide_emodel>  (335) 
-38.7859

>  <r_i_glide_energy>  (335) 
-30.2129

>  <r_i_glide_einternal>  (335) 
2.07775

>  <r_i_glide_intrahb_reward>  (335) 
-0

>  <i_i_glide_confnum>  (335) 
6

>  <i_i_glide_posenum>  (335) 
27

>  <r_i_glide_eff_state_penalty>  (335) 
0

>  <ligand_id>  (335) 
105

>  <original_smiles>  (335) 
Cn1cc(CN2CC3ONc4c(nnn4C)C3C2)cn1

>  <smiles>  (335) 
[H]c1nn(C([H])([H])[H])c([H])c1C([H])([H])N1C([H])([H])C2([H])O[N-]c3c(nnn3C([H])([H])[H])C2([H])C1([H])[H]

$$$$
105:3:1
     RDKit          3D

 36 39  0  0  1  0  0  0  0  0999 V2000
    2.2693   -2.5903   -3.9444 C   0  0  0  0  0  0  0  0  0  0  0  0
    3.4168   -2.8650   -3.1256 N   0  0  0  0  0  0  0  0  0  0  0  0
    3.3722   -3.2929   -1.8397 C   0  0  0  0  0  0  0  0  0  0  0  0
    4.6513   -3.5077   -1.4048 C   0  0  0  0  0  0  0  0  0  0  0  0
    5.1610   -4.0625   -0.0751 C   0  0  0  0  0  0  0  0  0  0  0  0
    4.1534   -4.1091    0.9894 N   0  0  0  0  0  0  0  0  0  0  0  0
    4.6901   -4.5538    2.2888 C   0  0  0  0  0  0  0  0  0  0  0  0
    3.6034   -5.4543    2.9197 C   0  0  2  0  0  0  0  0  0  0  0  0
    4.0582   -6.8248    2.9113 O   0  0  0  0  0  0  0  0  0  0  0  0
    3.0082   -7.7514    3.2441 N   0  0  0  0  0  0  0  0  0  0  0  0
    1.8116   -7.5246    2.6241 C   0  0  0  0  0  0  0  0  0  0  0  0
    1.4605   -6.3853    2.0274 C   0  0  0  0  0  0  0  0  0  0  0  0
    0.1562   -6.5145    1.5254 N   0  0  0  0  0  0  0  0  0  0  0  0
   -0.2811   -7.7067    1.8500 N   0  0  0  0  0  0  0  0  0  0  0  0
    0.7148   -8.3589    2.5228 N   0  0  0  0  0  0  0  0  0  0  0  0
    0.5138   -9.7007    3.0009 C   0  0  0  0  0  0  0  0  0  0  0  0
    2.3860   -5.2338    2.0028 C   0  0  2  0  0  0  0  0  0  0  0  0
    3.0521   -5.0142    0.6804 C   0  0  0  0  0  0  0  0  0  0  0  0
    5.4237   -3.1022   -2.5386 C   0  0  0  0  0  0  0  0  0  0  0  0
    4.6764   -2.7211   -3.5683 N   0  0  0  0  0  0  0  0  0  0  0  0
    1.3647   -2.6599   -3.3392 H   0  0  0  0  0  0  0  0  0  0  0  0
    2.1821   -3.3491   -4.7209 H   0  0  0  0  0  0  0  0  0  0  0  0
    2.3346   -1.5855   -4.3505 H   0  0  0  0  0  0  0  0  0  0  0  0
    2.3863   -3.4162   -1.4315 H   0  0  0  0  0  0  0  0  0  0  0  0
    5.5908   -5.0600   -0.1991 H   0  0  0  0  0  0  0  0  0  0  0  0
    6.0110   -3.4705    0.2606 H   0  0  0  0  0  0  0  0  0  0  0  0
    5.6366   -5.0932    2.2104 H   0  0  0  0  0  0  0  0  0  0  0  0
    4.8599   -3.6745    2.9212 H   0  0  0  0  0  0  0  0  0  0  0  0
    3.3574   -5.1613    3.9436 H   0  0  0  0  0  0  0  0  0  0  0  0
    1.2122   -9.9281    3.8075 H   0  0  0  0  0  0  0  0  0  0  0  0
    0.6746  -10.4040    2.1830 H   0  0  0  0  0  0  0  0  0  0  0  0
   -0.5060   -9.8250    3.3776 H   0  0  0  0  0  0  0  0  0  0  0  0
    1.8715   -4.3161    2.2893 H   0  0  0  0  0  0  0  0  0  0  0  0
    2.2592   -4.5861    0.0982 H   0  0  0  0  0  0  0  0  0  0  0  0
    3.4273   -5.9334    0.2311 H   0  0  0  0  0  0  0  0  0  0  0  0
    6.5005   -3.0836   -2.6564 H   0  0  0  0  0  0  0  0  0  0  0  0
  1  2  1  0
  1 21  1  0
  1 22  1  0
  1 23  1  0
  2 20  1  0
  2  3  1  0
  3  4  2  0
  3 24  1  0
  4  5  1  0
  4 19  1  0
  5  6  1  0
  5 25  1  0
  5 26  1  0
  6 18  1  0
  6  7  1  0
  7  8  1  0
  7 27  1  0
  7 28  1  0
  8 17  1  0
  8  9  1  0
  8 29  1  1
  9 10  1  0
 10 11  1  0
 11 15  1  0
 11 12  2  0
 12 13  1  0
 12 17  1  0
 13 14  2  0
 14 15  1  0
 15 16  1  0
 16 30  1  0
 16 31  1  0
 16 32  1  0
 17 18  1  0
 17 33  1  1
 18 34  1  0
 18 35  1  0
 19 20  2  0
 19 36  1  0
M  CHG  1  10  -1
M  END
>  <i_m_ct_stereo_status>  (336) 
1

>  <s_m_source_file>  (336) 
/var/tmp/pbs.5076255.sched01/tmpr9sv22dd/120oksnzf6p.sdf

>  <i_m_source_file_index>  (336) 
23

>  <i_lp_mmshare_version>  (336) 
48012

>  <i_f3d_flags>  (336) 
0

>  <s_epik_input>  (336) 
W0NIM11uMVtjSF1jKFtjSF1uMSlbQ0gyXU4oW0NIMl0yKVtDSDJdW0NASF0oW0NASF0yMyljNGMoW05IXU8zKW4obm40KVtDSDNd

>  <s_epik_cmdline>  (336) 
J2VwaWtfcHl0aG9uJywgJy1waHQnLCAnMi4wJywgJy1waCcsICc3LjAnLCAnLXRuJywgJzgnLCAnLW1hJywgJzIwMCcsICctaW1hZScsICc8aW5maWxlLm1hZT4nLCAnLW9tYWUnLCAnPG91dGZpbGUubWFlPic=

>  <r_lp_tautomer_probability>  (336) 
1

>  <r_epik_Ionization_Penalty>  (336) 
2.81952

>  <r_epik_Ionization_Penalty_Charging>  (336) 
2.33207

>  <r_epik_Ionization_Penalty_Neutral>  (336) 
0.487454

>  <r_epik_State_Penalty>  (336) 
2.53968

>  <r_epik_Charging_Adjusted_Penalty>  (336) 
4.87175

>  <i_epik_Tot_Q>  (336) 
-1

>  <i_epik_Tot_abs_Q>  (336) 
1

>  <s_lp_Force_Field>  (336) 
OPLS3e

>  <r_lp_Energy>  (336) 
25.1246

>  <b_lp_Chiralities_Consistent>  (336) 
1

>  <s_lp_Variant>  (336) 
105:0-4

>  <s_i_glide_gridfile>  (336) 
pfpi4k_grid

>  <i_i_glide_lignum>  (336) 
23

>  <i_i_glide_rotatable_bonds>  (336) 
2

>  <r_i_docking_score>  (336) 
-3.77213

>  <r_i_glide_ligand_efficiency>  (336) 
-0.188607

>  <r_i_glide_ligand_efficiency_sa>  (336) 
-0.511957

>  <r_i_glide_ligand_efficiency_ln>  (336) 
-0.944041

>  <r_i_glide_gscore>  (336) 
-3.77213

>  <r_i_glide_lipo>  (336) 
-0.472026

>  <r_i_glide_hbond>  (336) 
0

>  <r_i_glide_metal>  (336) 
-0

>  <r_i_glide_rewards>  (336) 
-1.63349

>  <r_i_glide_evdw>  (336) 
-24.2487

>  <r_i_glide_ecoul>  (336) 
-4.79603

>  <r_i_glide_erotb>  (336) 
0.47725

>  <r_i_glide_esite>  (336) 
-0.212025

>  <r_i_glide_emodel>  (336) 
-36.1936

>  <r_i_glide_energy>  (336) 
-29.0448

>  <r_i_glide_einternal>  (336) 
1.11266

>  <r_i_glide_intrahb_reward>  (336) 
-0

>  <i_i_glide_confnum>  (336) 
6

>  <i_i_glide_posenum>  (336) 
33

>  <r_i_glide_eff_state_penalty>  (336) 
0

>  <ligand_id>  (336) 
105

>  <original_smiles>  (336) 
Cn1cc(CN2CC3ONc4c(nnn4C)C3C2)cn1

>  <smiles>  (336) 
[H]c1nn(C([H])([H])[H])c([H])c1C([H])([H])N1C([H])([H])C2([H])O[N-]c3c(nnn3C([H])([H])[H])C2([H])C1([H])[H]

$$$$
105:3:2
     RDKit          3D

 36 39  0  0  1  0  0  0  0  0999 V2000
    1.0296   -7.9268    1.7781 C   0  0  0  0  0  0  0  0  0  0  0  0
    2.1800   -7.1946    2.2556 N   0  0  0  0  0  0  0  0  0  0  0  0
    2.9843   -6.4064    1.4839 C   0  0  0  0  0  0  0  0  0  0  0  0
    3.9499   -5.8573    2.2810 C   0  0  0  0  0  0  0  0  0  0  0  0
    5.0777   -4.8696    1.9425 C   0  0  0  0  0  0  0  0  0  0  0  0
    5.4358   -4.8077    0.5189 N   0  0  0  0  0  0  0  0  0  0  0  0
    6.5949   -3.9337    0.2402 C   0  0  0  0  0  0  0  0  0  0  0  0
    6.2718   -3.1877   -1.0856 C   0  0  2  0  0  0  0  0  0  0  0  0
    6.0417   -1.7893   -0.8052 O   0  0  0  0  0  0  0  0  0  0  0  0
    5.4215   -1.0872   -1.8943 N   0  0  0  0  0  0  0  0  0  0  0  0
    4.4411   -1.7498   -2.5648 C   0  0  0  0  0  0  0  0  0  0  0  0
    4.1884   -3.0572   -2.4733 C   0  0  0  0  0  0  0  0  0  0  0  0
    3.1325   -3.3803   -3.3328 N   0  0  0  0  0  0  0  0  0  0  0  0
    2.7391   -2.2841   -3.9230 N   0  0  0  0  0  0  0  0  0  0  0  0
    3.5454   -1.2759   -3.5012 N   0  0  0  0  0  0  0  0  0  0  0  0
    3.3848    0.0536   -4.0415 C   0  0  0  0  0  0  0  0  0  0  0  0
    5.0179   -3.9100   -1.5987 C   0  0  2  0  0  0  0  0  0  0  0  0
    4.3336   -4.3138   -0.3178 C   0  0  0  0  0  0  0  0  0  0  0  0
    3.6455   -6.4208    3.5684 C   0  0  0  0  0  0  0  0  0  0  0  0
    2.5742   -7.2089    3.5530 N   0  0  0  0  0  0  0  0  0  0  0  0
    1.0040   -7.8585    0.6839 H   0  0  0  0  0  0  0  0  0  0  0  0
    0.1158   -7.4776    2.1539 H   0  0  0  0  0  0  0  0  0  0  0  0
    1.1094   -8.9744    2.0419 H   0  0  0  0  0  0  0  0  0  0  0  0
    2.7310   -6.3358    0.4351 H   0  0  0  0  0  0  0  0  0  0  0  0
    4.8403   -3.8661    2.2894 H   0  0  0  0  0  0  0  0  0  0  0  0
    5.9604   -5.1217    2.5127 H   0  0  0  0  0  0  0  0  0  0  0  0
    6.7989   -3.2237    1.0407 H   0  0  0  0  0  0  0  0  0  0  0  0
    7.4834   -4.5626    0.1184 H   0  0  0  0  0  0  0  0  0  0  0  0
    7.0734   -3.2841   -1.8218 H   0  0  0  0  0  0  0  0  0  0  0  0
    4.2827    0.6496   -3.8802 H   0  0  0  0  0  0  0  0  0  0  0  0
    2.5541    0.5333   -3.5352 H   0  0  0  0  0  0  0  0  0  0  0  0
    3.1592    0.0003   -5.1098 H   0  0  0  0  0  0  0  0  0  0  0  0
    5.2822   -4.8289   -2.1056 H   0  0  0  0  0  0  0  0  0  0  0  0
    3.6449   -5.0534   -0.6568 H   0  0  0  0  0  0  0  0  0  0  0  0
    3.8473   -3.4472    0.1742 H   0  0  0  0  0  0  0  0  0  0  0  0
    4.1501   -6.2751    4.5130 H   0  0  0  0  0  0  0  0  0  0  0  0
  1  2  1  0
  1 21  1  0
  1 22  1  0
  1 23  1  0
  2 20  1  0
  2  3  1  0
  3  4  2  0
  3 24  1  0
  4  5  1  0
  4 19  1  0
  5  6  1  0
  5 25  1  0
  5 26  1  0
  6 18  1  0
  6  7  1  0
  7  8  1  0
  7 27  1  0
  7 28  1  0
  8 17  1  0
  8  9  1  0
  8 29  1  6
  9 10  1  0
 10 11  1  0
 11 15  1  0
 11 12  2  0
 12 13  1  0
 12 17  1  0
 13 14  2  0
 14 15  1  0
 15 16  1  0
 16 30  1  0
 16 31  1  0
 16 32  1  0
 17 18  1  0
 17 33  1  6
 18 34  1  0
 18 35  1  0
 19 20  2  0
 19 36  1  0
M  CHG  1  10  -1
M  END
>  <i_m_ct_stereo_status>  (337) 
1

>  <s_m_source_file>  (337) 
/var/tmp/pbs.5076255.sched01/tmpr9sv22dd/120oksnzf6p.sdf

>  <i_m_source_file_index>  (337) 
23

>  <i_lp_mmshare_version>  (337) 
48012

>  <i_f3d_flags>  (337) 
0

>  <s_epik_input>  (337) 
W0NIM11uMVtjSF1jKFtjSF1uMSlbQ0gyXU4oW0NIMl0yKVtDSDJdW0NASF0oW0NASF0yMyljNGMoW05IXU8zKW4obm40KVtDSDNd

>  <s_epik_cmdline>  (337) 
J2VwaWtfcHl0aG9uJywgJy1waHQnLCAnMi4wJywgJy1waCcsICc3LjAnLCAnLXRuJywgJzgnLCAnLW1hJywgJzIwMCcsICctaW1hZScsICc8aW5maWxlLm1hZT4nLCAnLW9tYWUnLCAnPG91dGZpbGUubWFlPic=

>  <r_lp_tautomer_probability>  (337) 
1

>  <r_epik_Ionization_Penalty>  (337) 
2.81952

>  <r_epik_Ionization_Penalty_Charging>  (337) 
2.33207

>  <r_epik_Ionization_Penalty_Neutral>  (337) 
0.487454

>  <r_epik_State_Penalty>  (337) 
2.53968

>  <r_epik_Charging_Adjusted_Penalty>  (337) 
4.87175

>  <i_epik_Tot_Q>  (337) 
-1

>  <i_epik_Tot_abs_Q>  (337) 
1

>  <s_lp_Force_Field>  (337) 
OPLS3e

>  <r_lp_Energy>  (337) 
25.1246

>  <b_lp_Chiralities_Consistent>  (337) 
1

>  <s_lp_Variant>  (337) 
105:0-4

>  <s_i_glide_gridfile>  (337) 
pfpi4k_grid

>  <i_i_glide_lignum>  (337) 
23

>  <i_i_glide_rotatable_bonds>  (337) 
2

>  <r_i_docking_score>  (337) 
-3.02613

>  <r_i_glide_ligand_efficiency>  (337) 
-0.151307

>  <r_i_glide_ligand_efficiency_sa>  (337) 
-0.410709

>  <r_i_glide_ligand_efficiency_ln>  (337) 
-0.757341

>  <r_i_glide_gscore>  (337) 
-3.02613

>  <r_i_glide_lipo>  (337) 
-0.361206

>  <r_i_glide_hbond>  (337) 
0

>  <r_i_glide_metal>  (337) 
-0

>  <r_i_glide_rewards>  (337) 
-1.7983

>  <r_i_glide_evdw>  (337) 
-24.2413

>  <r_i_glide_ecoul>  (337) 
-0.0867541

>  <r_i_glide_erotb>  (337) 
0.47725

>  <r_i_glide_esite>  (337) 
-0.118802

>  <r_i_glide_emodel>  (337) 
-29.6498

>  <r_i_glide_energy>  (337) 
-24.328

>  <r_i_glide_einternal>  (337) 
0.932587

>  <r_i_glide_intrahb_reward>  (337) 
-0

>  <i_i_glide_confnum>  (337) 
6

>  <i_i_glide_posenum>  (337) 
6

>  <r_i_glide_eff_state_penalty>  (337) 
0

>  <ligand_id>  (337) 
105

>  <original_smiles>  (337) 
Cn1cc(CN2CC3ONc4c(nnn4C)C3C2)cn1

>  <smiles>  (337) 
[H]c1nn(C([H])([H])[H])c([H])c1C([H])([H])N1C([H])([H])C2([H])O[N-]c3c(nnn3C([H])([H])[H])C2([H])C1([H])[H]

$$$$
106:0:0
     RDKit          3D

 46 50  0  0  1  0  0  0  0  0999 V2000
    4.7300   -3.4743   -3.1323 C   0  0  0  0  0  0  0  0  0  0  0  0
    3.8599   -2.3205   -2.5938 C   0  0  0  0  0  0  0  0  0  0  0  0
    3.9630   -1.1602   -3.6091 C   0  0  0  0  0  0  0  0  0  0  0  0
    2.3936   -2.7592   -2.5729 C   0  0  0  0  0  0  0  0  0  0  0  0
    1.9635   -3.6528   -1.3898 C   0  0  0  0  0  0  0  0  0  0  0  0
    2.4023   -3.1302   -0.0133 C   0  0  0  0  0  0  0  0  0  0  0  0
    3.8752   -2.7302    0.0511 C   0  0  1  0  0  0  0  0  0  0  0  0
    4.7541   -4.0125    0.0613 C   0  0  0  0  0  0  0  0  0  0  0  0
    4.2306   -1.8139   -1.1598 C   0  0  1  0  0  0  0  0  0  0  0  0
    5.6621   -1.2317   -1.0384 C   0  0  0  0  0  0  0  0  0  0  0  0
    6.2571   -1.0062    0.3869 C   0  0  0  0  0  0  0  0  0  0  0  0
    5.1907   -0.9397    1.4733 C   0  0  2  0  0  0  0  0  0  0  0  0
    4.0527    0.0283    1.1713 C   0  0  0  0  0  0  0  0  0  0  0  0
    3.2074   -0.7985    1.7752 C   0  0  0  0  0  0  0  0  0  0  0  0
    3.1465   -0.6377    3.1524 O   0  0  0  0  0  0  0  0  0  0  0  0
    4.4326   -0.6108    3.8514 C   0  0  2  0  0  0  0  0  0  0  0  0
    4.3770   -1.0386    5.3097 C   0  0  0  0  0  0  0  0  0  0  0  0
    5.2372    0.5259    3.5738 O   0  0  0  0  0  0  0  0  0  0  0  0
    5.6259   -0.6803    2.9067 C   0  0  2  0  0  0  0  0  0  0  0  0
    4.1058   -1.9950    1.3957 C   0  0  1  0  0  0  0  0  0  0  0  0
    4.6977   -3.5380   -4.2239 H   0  0  0  0  0  0  0  0  0  0  0  0
    4.3417   -4.4260   -2.7919 H   0  0  0  0  0  0  0  0  0  0  0  0
    5.7741   -3.4390   -2.8137 H   0  0  0  0  0  0  0  0  0  0  0  0
    3.4209   -0.2798   -3.2666 H   0  0  0  0  0  0  0  0  0  0  0  0
    3.5492   -1.4370   -4.5797 H   0  0  0  0  0  0  0  0  0  0  0  0
    5.0004   -0.8701   -3.7609 H   0  0  0  0  0  0  0  0  0  0  0  0
    1.8405   -1.8362   -2.4709 H   0  0  0  0  0  0  0  0  0  0  0  0
    2.0742   -3.1679   -3.5291 H   0  0  0  0  0  0  0  0  0  0  0  0
    0.8810   -3.7488   -1.4457 H   0  0  0  0  0  0  0  0  0  0  0  0
    2.3305   -4.6407   -1.4143 H   0  0  0  0  0  0  0  0  0  0  0  0
    1.8113   -2.2710    0.2808 H   0  0  0  0  0  0  0  0  0  0  0  0
    2.2159   -3.9042    0.7414 H   0  0  0  0  0  0  0  0  0  0  0  0
    5.8050   -3.8021   -0.1265 H   0  0  0  0  0  0  0  0  0  0  0  0
    4.4426   -4.7356   -0.6829 H   0  0  0  0  0  0  0  0  0  0  0  0
    4.6887   -4.5346    1.0155 H   0  0  0  0  0  0  0  0  0  0  0  0
    3.5552   -0.9575   -1.0592 H   0  0  0  0  0  0  0  0  0  0  0  0
    6.3821   -1.7494   -1.6684 H   0  0  0  0  0  0  0  0  0  0  0  0
    5.5612   -0.2623   -1.4948 H   0  0  0  0  0  0  0  0  0  0  0  0
    6.9330   -1.8340    0.5988 H   0  0  0  0  0  0  0  0  0  0  0  0
    6.8814   -0.1157    0.4172 H   0  0  0  0  0  0  0  0  0  0  0  0
    4.0996    1.1072    1.2201 H   0  0  0  0  0  0  0  0  0  0  0  0
    3.7450   -0.3467    5.8533 H   0  0  0  0  0  0  0  0  0  0  0  0
    5.3626   -1.0304    5.7673 H   0  0  0  0  0  0  0  0  0  0  0  0
    3.9514   -2.0327    5.3915 H   0  0  0  0  0  0  0  0  0  0  0  0
    6.4915   -1.2083    3.2625 H   0  0  0  0  0  0  0  0  0  0  0  0
    4.2130   -2.6996    2.2235 H   0  0  0  0  0  0  0  0  0  0  0  0
  1  2  1  0
  1 21  1  0
  1 22  1  0
  1 23  1  0
  2  9  1  0
  2  3  1  0
  2  4  1  0
  3 24  1  0
  3 25  1  0
  3 26  1  0
  4  5  1  0
  4 27  1  0
  4 28  1  0
  5  6  1  0
  5 29  1  0
  5 30  1  0
  6  7  1  0
  6 31  1  0
  6 32  1  0
  7 20  1  0
  7  8  1  1
  7  9  1  0
  8 33  1  0
  8 34  1  0
  8 35  1  0
  9 10  1  0
  9 36  1  1
 10 11  1  0
 10 37  1  0
 10 38  1  0
 12 11  1  6
 11 39  1  0
 11 40  1  0
 12 19  1  0
 12 20  1  0
 12 13  1  0
 13 14  2  0
 13 41  1  0
 14 15  1  0
 14 20  1  0
 15 16  1  0
 16 19  1  0
 16 17  1  1
 16 18  1  0
 17 42  1  0
 17 43  1  0
 17 44  1  0
 18 19  1  0
 19 45  1  1
 20 46  1  1
M  END
>  <i_m_ct_stereo_status>  (338) 
1

>  <s_m_source_file>  (338) 
/var/tmp/pbs.5076255.sched01/tmpr9sv22dd/120oksnzf6p.sdf

>  <i_m_source_file_index>  (338) 
24

>  <i_lp_mmshare_version>  (338) 
48012

>  <i_f3d_flags>  (338) 
1

>  <s_epik_input>  (338) 
W0NIMl0xW0NIMl1bQ0gyXUMoW0NIM10pKFtDSDNdKVtDQEhdKFtDSDJdW0NIMl0yKVtDQEBdMShbQ0gzXSlbQ0BASF0zQyg9W0NIXTQpT1tDQEBdKE81KShbQ0gzXSlbQ0BIXTVbQ0BAXTIzNA==

>  <s_epik_cmdline>  (338) 
J2VwaWtfcHl0aG9uJywgJy1waHQnLCAnMi4wJywgJy1waCcsICc3LjAnLCAnLXRuJywgJzgnLCAnLW1hJywgJzIwMCcsICctaW1hZScsICc8aW5maWxlLm1hZT4nLCAnLW9tYWUnLCAnPG91dGZpbGUubWFlPic=

>  <r_lp_tautomer_probability>  (338) 
1

>  <r_epik_Ionization_Penalty>  (338) 
2.24833e-13

>  <r_epik_Ionization_Penalty_Charging>  (338) 
0

>  <r_epik_Ionization_Penalty_Neutral>  (338) 
2.24833e-13

>  <r_epik_State_Penalty>  (338) 
-0

>  <r_epik_Charging_Adjusted_Penalty>  (338) 
0

>  <i_epik_Tot_Q>  (338) 
0

>  <i_epik_Tot_abs_Q>  (338) 
0

>  <s_lp_Force_Field>  (338) 
OPLS3e

>  <r_lp_Energy>  (338) 
109.253

>  <b_lp_Chiralities_Consistent>  (338) 
1

>  <s_lp_Variant>  (338) 
106:0-1

>  <s_i_glide_gridfile>  (338) 
pfpi4k_grid

>  <i_i_glide_lignum>  (338) 
24

>  <i_i_glide_rotatable_bonds>  (338) 
0

>  <r_i_docking_score>  (338) 
-3.17217

>  <r_i_glide_ligand_efficiency>  (338) 
-0.158608

>  <r_i_glide_ligand_efficiency_sa>  (338) 
-0.430529

>  <r_i_glide_ligand_efficiency_ln>  (338) 
-0.793888

>  <r_i_glide_gscore>  (338) 
-3.17217

>  <r_i_glide_lipo>  (338) 
-0.808761

>  <r_i_glide_hbond>  (338) 
-0.0312131

>  <r_i_glide_metal>  (338) 
-0

>  <r_i_glide_rewards>  (338) 
-1.59628

>  <r_i_glide_evdw>  (338) 
-13.283

>  <r_i_glide_ecoul>  (338) 
-0.47839

>  <r_i_glide_erotb>  (338) 
0

>  <r_i_glide_esite>  (338) 
0

>  <r_i_glide_emodel>  (338) 
-17.3019

>  <r_i_glide_energy>  (338) 
-13.7614

>  <r_i_glide_einternal>  (338) 
0

>  <r_i_glide_intrahb_reward>  (338) 
-0

>  <i_i_glide_confnum>  (338) 
1

>  <i_i_glide_posenum>  (338) 
6

>  <r_i_glide_eff_state_penalty>  (338) 
0

>  <ligand_id>  (338) 
106

>  <original_smiles>  (338) 
CC1(C)CCCC2(C)C1CCC13C=C(OC4(C)OC41)C23

>  <smiles>  (338) 
[H]C1=C2OC3(C([H])([H])[H])OC3([H])C13C([H])([H])C([H])([H])C1([H])C(C([H])([H])[H])(C([H])([H])[H])C([H])([H])C([H])([H])C([H])([H])C1(C([H])([H])[H])C23[H]

$$$$
106:0:1
     RDKit          3D

 46 50  0  0  1  0  0  0  0  0999 V2000
    6.5812   -2.6044   -0.1015 C   0  0  0  0  0  0  0  0  0  0  0  0
    5.2928   -2.2397    0.6862 C   0  0  0  0  0  0  0  0  0  0  0  0
    5.6865   -1.1532    1.7111 C   0  0  0  0  0  0  0  0  0  0  0  0
    4.2487   -1.6079   -0.2701 C   0  0  0  0  0  0  0  0  0  0  0  0
    3.5811   -2.6200   -1.2124 C   0  0  0  0  0  0  0  0  0  0  0  0
    2.9240   -3.7661   -0.4312 C   0  0  0  0  0  0  0  0  0  0  0  0
    3.8780   -4.4898    0.5459 C   0  0  1  0  0  0  0  0  0  0  0  0
    4.9043   -5.3324   -0.2637 C   0  0  0  0  0  0  0  0  0  0  0  0
    4.6059   -3.4332    1.4401 C   0  0  1  0  0  0  0  0  0  0  0  0
    5.4439   -4.0687    2.6042 C   0  0  0  0  0  0  0  0  0  0  0  0
    5.0212   -5.4683    3.1446 C   0  0  0  0  0  0  0  0  0  0  0  0
    3.5641   -5.8015    2.8346 C   0  0  2  0  0  0  0  0  0  0  0  0
    2.6021   -4.6926    3.2659 C   0  0  0  0  0  0  0  0  0  0  0  0
    1.8351   -4.9934    2.2021 C   0  0  0  0  0  0  0  0  0  0  0  0
    0.9406   -6.0182    2.4214 O   0  0  0  0  0  0  0  0  0  0  0  0
    1.4958   -7.2166    3.0485 C   0  0  2  0  0  0  0  0  0  0  0  0
    0.7193   -8.4908    2.7581 C   0  0  0  0  0  0  0  0  0  0  0  0
    1.9746   -7.0388    4.3866 O   0  0  0  0  0  0  0  0  0  0  0  0
    2.9853   -7.1094    3.3633 C   0  0  2  0  0  0  0  0  0  0  0  0
    3.0725   -5.4833    1.4288 C   0  0  1  0  0  0  0  0  0  0  0  0
    7.2318   -1.7368   -0.2287 H   0  0  0  0  0  0  0  0  0  0  0  0
    6.3725   -2.9541   -1.1096 H   0  0  0  0  0  0  0  0  0  0  0  0
    7.1744   -3.3778    0.3870 H   0  0  0  0  0  0  0  0  0  0  0  0
    4.8389   -0.8764    2.3362 H   0  0  0  0  0  0  0  0  0  0  0  0
    6.0301   -0.2451    1.2146 H   0  0  0  0  0  0  0  0  0  0  0  0
    6.4888   -1.4836    2.3723 H   0  0  0  0  0  0  0  0  0  0  0  0
    3.4653   -1.1366    0.3247 H   0  0  0  0  0  0  0  0  0  0  0  0
    4.7005   -0.8052   -0.8523 H   0  0  0  0  0  0  0  0  0  0  0  0
    2.8054   -2.1089   -1.7835 H   0  0  0  0  0  0  0  0  0  0  0  0
    4.2863   -2.9992   -1.9492 H   0  0  0  0  0  0  0  0  0  0  0  0
    2.0958   -3.3381    0.1300 H   0  0  0  0  0  0  0  0  0  0  0  0
    2.4867   -4.4852   -1.1153 H   0  0  0  0  0  0  0  0  0  0  0  0
    5.7550   -5.6535    0.3375 H   0  0  0  0  0  0  0  0  0  0  0  0
    5.3109   -4.8012   -1.1175 H   0  0  0  0  0  0  0  0  0  0  0  0
    4.4579   -6.2317   -0.6871 H   0  0  0  0  0  0  0  0  0  0  0  0
    3.7894   -2.9150    1.9469 H   0  0  0  0  0  0  0  0  0  0  0  0
    6.5039   -4.0944    2.3588 H   0  0  0  0  0  0  0  0  0  0  0  0
    5.3596   -3.3770    3.4411 H   0  0  0  0  0  0  0  0  0  0  0  0
    5.6554   -6.2152    2.6641 H   0  0  0  0  0  0  0  0  0  0  0  0
    5.2295   -5.5540    4.2151 H   0  0  0  0  0  0  0  0  0  0  0  0
    2.3066   -4.4563    4.2750 H   0  0  0  0  0  0  0  0  0  0  0  0
   -0.2884   -8.4047    3.1596 H   0  0  0  0  0  0  0  0  0  0  0  0
    1.1946   -9.3669    3.1942 H   0  0  0  0  0  0  0  0  0  0  0  0
    0.6433   -8.6285    1.6818 H   0  0  0  0  0  0  0  0  0  0  0  0
    3.5591   -8.0289    3.2709 H   0  0  0  0  0  0  0  0  0  0  0  0
    2.8775   -6.4160    0.8953 H   0  0  0  0  0  0  0  0  0  0  0  0
  1  2  1  0
  1 21  1  0
  1 22  1  0
  1 23  1  0
  2  9  1  0
  2  3  1  0
  2  4  1  0
  3 24  1  0
  3 25  1  0
  3 26  1  0
  4  5  1  0
  4 27  1  0
  4 28  1  0
  5  6  1  0
  5 29  1  0
  5 30  1  0
  6  7  1  0
  6 31  1  0
  6 32  1  0
  7 20  1  0
  7  8  1  6
  7  9  1  0
  8 33  1  0
  8 34  1  0
  8 35  1  0
  9 10  1  0
  9 36  1  1
 10 11  1  0
 10 37  1  0
 10 38  1  0
 12 11  1  6
 11 39  1  0
 11 40  1  0
 12 19  1  0
 12 20  1  0
 12 13  1  0
 13 14  2  0
 13 41  1  0
 14 15  1  0
 14 20  1  0
 15 16  1  0
 16 19  1  0
 16 17  1  1
 16 18  1  0
 17 42  1  0
 17 43  1  0
 17 44  1  0
 18 19  1  0
 19 45  1  1
 20 46  1  6
M  END
>  <i_m_ct_stereo_status>  (339) 
1

>  <s_m_source_file>  (339) 
/var/tmp/pbs.5076255.sched01/tmpr9sv22dd/120oksnzf6p.sdf

>  <i_m_source_file_index>  (339) 
24

>  <i_lp_mmshare_version>  (339) 
48012

>  <i_f3d_flags>  (339) 
1

>  <s_epik_input>  (339) 
W0NIMl0xW0NIMl1bQ0gyXUMoW0NIM10pKFtDSDNdKVtDQEhdKFtDSDJdW0NIMl0yKVtDQEBdMShbQ0gzXSlbQ0BASF0zQyg9W0NIXTQpT1tDQEBdKE81KShbQ0gzXSlbQ0BIXTVbQ0BAXTIzNA==

>  <s_epik_cmdline>  (339) 
J2VwaWtfcHl0aG9uJywgJy1waHQnLCAnMi4wJywgJy1waCcsICc3LjAnLCAnLXRuJywgJzgnLCAnLW1hJywgJzIwMCcsICctaW1hZScsICc8aW5maWxlLm1hZT4nLCAnLW9tYWUnLCAnPG91dGZpbGUubWFlPic=

>  <r_lp_tautomer_probability>  (339) 
1

>  <r_epik_Ionization_Penalty>  (339) 
2.24833e-13

>  <r_epik_Ionization_Penalty_Charging>  (339) 
0

>  <r_epik_Ionization_Penalty_Neutral>  (339) 
2.24833e-13

>  <r_epik_State_Penalty>  (339) 
-0

>  <r_epik_Charging_Adjusted_Penalty>  (339) 
0

>  <i_epik_Tot_Q>  (339) 
0

>  <i_epik_Tot_abs_Q>  (339) 
0

>  <s_lp_Force_Field>  (339) 
OPLS3e

>  <r_lp_Energy>  (339) 
109.253

>  <b_lp_Chiralities_Consistent>  (339) 
1

>  <s_lp_Variant>  (339) 
106:0-1

>  <s_i_glide_gridfile>  (339) 
pfpi4k_grid

>  <i_i_glide_lignum>  (339) 
24

>  <i_i_glide_rotatable_bonds>  (339) 
0

>  <r_i_docking_score>  (339) 
-2.94389

>  <r_i_glide_ligand_efficiency>  (339) 
-0.147195

>  <r_i_glide_ligand_efficiency_sa>  (339) 
-0.399547

>  <r_i_glide_ligand_efficiency_ln>  (339) 
-0.736759

>  <r_i_glide_gscore>  (339) 
-2.94389

>  <r_i_glide_lipo>  (339) 
-0.259793

>  <r_i_glide_hbond>  (339) 
-0.010038

>  <r_i_glide_metal>  (339) 
-0

>  <r_i_glide_rewards>  (339) 
-1.5382

>  <r_i_glide_evdw>  (339) 
-19.11

>  <r_i_glide_ecoul>  (339) 
-1.09147

>  <r_i_glide_erotb>  (339) 
0

>  <r_i_glide_esite>  (339) 
-0.016642

>  <r_i_glide_emodel>  (339) 
-23.8503

>  <r_i_glide_energy>  (339) 
-20.2015

>  <r_i_glide_einternal>  (339) 
0

>  <r_i_glide_intrahb_reward>  (339) 
-0

>  <i_i_glide_confnum>  (339) 
2

>  <i_i_glide_posenum>  (339) 
29

>  <r_i_glide_eff_state_penalty>  (339) 
0

>  <ligand_id>  (339) 
106

>  <original_smiles>  (339) 
CC1(C)CCCC2(C)C1CCC13C=C(OC4(C)OC41)C23

>  <smiles>  (339) 
[H]C1=C2OC3(C([H])([H])[H])OC3([H])C13C([H])([H])C([H])([H])C1([H])C(C([H])([H])[H])(C([H])([H])[H])C([H])([H])C([H])([H])C([H])([H])C1(C([H])([H])[H])C23[H]

$$$$
106:0:2
     RDKit          3D

 46 50  0  0  1  0  0  0  0  0999 V2000
    4.6159   -2.6684   -3.7940 C   0  0  0  0  0  0  0  0  0  0  0  0
    3.8275   -1.7638   -2.8566 C   0  0  0  0  0  0  0  0  0  0  0  0
    3.9455   -0.3133   -3.3680 C   0  0  0  0  0  0  0  0  0  0  0  0
    2.3742   -2.1568   -2.9772 C   0  0  0  0  0  0  0  0  0  0  0  0
    1.9584   -3.4349   -2.2823 C   0  0  0  0  0  0  0  0  0  0  0  0
    2.4095   -3.4861   -0.8145 C   0  0  0  0  0  0  0  0  0  0  0  0
    3.8904   -3.1474   -0.6002 C   0  0  1  0  0  0  0  0  0  0  0  0
    4.7773   -4.3097   -1.1098 C   0  0  0  0  0  0  0  0  0  0  0  0
    4.2459   -1.8321   -1.3525 C   0  0  1  0  0  0  0  0  0  0  0  0
    5.6974   -1.3462   -1.0454 C   0  0  0  0  0  0  0  0  0  0  0  0
    6.3304   -1.7034    0.3229 C   0  0  0  0  0  0  0  0  0  0  0  0
    5.2600   -2.0523    1.3503 C   0  0  2  0  0  0  0  0  0  0  0  0
    4.1424   -1.0318    1.5051 C   0  0  0  0  0  0  0  0  0  0  0  0
    3.2967   -2.0367    1.7537 C   0  0  0  0  0  0  0  0  0  0  0  0
    3.2398   -2.4765    3.0735 O   0  0  0  0  0  0  0  0  0  0  0  0
    4.5481   -2.6941    3.6917 C   0  0  2  0  0  0  0  0  0  0  0  0
    4.5601   -3.6661    4.8580 C   0  0  0  0  0  0  0  0  0  0  0  0
    5.3807   -1.5385    3.8386 O   0  0  0  0  0  0  0  0  0  0  0  0
    5.7171   -2.3987    2.7349 C   0  0  2  0  0  0  0  0  0  0  0  0
    4.1604   -2.9963    0.9108 C   0  0  1  0  0  0  0  0  0  0  0  0
    4.5738   -2.2087   -4.7737 H   0  0  0  0  0  0  0  0  0  0  0  0
    4.1994   -3.6727   -3.9242 H   0  0  0  0  0  0  0  0  0  0  0  0
    5.6591   -2.7601   -3.5073 H   0  0  0  0  0  0  0  0  0  0  0  0
    3.4137    0.3886   -2.7315 H   0  0  0  0  0  0  0  0  0  0  0  0
    3.5702   -0.1751   -4.3891 H   0  0  0  0  0  0  0  0  0  0  0  0
    4.9899   -0.0416   -3.3035 H   0  0  0  0  0  0  0  0  0  0  0  0
    1.8508   -1.3768   -2.4450 H   0  0  0  0  0  0  0  0  0  0  0  0
    2.0113   -2.1179   -4.0046 H   0  0  0  0  0  0  0  0  0  0  0  0
    0.8720   -3.4801   -2.3061 H   0  0  0  0  0  0  0  0  0  0  0  0
    2.3060   -4.2442   -2.8928 H   0  0  0  0  0  0  0  0  0  0  0  0
    1.8148   -2.7610   -0.2616 H   0  0  0  0  0  0  0  0  0  0  0  0
    2.1754   -4.4631   -0.3908 H   0  0  0  0  0  0  0  0  0  0  0  0
    5.8332   -4.0544   -1.2091 H   0  0  0  0  0  0  0  0  0  0  0  0
    4.4674   -4.6224   -2.0929 H   0  0  0  0  0  0  0  0  0  0  0  0
    4.6965   -5.2036   -0.4860 H   0  0  0  0  0  0  0  0  0  0  0  0
    3.5895   -1.0791   -0.9106 H   0  0  0  0  0  0  0  0  0  0  0  0
    6.3901   -1.5758   -1.8510 H   0  0  0  0  0  0  0  0  0  0  0  0
    5.6095   -0.2676   -1.0381 H   0  0  0  0  0  0  0  0  0  0  0  0
    6.9764   -2.5655    0.1616 H   0  0  0  0  0  0  0  0  0  0  0  0
    6.9839   -0.9086    0.6922 H   0  0  0  0  0  0  0  0  0  0  0  0
    4.2722   -0.0799    2.0178 H   0  0  0  0  0  0  0  0  0  0  0  0
    3.9504   -3.2728    5.6617 H   0  0  0  0  0  0  0  0  0  0  0  0
    5.5566   -3.8577    5.2558 H   0  0  0  0  0  0  0  0  0  0  0  0
    4.1269   -4.6076    4.5471 H   0  0  0  0  0  0  0  0  0  0  0  0
    6.5094   -3.1219    2.7875 H   0  0  0  0  0  0  0  0  0  0  0  0
    4.2998   -3.9775    1.3791 H   0  0  0  0  0  0  0  0  0  0  0  0
  1  2  1  0
  1 21  1  0
  1 22  1  0
  1 23  1  0
  2  9  1  0
  2  3  1  0
  2  4  1  0
  3 24  1  0
  3 25  1  0
  3 26  1  0
  4  5  1  0
  4 27  1  0
  4 28  1  0
  5  6  1  0
  5 29  1  0
  5 30  1  0
  6  7  1  0
  6 31  1  0
  6 32  1  0
  7 20  1  0
  7  8  1  6
  7  9  1  0
  8 33  1  0
  8 34  1  0
  8 35  1  0
  9 10  1  0
  9 36  1  1
 10 11  1  0
 10 37  1  0
 10 38  1  0
 12 11  1  6
 11 39  1  0
 11 40  1  0
 12 19  1  0
 12 20  1  0
 12 13  1  0
 13 14  2  0
 13 41  1  0
 14 15  1  0
 14 20  1  0
 15 16  1  0
 16 19  1  0
 16 17  1  1
 16 18  1  0
 17 42  1  0
 17 43  1  0
 17 44  1  0
 18 19  1  0
 19 45  1  6
 20 46  1  1
M  END
>  <i_m_ct_stereo_status>  (340) 
1

>  <s_m_source_file>  (340) 
/var/tmp/pbs.5076255.sched01/tmpr9sv22dd/120oksnzf6p.sdf

>  <i_m_source_file_index>  (340) 
24

>  <i_lp_mmshare_version>  (340) 
48012

>  <i_f3d_flags>  (340) 
1

>  <s_epik_input>  (340) 
W0NIMl0xW0NIMl1bQ0gyXUMoW0NIM10pKFtDSDNdKVtDQEhdKFtDSDJdW0NIMl0yKVtDQEBdMShbQ0gzXSlbQ0BASF0zQyg9W0NIXTQpT1tDQEBdKE81KShbQ0gzXSlbQ0BIXTVbQ0BAXTIzNA==

>  <s_epik_cmdline>  (340) 
J2VwaWtfcHl0aG9uJywgJy1waHQnLCAnMi4wJywgJy1waCcsICc3LjAnLCAnLXRuJywgJzgnLCAnLW1hJywgJzIwMCcsICctaW1hZScsICc8aW5maWxlLm1hZT4nLCAnLW9tYWUnLCAnPG91dGZpbGUubWFlPic=

>  <r_lp_tautomer_probability>  (340) 
1

>  <r_epik_Ionization_Penalty>  (340) 
2.24833e-13

>  <r_epik_Ionization_Penalty_Charging>  (340) 
0

>  <r_epik_Ionization_Penalty_Neutral>  (340) 
2.24833e-13

>  <r_epik_State_Penalty>  (340) 
-0

>  <r_epik_Charging_Adjusted_Penalty>  (340) 
0

>  <i_epik_Tot_Q>  (340) 
0

>  <i_epik_Tot_abs_Q>  (340) 
0

>  <s_lp_Force_Field>  (340) 
OPLS3e

>  <r_lp_Energy>  (340) 
109.253

>  <b_lp_Chiralities_Consistent>  (340) 
1

>  <s_lp_Variant>  (340) 
106:0-1

>  <s_i_glide_gridfile>  (340) 
pfpi4k_grid

>  <i_i_glide_lignum>  (340) 
24

>  <i_i_glide_rotatable_bonds>  (340) 
0

>  <r_i_docking_score>  (340) 
-2.40815

>  <r_i_glide_ligand_efficiency>  (340) 
-0.120408

>  <r_i_glide_ligand_efficiency_sa>  (340) 
-0.326836

>  <r_i_glide_ligand_efficiency_ln>  (340) 
-0.602681

>  <r_i_glide_gscore>  (340) 
-2.40815

>  <r_i_glide_lipo>  (340) 
-0.6573

>  <r_i_glide_hbond>  (340) 
0

>  <r_i_glide_metal>  (340) 
-0

>  <r_i_glide_rewards>  (340) 
-1.57017

>  <r_i_glide_evdw>  (340) 
-4.19885

>  <r_i_glide_ecoul>  (340) 
0.19509

>  <r_i_glide_erotb>  (340) 
0

>  <r_i_glide_esite>  (340) 
0

>  <r_i_glide_emodel>  (340) 
-6.13556

>  <r_i_glide_energy>  (340) 
-4.00376

>  <r_i_glide_einternal>  (340) 
0

>  <r_i_glide_intrahb_reward>  (340) 
-0

>  <i_i_glide_confnum>  (340) 
2

>  <i_i_glide_posenum>  (340) 
9

>  <r_i_glide_eff_state_penalty>  (340) 
0

>  <ligand_id>  (340) 
106

>  <original_smiles>  (340) 
CC1(C)CCCC2(C)C1CCC13C=C(OC4(C)OC41)C23

>  <smiles>  (340) 
[H]C1=C2OC3(C([H])([H])[H])OC3([H])C13C([H])([H])C([H])([H])C1([H])C(C([H])([H])[H])(C([H])([H])[H])C([H])([H])C([H])([H])C([H])([H])C1(C([H])([H])[H])C23[H]

$$$$
107:0:0
     RDKit          3D

 84 88  0  0  1  0  0  0  0  0999 V2000
    0.9491    0.8440    4.8121 C   0  0  0  0  0  0  0  0  0  0  0  0
    1.2279    0.3914    3.3616 C   0  0  0  0  0  0  0  0  0  0  0  0
    0.0794    0.8955    2.4684 C   0  0  0  0  0  0  0  0  0  0  0  0
    2.5555    0.9405    2.8317 C   0  0  0  0  0  0  0  0  0  0  0  0
    3.7348    0.5087    3.7218 C   0  0  0  0  0  0  0  0  0  0  0  0
    3.8829   -1.0216    3.9967 C   0  0  2  0  0  0  0  0  0  0  0  0
    4.6113   -1.0791    5.3621 C   0  0  0  0  0  0  0  0  0  0  0  0
    4.8239   -1.6471    2.9333 C   0  0  0  0  0  0  0  0  0  0  0  0
    4.8684   -3.1951    2.9380 C   0  0  0  0  0  0  0  0  0  0  0  0
    3.4796   -3.8853    2.7156 C   0  0  2  0  0  0  0  0  0  0  0  0
    2.8945   -3.4077    1.3485 C   0  0  0  0  0  0  0  0  0  0  0  0
    2.5499   -3.3447    3.8641 C   0  0  1  0  0  0  0  0  0  0  0  0
    2.8398   -4.0337    5.2057 C   0  0  0  0  0  0  0  0  0  0  0  0
    2.7735   -5.5431    5.1096 C   0  0  0  0  0  0  0  0  0  0  0  0
    3.8138   -6.1496    4.1137 C   0  0  1  0  0  0  0  0  0  0  0  0
    3.8232   -7.7539    4.2219 C   0  0  2  0  0  0  0  0  0  0  0  0
    3.9908   -8.0669    5.7391 C   0  0  0  0  0  0  0  0  0  0  0  0
    5.0337   -8.4541    3.5044 C   0  0  0  0  0  0  0  0  0  0  0  0
    4.9944   -9.9964    3.3723 C   0  0  1  0  0  0  0  0  0  0  0  0
    5.4550  -10.6654    4.5290 O   0  0  0  0  0  0  0  0  0  0  0  0
    3.6152  -10.5253    2.8997 C   0  0  1  0  0  0  0  0  0  0  0  0
    3.6439  -11.9397    2.8855 O   0  0  0  0  0  0  0  0  0  0  0  0
    2.3685   -9.9122    3.6162 C   0  0  0  0  0  0  0  0  0  0  0  0
    1.0952  -10.3420    2.8543 C   0  0  0  0  0  0  0  0  0  0  0  0
    2.1848  -10.4918    5.0398 C   0  0  0  0  0  0  0  0  0  0  0  0
    2.4882   -8.3312    3.6196 C   0  0  2  0  0  0  0  0  0  0  0  0
    2.2460   -7.7045    2.2097 C   0  0  0  0  0  0  0  0  0  0  0  0
    2.2825   -6.1574    2.1438 C   0  0  0  0  0  0  0  0  0  0  0  0
    3.5887   -5.5018    2.6827 C   0  0  1  0  0  0  0  0  0  0  0  0
    4.7519   -5.8519    1.7041 C   0  0  0  0  0  0  0  0  0  0  0  0
    2.5007   -1.7820    4.0644 C   0  0  2  0  0  0  0  0  0  0  0  0
    1.3363   -1.1420    3.2496 C   0  0  0  0  0  0  0  0  0  0  0  0
    0.9157    1.9314    4.8842 H   0  0  0  0  0  0  0  0  0  0  0  0
    1.7070    0.5049    5.5183 H   0  0  0  0  0  0  0  0  0  0  0  0
   -0.0033    0.4520    5.1676 H   0  0  0  0  0  0  0  0  0  0  0  0
    0.2225    0.6125    1.4264 H   0  0  0  0  0  0  0  0  0  0  0  0
   -0.0014    1.9827    2.5049 H   0  0  0  0  0  0  0  0  0  0  0  0
   -0.8776    0.4832    2.7955 H   0  0  0  0  0  0  0  0  0  0  0  0
    2.7316    0.6066    1.8077 H   0  0  0  0  0  0  0  0  0  0  0  0
    2.5257    2.0305    2.7765 H   0  0  0  0  0  0  0  0  0  0  0  0
    4.6547    0.8813    3.2697 H   0  0  0  0  0  0  0  0  0  0  0  0
    3.6679    1.0643    4.6584 H   0  0  0  0  0  0  0  0  0  0  0  0
    5.0129   -2.0594    5.6073 H   0  0  0  0  0  0  0  0  0  0  0  0
    3.9411   -0.7789    6.1727 H   0  0  0  0  0  0  0  0  0  0  0  0
    5.4590   -0.3908    5.3886 H   0  0  0  0  0  0  0  0  0  0  0  0
    4.5824   -1.2701    1.9421 H   0  0  0  0  0  0  0  0  0  0  0  0
    5.8389   -1.2920    3.1061 H   0  0  0  0  0  0  0  0  0  0  0  0
    5.5978   -3.4826    2.1813 H   0  0  0  0  0  0  0  0  0  0  0  0
    5.3009   -3.5398    3.8724 H   0  0  0  0  0  0  0  0  0  0  0  0
    1.8285   -3.6235    1.2921 H   0  0  0  0  0  0  0  0  0  0  0  0
    3.3564   -3.8715    0.4806 H   0  0  0  0  0  0  0  0  0  0  0  0
    2.9855   -2.3390    1.1704 H   0  0  0  0  0  0  0  0  0  0  0  0
    1.5322   -3.6446    3.6184 H   0  0  0  0  0  0  0  0  0  0  0  0
    3.8187   -3.7665    5.5979 H   0  0  0  0  0  0  0  0  0  0  0  0
    2.1102   -3.7031    5.9478 H   0  0  0  0  0  0  0  0  0  0  0  0
    2.9202   -5.8820    6.1318 H   0  0  0  0  0  0  0  0  0  0  0  0
    1.7559   -5.8313    4.8543 H   0  0  0  0  0  0  0  0  0  0  0  0
    4.7952   -5.8172    4.4569 H   0  0  0  0  0  0  0  0  0  0  0  0
    4.4518   -9.0220    5.9563 H   0  0  0  0  0  0  0  0  0  0  0  0
    3.0405   -8.0572    6.2704 H   0  0  0  0  0  0  0  0  0  0  0  0
    4.6573   -7.3443    6.2192 H   0  0  0  0  0  0  0  0  0  0  0  0
    5.0672   -8.1621    2.4687 H   0  0  0  0  0  0  0  0  0  0  0  0
    5.9844   -8.1359    3.9371 H   0  0  0  0  0  0  0  0  0  0  0  0
    5.7150  -10.2857    2.6063 H   0  0  0  0  0  0  0  0  0  0  0  0
    5.3031  -11.5829    4.3974 H   0  0  0  0  0  0  0  0  0  0  0  0
    3.5390  -10.2414    1.8495 H   0  0  0  0  0  0  0  0  0  0  0  0
    3.8169  -12.1943    1.9694 H   0  0  0  0  0  0  0  0  0  0  0  0
    0.2114   -9.7986    3.1913 H   0  0  0  0  0  0  0  0  0  0  0  0
    0.8856  -11.4098    2.9743 H   0  0  0  0  0  0  0  0  0  0  0  0
    1.1951  -10.1881    1.7790 H   0  0  0  0  0  0  0  0  0  0  0  0
    1.5215   -9.8729    5.6478 H   0  0  0  0  0  0  0  0  0  0  0  0
    3.1220  -10.6078    5.5816 H   0  0  0  0  0  0  0  0  0  0  0  0
    1.7551  -11.4952    5.0230 H   0  0  0  0  0  0  0  0  0  0  0  0
    1.6644   -7.9800    4.2361 H   0  0  0  0  0  0  0  0  0  0  0  0
    2.9498   -8.1158    1.4895 H   0  0  0  0  0  0  0  0  0  0  0  0
    1.2623   -7.9890    1.8343 H   0  0  0  0  0  0  0  0  0  0  0  0
    2.1237   -5.8879    1.0990 H   0  0  0  0  0  0  0  0  0  0  0  0
    1.4145   -5.7796    2.6771 H   0  0  0  0  0  0  0  0  0  0  0  0
    4.5544   -6.7315    1.0949 H   0  0  0  0  0  0  0  0  0  0  0  0
    5.6923   -5.9925    2.2379 H   0  0  0  0  0  0  0  0  0  0  0  0
    4.9526   -5.0940    0.9505 H   0  0  0  0  0  0  0  0  0  0  0  0
    2.1536   -1.6405    5.0859 H   0  0  0  0  0  0  0  0  0  0  0  0
    0.3966   -1.5834    3.5802 H   0  0  0  0  0  0  0  0  0  0  0  0
    1.4128   -1.3950    2.1971 H   0  0  0  0  0  0  0  0  0  0  0  0
  1  2  1  0
  1 33  1  0
  1 34  1  0
  1 35  1  0
  2 32  1  0
  2  3  1  0
  2  4  1  0
  3 36  1  0
  3 37  1  0
  3 38  1  0
  4  5  1  0
  4 39  1  0
  4 40  1  0
  5  6  1  0
  5 41  1  0
  5 42  1  0
  6 31  1  0
  6  7  1  1
  6  8  1  0
  7 43  1  0
  7 44  1  0
  7 45  1  0
  8  9  1  0
  8 46  1  0
  8 47  1  0
  9 10  1  0
  9 48  1  0
  9 49  1  0
 10 29  1  0
 10 11  1  6
 10 12  1  0
 11 50  1  0
 11 51  1  0
 11 52  1  0
 12 13  1  0
 12 31  1  0
 12 53  1  6
 13 14  1  0
 13 54  1  0
 13 55  1  0
 14 15  1  0
 14 56  1  0
 14 57  1  0
 15 29  1  0
 15 16  1  0
 15 58  1  1
 16 26  1  0
 16 17  1  1
 16 18  1  0
 17 59  1  0
 17 60  1  0
 17 61  1  0
 18 19  1  0
 18 62  1  0
 18 63  1  0
 19 20  1  0
 19 21  1  0
 19 64  1  6
 20 65  1  0
 21 22  1  0
 21 23  1  0
 21 66  1  6
 22 67  1  0
 23 24  1  0
 23 25  1  0
 23 26  1  0
 24 68  1  0
 24 69  1  0
 24 70  1  0
 25 71  1  0
 25 72  1  0
 25 73  1  0
 26 27  1  0
 26 74  1  1
 27 28  1  0
 27 75  1  0
 27 76  1  0
 28 29  1  0
 28 77  1  0
 28 78  1  0
 29 30  1  6
 30 79  1  0
 30 80  1  0
 30 81  1  0
 31 32  1  0
 31 82  1  1
 32 83  1  0
 32 84  1  0
M  END
>  <i_m_ct_stereo_status>  (341) 
1

>  <s_m_source_file>  (341) 
/var/tmp/pbs.5076255.sched01/tmpr9sv22dd/120oksnzf6p.sdf

>  <i_m_source_file_index>  (341) 
25

>  <i_lp_mmshare_version>  (341) 
48012

>  <i_f3d_flags>  (341) 
0

>  <s_epik_input>  (341) 
W0NIMl0xW0NIMl1DKFtDSDNdKShbQ0gzXSlbQ0gyXVtDQEhdKFtDQF0xMltDSDNdKVtDQEhdM1tDQEBdKFtDSDNdKShbQ0gyXVtDSDJdMilbQ0BAXTQoW0NIM10pW0NAQEhdKFtDSDJdW0NIMl0zKVtDQEBdNShbQ0gzXSlbQ0BASF0oW0NIMl1bQ0gyXTQpQyhbQ0gzXSkoW0NIM10pW0NASF0oW09IXSlbQ0BASF0oW0NIMl01KVtPSF0=

>  <s_epik_cmdline>  (341) 
J2VwaWtfcHl0aG9uJywgJy1waHQnLCAnMi4wJywgJy1waCcsICc3LjAnLCAnLXRuJywgJzgnLCAnLW1hJywgJzIwMCcsICctaW1hZScsICc8aW5maWxlLm1hZT4nLCAnLW9tYWUnLCAnPG91dGZpbGUubWFlPic=

>  <r_lp_tautomer_probability>  (341) 
1

>  <r_epik_Ionization_Penalty>  (341) 
1.57602e-06

>  <r_epik_Ionization_Penalty_Charging>  (341) 
0

>  <r_epik_Ionization_Penalty_Neutral>  (341) 
1.57602e-06

>  <r_epik_State_Penalty>  (341) 
-0

>  <r_epik_Charging_Adjusted_Penalty>  (341) 
0

>  <i_epik_Tot_Q>  (341) 
0

>  <i_epik_Tot_abs_Q>  (341) 
0

>  <s_lp_Force_Field>  (341) 
OPLS3e

>  <r_lp_Energy>  (341) 
121.362

>  <b_lp_Chiralities_Consistent>  (341) 
1

>  <s_lp_Variant>  (341) 
107:0-1

>  <s_i_glide_gridfile>  (341) 
pfpi4k_grid

>  <i_i_glide_lignum>  (341) 
25

>  <i_i_glide_rotatable_bonds>  (341) 
2

>  <r_i_docking_score>  (341) 
-2.73322

>  <r_i_glide_ligand_efficiency>  (341) 
-0.085413

>  <r_i_glide_ligand_efficiency_sa>  (341) 
-0.271169

>  <r_i_glide_ligand_efficiency_ln>  (341) 
-0.612041

>  <r_i_glide_gscore>  (341) 
-2.73322

>  <r_i_glide_lipo>  (341) 
-0.332589

>  <r_i_glide_hbond>  (341) 
0

>  <r_i_glide_metal>  (341) 
-0

>  <r_i_glide_rewards>  (341) 
-0.376823

>  <r_i_glide_evdw>  (341) 
-25.709

>  <r_i_glide_ecoul>  (341) 
-4.92236

>  <r_i_glide_erotb>  (341) 
0

>  <r_i_glide_esite>  (341) 
0

>  <r_i_glide_emodel>  (341) 
-34.6873

>  <r_i_glide_energy>  (341) 
-30.6314

>  <r_i_glide_einternal>  (341) 
1.54283

>  <r_i_glide_intrahb_reward>  (341) 
-0

>  <i_i_glide_confnum>  (341) 
2

>  <i_i_glide_posenum>  (341) 
7

>  <r_i_glide_eff_state_penalty>  (341) 
0

>  <ligand_id>  (341) 
107

>  <original_smiles>  (341) 
CC1(C)CCC2(C)CCC3(C)C(CCC4C5(C)CC(O)C(O)C(C)(C)C5CCC43C)C2C1

>  <smiles>  (341) 
[H]OC1([H])C([H])([H])C2(C([H])([H])[H])C([H])(C([H])([H])C([H])([H])C3(C([H])([H])[H])C2([H])C([H])([H])C([H])([H])C2([H])C4([H])C([H])([H])C(C([H])([H])[H])(C([H])([H])[H])C([H])([H])C([H])([H])C4(C([H])([H])[H])C([H])([H])C([H])([H])C23C([H])([H])[H])C(C([H])([H])[H])(C([H])([H])[H])C1([H])O[H]

$$$$
107:0:1
     RDKit          3D

 84 88  0  0  1  0  0  0  0  0999 V2000
    0.9697    0.9160    4.7760 C   0  0  0  0  0  0  0  0  0  0  0  0
    1.2806    0.4537    3.3301 C   0  0  0  0  0  0  0  0  0  0  0  0
    0.1621    0.9823    2.4113 C   0  0  0  0  0  0  0  0  0  0  0  0
    2.6358    0.9848    2.8451 C   0  0  0  0  0  0  0  0  0  0  0  0
    3.7833    0.5228    3.7484 C   0  0  0  0  0  0  0  0  0  0  0  0
    3.8923   -1.0094    4.0262 C   0  0  2  0  0  0  0  0  0  0  0  0
    4.5840   -1.0837    5.4117 C   0  0  0  0  0  0  0  0  0  0  0  0
    4.8428   -1.6486    2.9874 C   0  0  0  0  0  0  0  0  0  0  0  0
    4.8569   -3.1935    2.9857 C   0  0  0  0  0  0  0  0  0  0  0  0
    3.4638   -3.8548    2.7315 C   0  0  2  0  0  0  0  0  0  0  0  0
    2.9220   -3.3666    1.3511 C   0  0  0  0  0  0  0  0  0  0  0  0
    2.5151   -3.3002    3.8561 C   0  0  1  0  0  0  0  0  0  0  0  0
    2.7643   -3.9951    5.2028 C   0  0  0  0  0  0  0  0  0  0  0  0
    2.6682   -5.5066    5.1013 C   0  0  0  0  0  0  0  0  0  0  0  0
    3.7245   -6.1319    4.1317 C   0  0  1  0  0  0  0  0  0  0  0  0
    3.6969   -7.7359    4.2345 C   0  0  2  0  0  0  0  0  0  0  0  0
    3.8183   -8.0521    5.7568 C   0  0  0  0  0  0  0  0  0  0  0  0
    4.9085   -8.4550    3.5461 C   0  0  0  0  0  0  0  0  0  0  0  0
    4.8440  -10.0007    3.4105 C   0  0  1  0  0  0  0  0  0  0  0  0
    5.2853  -10.6561    4.5823 O   0  0  0  0  0  0  0  0  0  0  0  0
    3.4694  -10.4920    2.8997 C   0  0  1  0  0  0  0  0  0  0  0  0
    3.4446  -11.9078    2.8805 O   0  0  0  0  0  0  0  0  0  0  0  0
    2.2215   -9.8631    3.5861 C   0  0  0  0  0  0  0  0  0  0  0  0
    0.9510  -10.2637    2.7921 C   0  0  0  0  0  0  0  0  0  0  0  0
    1.9834  -10.4415    5.0076 C   0  0  0  0  0  0  0  0  0  0  0  0
    2.3633   -8.2798    3.6003 C   0  0  2  0  0  0  0  0  0  0  0  0
    2.1659   -7.6513    2.1857 C   0  0  0  0  0  0  0  0  0  0  0  0
    2.2360   -6.1080    2.1241 C   0  0  0  0  0  0  0  0  0  0  0  0
    3.5417   -5.4754    2.6983 C   0  0  1  0  0  0  0  0  0  0  0  0
    4.7225   -5.8481    1.7466 C   0  0  0  0  0  0  0  0  0  0  0  0
    2.4899   -1.7379    4.0611 C   0  0  2  0  0  0  0  0  0  0  0  0
    1.3600   -1.0792    3.2225 C   0  0  0  0  0  0  0  0  0  0  0  0
    0.9548    2.0082    4.8415 H   0  0  0  0  0  0  0  0  0  0  0  0
    1.7086    0.5598    5.4984 H   0  0  0  0  0  0  0  0  0  0  0  0
   -0.0029    0.5412    5.1025 H   0  0  0  0  0  0  0  0  0  0  0  0
    0.3267    0.7006    1.3682 H   0  0  0  0  0  0  0  0  0  0  0  0
    0.1022    2.0732    2.4501 H   0  0  0  0  0  0  0  0  0  0  0  0
   -0.8104    0.5898    2.7142 H   0  0  0  0  0  0  0  0  0  0  0  0
    2.8272    0.6485    1.8272 H   0  0  0  0  0  0  0  0  0  0  0  0
    2.6233    2.0734    2.7904 H   0  0  0  0  0  0  0  0  0  0  0  0
    4.7145    0.8678    3.3029 H   0  0  0  0  0  0  0  0  0  0  0  0
    3.7158    1.0782    4.6823 H   0  0  0  0  0  0  0  0  0  0  0  0
    4.9625   -2.0707    5.6611 H   0  0  0  0  0  0  0  0  0  0  0  0
    3.9046   -0.7680    6.2069 H   0  0  0  0  0  0  0  0  0  0  0  0
    5.4447   -0.4129    5.4520 H   0  0  0  0  0  0  0  0  0  0  0  0
    4.6389   -1.2598    1.9931 H   0  0  0  0  0  0  0  0  0  0  0  0
    5.8590   -1.3126    3.1883 H   0  0  0  0  0  0  0  0  0  0  0  0
    5.5991   -3.4912    2.2502 H   0  0  0  0  0  0  0  0  0  0  0  0
    5.2639   -3.5488    3.9294 H   0  0  0  0  0  0  0  0  0  0  0  0
    1.8550   -3.5635    1.2663 H   0  0  0  0  0  0  0  0  0  0  0  0
    3.3975   -3.8353    0.4929 H   0  0  0  0  0  0  0  0  0  0  0  0
    3.0392   -2.3017    1.1819 H   0  0  0  0  0  0  0  0  0  0  0  0
    1.4973   -3.5855    3.5845 H   0  0  0  0  0  0  0  0  0  0  0  0
    3.7369   -3.7505    5.6206 H   0  0  0  0  0  0  0  0  0  0  0  0
    2.0216   -3.6578    5.9276 H   0  0  0  0  0  0  0  0  0  0  0  0
    2.7843   -5.8467    6.1268 H   0  0  0  0  0  0  0  0  0  0  0  0
    1.6494   -5.7765    4.8204 H   0  0  0  0  0  0  0  0  0  0  0  0
    4.7036   -5.8187    4.4986 H   0  0  0  0  0  0  0  0  0  0  0  0
    4.2525   -9.0172    5.9869 H   0  0  0  0  0  0  0  0  0  0  0  0
    2.8514   -8.0190    6.2619 H   0  0  0  0  0  0  0  0  0  0  0  0
    4.4845   -7.3415    6.2500 H   0  0  0  0  0  0  0  0  0  0  0  0
    4.9787   -8.1580    2.5137 H   0  0  0  0  0  0  0  0  0  0  0  0
    5.8522   -8.1561    4.0045 H   0  0  0  0  0  0  0  0  0  0  0  0
    5.5824  -10.2883    2.6622 H   0  0  0  0  0  0  0  0  0  0  0  0
    4.5761  -10.6540    5.2059 H   0  0  0  0  0  0  0  0  0  0  0  0
    3.4235  -10.2155    1.8471 H   0  0  0  0  0  0  0  0  0  0  0  0
    3.7353  -12.1738    2.0008 H   0  0  0  0  0  0  0  0  0  0  0  0
    0.0735   -9.7036    3.1201 H   0  0  0  0  0  0  0  0  0  0  0  0
    0.7216  -11.3263    2.9112 H   0  0  0  0  0  0  0  0  0  0  0  0
    1.0785  -10.1083    1.7180 H   0  0  0  0  0  0  0  0  0  0  0  0
    1.3067   -9.8155    5.5906 H   0  0  0  0  0  0  0  0  0  0  0  0
    2.8982  -10.5793    5.5765 H   0  0  0  0  0  0  0  0  0  0  0  0
    1.5321  -11.4360    4.9667 H   0  0  0  0  0  0  0  0  0  0  0  0
    1.5281   -7.9170    4.1990 H   0  0  0  0  0  0  0  0  0  0  0  0
    2.8768   -8.0750    1.4814 H   0  0  0  0  0  0  0  0  0  0  0  0
    1.1878   -7.9112    1.7882 H   0  0  0  0  0  0  0  0  0  0  0  0
    2.1131   -5.8310    1.0775 H   0  0  0  0  0  0  0  0  0  0  0  0
    1.3629   -5.7047    2.6343 H   0  0  0  0  0  0  0  0  0  0  0  0
    4.5222   -6.7233    1.1331 H   0  0  0  0  0  0  0  0  0  0  0  0
    5.6468   -6.0040    2.3043 H   0  0  0  0  0  0  0  0  0  0  0  0
    4.9549   -5.0953    1.0006 H   0  0  0  0  0  0  0  0  0  0  0  0
    2.1232   -1.5946    5.0767 H   0  0  0  0  0  0  0  0  0  0  0  0
    0.4036   -1.5011    3.5289 H   0  0  0  0  0  0  0  0  0  0  0  0
    1.4590   -1.3292    2.1708 H   0  0  0  0  0  0  0  0  0  0  0  0
  1  2  1  0
  1 33  1  0
  1 34  1  0
  1 35  1  0
  2 32  1  0
  2  3  1  0
  2  4  1  0
  3 36  1  0
  3 37  1  0
  3 38  1  0
  4  5  1  0
  4 39  1  0
  4 40  1  0
  5  6  1  0
  5 41  1  0
  5 42  1  0
  6 31  1  0
  6  7  1  1
  6  8  1  0
  7 43  1  0
  7 44  1  0
  7 45  1  0
  8  9  1  0
  8 46  1  0
  8 47  1  0
  9 10  1  0
  9 48  1  0
  9 49  1  0
 10 29  1  0
 10 11  1  6
 10 12  1  0
 11 50  1  0
 11 51  1  0
 11 52  1  0
 12 13  1  0
 12 31  1  0
 12 53  1  6
 13 14  1  0
 13 54  1  0
 13 55  1  0
 14 15  1  0
 14 56  1  0
 14 57  1  0
 15 29  1  0
 15 16  1  0
 15 58  1  1
 16 26  1  0
 16 17  1  1
 16 18  1  0
 17 59  1  0
 17 60  1  0
 17 61  1  0
 18 19  1  0
 18 62  1  0
 18 63  1  0
 19 20  1  0
 19 21  1  0
 19 64  1  6
 20 65  1  0
 21 22  1  0
 21 23  1  0
 21 66  1  6
 22 67  1  0
 23 24  1  0
 23 25  1  0
 23 26  1  0
 24 68  1  0
 24 69  1  0
 24 70  1  0
 25 71  1  0
 25 72  1  0
 25 73  1  0
 26 27  1  0
 26 74  1  1
 27 28  1  0
 27 75  1  0
 27 76  1  0
 28 29  1  0
 28 77  1  0
 28 78  1  0
 29 30  1  6
 30 79  1  0
 30 80  1  0
 30 81  1  0
 31 32  1  0
 31 82  1  1
 32 83  1  0
 32 84  1  0
M  END
>  <i_m_ct_stereo_status>  (342) 
1

>  <s_m_source_file>  (342) 
/var/tmp/pbs.5076255.sched01/tmpr9sv22dd/120oksnzf6p.sdf

>  <i_m_source_file_index>  (342) 
25

>  <i_lp_mmshare_version>  (342) 
48012

>  <i_f3d_flags>  (342) 
0

>  <s_epik_input>  (342) 
W0NIMl0xW0NIMl1DKFtDSDNdKShbQ0gzXSlbQ0gyXVtDQEhdKFtDQF0xMltDSDNdKVtDQEhdM1tDQEBdKFtDSDNdKShbQ0gyXVtDSDJdMilbQ0BAXTQoW0NIM10pW0NAQEhdKFtDSDJdW0NIMl0zKVtDQEBdNShbQ0gzXSlbQ0BASF0oW0NIMl1bQ0gyXTQpQyhbQ0gzXSkoW0NIM10pW0NASF0oW09IXSlbQ0BASF0oW0NIMl01KVtPSF0=

>  <s_epik_cmdline>  (342) 
J2VwaWtfcHl0aG9uJywgJy1waHQnLCAnMi4wJywgJy1waCcsICc3LjAnLCAnLXRuJywgJzgnLCAnLW1hJywgJzIwMCcsICctaW1hZScsICc8aW5maWxlLm1hZT4nLCAnLW9tYWUnLCAnPG91dGZpbGUubWFlPic=

>  <r_lp_tautomer_probability>  (342) 
1

>  <r_epik_Ionization_Penalty>  (342) 
1.57602e-06

>  <r_epik_Ionization_Penalty_Charging>  (342) 
0

>  <r_epik_Ionization_Penalty_Neutral>  (342) 
1.57602e-06

>  <r_epik_State_Penalty>  (342) 
-0

>  <r_epik_Charging_Adjusted_Penalty>  (342) 
0

>  <i_epik_Tot_Q>  (342) 
0

>  <i_epik_Tot_abs_Q>  (342) 
0

>  <s_lp_Force_Field>  (342) 
OPLS3e

>  <r_lp_Energy>  (342) 
121.362

>  <b_lp_Chiralities_Consistent>  (342) 
1

>  <s_lp_Variant>  (342) 
107:0-1

>  <s_i_glide_gridfile>  (342) 
pfpi4k_grid

>  <i_i_glide_lignum>  (342) 
25

>  <i_i_glide_rotatable_bonds>  (342) 
2

>  <r_i_docking_score>  (342) 
-2.56658

>  <r_i_glide_ligand_efficiency>  (342) 
-0.0802057

>  <r_i_glide_ligand_efficiency_sa>  (342) 
-0.254637

>  <r_i_glide_ligand_efficiency_ln>  (342) 
-0.574728

>  <r_i_glide_gscore>  (342) 
-2.56658

>  <r_i_glide_lipo>  (342) 
-0.310018

>  <r_i_glide_hbond>  (342) 
0

>  <r_i_glide_metal>  (342) 
-0

>  <r_i_glide_rewards>  (342) 
-0.376823

>  <r_i_glide_evdw>  (342) 
-26.2919

>  <r_i_glide_ecoul>  (342) 
-3.76765

>  <r_i_glide_erotb>  (342) 
0

>  <r_i_glide_esite>  (342) 
0

>  <r_i_glide_emodel>  (342) 
-33.8816

>  <r_i_glide_energy>  (342) 
-30.0596

>  <r_i_glide_einternal>  (342) 
1.04315

>  <r_i_glide_intrahb_reward>  (342) 
-0

>  <i_i_glide_confnum>  (342) 
1

>  <i_i_glide_posenum>  (342) 
8

>  <r_i_glide_eff_state_penalty>  (342) 
0

>  <ligand_id>  (342) 
107

>  <original_smiles>  (342) 
CC1(C)CCC2(C)CCC3(C)C(CCC4C5(C)CC(O)C(O)C(C)(C)C5CCC43C)C2C1

>  <smiles>  (342) 
[H]OC1([H])C([H])([H])C2(C([H])([H])[H])C([H])(C([H])([H])C([H])([H])C3(C([H])([H])[H])C2([H])C([H])([H])C([H])([H])C2([H])C4([H])C([H])([H])C(C([H])([H])[H])(C([H])([H])[H])C([H])([H])C([H])([H])C4(C([H])([H])[H])C([H])([H])C([H])([H])C23C([H])([H])[H])C(C([H])([H])[H])(C([H])([H])[H])C1([H])O[H]

$$$$
108:0:0
     RDKit          3D

 54 58  0  0  1  0  0  0  0  0999 V2000
    3.5234   -1.6997   -3.6920 C   0  0  0  0  0  0  0  0  0  0  0  0
    3.8670   -2.9748   -2.9432 C   0  0  0  0  0  0  0  0  0  0  0  0
    4.8095   -3.9004   -3.6842 C   0  0  0  0  0  0  0  0  0  0  0  0
    3.3525   -3.2031   -1.7100 C   0  0  0  0  0  0  0  0  0  0  0  0
    3.6333   -4.3390   -0.7219 C   0  0  0  0  0  0  0  0  0  0  0  0
    4.3317   -4.0010    0.6464 C   0  0  2  0  0  0  0  0  0  0  0  0
    5.8030   -3.5868    0.2804 C   0  0  2  0  0  0  0  0  0  0  0  0
    6.6896   -3.8874    1.4954 C   0  0  0  0  0  0  0  0  0  0  0  0
    5.8588   -4.8261    2.3165 C   0  0  1  0  0  0  0  0  0  0  0  0
    4.7814   -4.3168    3.3173 C   0  0  2  0  0  0  0  0  0  0  0  0
    4.2622   -5.5348    2.9534 O   0  0  0  0  0  0  0  0  0  0  0  0
    4.6091   -5.2952    1.5383 C   0  0  2  0  0  0  0  0  0  0  0  0
    3.3737   -6.2670    1.5308 C   0  0  0  0  0  0  0  0  0  0  0  0
    2.0265   -5.5693    2.0052 C   0  0  0  0  0  0  0  0  0  0  0  0
    2.1338   -4.4337    3.0991 C   0  0  1  0  0  0  0  0  0  0  0  0
    1.8598   -5.0508    4.5034 C   0  0  0  0  0  0  0  0  0  0  0  0
    3.4595   -3.4959    3.0054 C   0  0  1  0  0  0  0  0  0  0  0  0
    3.2507   -2.3944    4.0741 C   0  0  0  0  0  0  0  0  0  0  0  0
    2.2841   -1.6362    4.0308 O   0  0  0  0  0  0  0  0  0  0  0  0
    3.6355   -2.8941    1.5558 C   0  0  2  0  0  0  0  0  0  0  0  0
    2.3343   -2.6339    1.0679 O   0  0  0  0  0  0  0  0  0  0  0  0
    4.3080   -1.4574    1.4761 C   0  0  1  0  0  0  0  0  0  0  0  0
    5.3416   -1.2040    2.4151 O   0  0  0  0  0  0  0  0  0  0  0  0
    4.9378   -1.1220    0.1105 C   0  0  0  0  0  0  0  0  0  0  0  0
    5.9873   -2.1693   -0.2660 C   0  0  0  0  0  0  0  0  0  0  0  0
    6.9364   -1.8760   -0.9904 O   0  0  0  0  0  0  0  0  0  0  0  0
    4.4328   -1.1435   -3.9248 H   0  0  0  0  0  0  0  0  0  0  0  0
    2.8809   -1.0389   -3.1093 H   0  0  0  0  0  0  0  0  0  0  0  0
    3.0128   -1.9296   -4.6291 H   0  0  0  0  0  0  0  0  0  0  0  0
    5.7619   -3.4057   -3.8801 H   0  0  0  0  0  0  0  0  0  0  0  0
    4.3560   -4.1647   -4.6416 H   0  0  0  0  0  0  0  0  0  0  0  0
    5.0176   -4.8223   -3.1527 H   0  0  0  0  0  0  0  0  0  0  0  0
    2.6222   -2.4810   -1.3880 H   0  0  0  0  0  0  0  0  0  0  0  0
    2.6546   -4.7935   -0.6052 H   0  0  0  0  0  0  0  0  0  0  0  0
    4.2606   -5.1102   -1.1559 H   0  0  0  0  0  0  0  0  0  0  0  0
    6.1550   -4.2657   -0.4917 H   0  0  0  0  0  0  0  0  0  0  0  0
    7.6305   -4.3524    1.1949 H   0  0  0  0  0  0  0  0  0  0  0  0
    6.9602   -2.9988    2.0574 H   0  0  0  0  0  0  0  0  0  0  0  0
    6.4335   -5.6485    2.7689 H   0  0  0  0  0  0  0  0  0  0  0  0
    5.1099   -4.3271    4.3571 H   0  0  0  0  0  0  0  0  0  0  0  0
    3.2055   -6.6330    0.5204 H   0  0  0  0  0  0  0  0  0  0  0  0
    3.5227   -7.2251    2.0521 H   0  0  0  0  0  0  0  0  0  0  0  0
    1.5455   -5.1256    1.1402 H   0  0  0  0  0  0  0  0  0  0  0  0
    1.3242   -6.3354    2.3300 H   0  0  0  0  0  0  0  0  0  0  0  0
    1.2581   -3.8018    2.9407 H   0  0  0  0  0  0  0  0  0  0  0  0
    2.6377   -5.7470    4.8165 H   0  0  0  0  0  0  0  0  0  0  0  0
    0.9199   -5.5987    4.5015 H   0  0  0  0  0  0  0  0  0  0  0  0
    1.7616   -4.2914    5.2840 H   0  0  0  0  0  0  0  0  0  0  0  0
    4.0075   -2.3365    4.8604 H   0  0  0  0  0  0  0  0  0  0  0  0
    2.3795   -2.0828    0.2999 H   0  0  0  0  0  0  0  0  0  0  0  0
    3.5506   -0.6993    1.6770 H   0  0  0  0  0  0  0  0  0  0  0  0
    5.6368   -0.3159    2.2994 H   0  0  0  0  0  0  0  0  0  0  0  0
    4.1654   -1.0842   -0.6542 H   0  0  0  0  0  0  0  0  0  0  0  0
    5.3872   -0.1194    0.1015 H   0  0  0  0  0  0  0  0  0  0  0  0
  1  2  1  0
  1 27  1  0
  1 28  1  0
  1 29  1  0
  2  3  1  0
  2  4  2  3
  3 30  1  0
  3 31  1  0
  3 32  1  0
  4  5  1  0
  4 33  1  0
  6  5  1  6
  5 34  1  0
  5 35  1  0
  6 12  1  0
  6 20  1  0
  6  7  1  0
  7 25  1  0
  7  8  1  0
  7 36  1  6
  8  9  1  0
  8 37  1  0
  8 38  1  0
  9 12  1  0
  9 10  1  0
  9 39  1  1
 10 17  1  0
 10 11  1  0
 10 40  1  1
 12 11  1  1
 12 13  1  0
 13 14  1  0
 13 41  1  0
 13 42  1  0
 14 15  1  0
 14 43  1  0
 14 44  1  0
 15 16  1  0
 15 17  1  0
 15 45  1  6
 16 46  1  0
 16 47  1  0
 16 48  1  0
 17 18  1  1
 17 20  1  0
 18 19  2  0
 18 49  1  0
 20 21  1  6
 20 22  1  0
 21 50  1  0
 22 23  1  0
 22 24  1  0
 22 51  1  1
 23 52  1  0
 24 25  1  0
 24 53  1  0
 24 54  1  0
 25 26  2  0
M  END
>  <i_m_ct_stereo_status>  (343) 
1

>  <s_m_source_file>  (343) 
/var/tmp/pbs.5076255.sched01/tmpr9sv22dd/120oksnzf6p.sdf

>  <i_m_source_file_index>  (343) 
26

>  <i_lp_mmshare_version>  (343) 
48012

>  <i_f3d_flags>  (343) 
0

>  <s_epik_input>  (343) 
W0NIM11DKFtDSDNdKT1bQ0hdW0NIMl1bQ0BAXTEoW0NAQF0yMzQpW0NAQEhdNVtDSDJdW0NASF0yW0NASF0oTzMpW0NAXShbQ0hdPU8pKFtDQEhdKFtDSDNdKVtDSDJdW0NIMl00KVtDQEBdMShbT0hdKVtDQEBIXShbT0hdKVtDSDJdQzU9Tw==

>  <s_epik_cmdline>  (343) 
J2VwaWtfcHl0aG9uJywgJy1waHQnLCAnMi4wJywgJy1waCcsICc3LjAnLCAnLXRuJywgJzgnLCAnLW1hJywgJzIwMCcsICctaW1hZScsICc8aW5maWxlLm1hZT4nLCAnLW9tYWUnLCAnPG91dGZpbGUubWFlPic=

>  <r_lp_tautomer_probability>  (343) 
1

>  <r_epik_Ionization_Penalty>  (343) 
2.55891e-07

>  <r_epik_Ionization_Penalty_Charging>  (343) 
0

>  <r_epik_Ionization_Penalty_Neutral>  (343) 
2.55891e-07

>  <r_epik_State_Penalty>  (343) 
-0

>  <r_epik_Charging_Adjusted_Penalty>  (343) 
0

>  <i_epik_Tot_Q>  (343) 
0

>  <i_epik_Tot_abs_Q>  (343) 
0

>  <s_lp_Force_Field>  (343) 
OPLS3e

>  <r_lp_Energy>  (343) 
144.917

>  <b_lp_Chiralities_Consistent>  (343) 
1

>  <s_lp_Variant>  (343) 
108:0-1

>  <s_i_glide_gridfile>  (343) 
pfpi4k_grid

>  <i_i_glide_lignum>  (343) 
26

>  <i_i_glide_rotatable_bonds>  (343) 
5

>  <r_i_docking_score>  (343) 
-2.90582

>  <r_i_glide_ligand_efficiency>  (343) 
-0.111762

>  <r_i_glide_ligand_efficiency_sa>  (343) 
-0.331096

>  <r_i_glide_ligand_efficiency_ln>  (343) 
-0.682423

>  <r_i_glide_gscore>  (343) 
-2.90582

>  <r_i_glide_lipo>  (343) 
-0.570029

>  <r_i_glide_hbond>  (343) 
-0.16

>  <r_i_glide_metal>  (343) 
-0

>  <r_i_glide_rewards>  (343) 
-0.951518

>  <r_i_glide_evdw>  (343) 
-18.9324

>  <r_i_glide_ecoul>  (343) 
-3.72936

>  <r_i_glide_erotb>  (343) 
0.295244

>  <r_i_glide_esite>  (343) 
-0.0134939

>  <r_i_glide_emodel>  (343) 
-25.0374

>  <r_i_glide_energy>  (343) 
-22.6618

>  <r_i_glide_einternal>  (343) 
3.58962

>  <r_i_glide_intrahb_reward>  (343) 
-0

>  <i_i_glide_confnum>  (343) 
6

>  <i_i_glide_posenum>  (343) 
40

>  <r_i_glide_eff_state_penalty>  (343) 
0

>  <ligand_id>  (343) 
108

>  <original_smiles>  (343) 
CC(C)=CCC12C3CC4C5OC41CCC(C)C5(C=O)C2(O)C(O)CC3=O

>  <smiles>  (343) 
[H]OC1([H])C([H])([H])C(=O)C2([H])C([H])([H])C3([H])C4([H])OC35C([H])([H])C([H])([H])C([H])(C([H])([H])[H])C4(C([H])=O)C1(O[H])C25C([H])([H])C([H])=C(C([H])([H])[H])C([H])([H])[H]

$$$$
108:0:1
     RDKit          3D

 54 58  0  0  1  0  0  0  0  0999 V2000
    0.6925   -8.5386    4.0081 C   0  0  0  0  0  0  0  0  0  0  0  0
    1.7450   -8.3327    2.9324 C   0  0  0  0  0  0  0  0  0  0  0  0
    2.1388   -9.6122    2.2151 C   0  0  0  0  0  0  0  0  0  0  0  0
    2.2412   -7.0998    2.6711 C   0  0  0  0  0  0  0  0  0  0  0  0
    3.2742   -6.7084    1.6119 C   0  0  0  0  0  0  0  0  0  0  0  0
    4.3650   -5.6645    2.0697 C   0  0  2  0  0  0  0  0  0  0  0  0
    5.0687   -6.3001    3.3262 C   0  0  2  0  0  0  0  0  0  0  0  0
    5.6874   -5.1416    4.1272 C   0  0  0  0  0  0  0  0  0  0  0  0
    4.9982   -3.9242    3.5854 C   0  0  1  0  0  0  0  0  0  0  0  0
    5.4753   -3.1865    2.2954 C   0  0  2  0  0  0  0  0  0  0  0  0
    4.1417   -2.9253    2.2659 O   0  0  0  0  0  0  0  0  0  0  0  0
    3.8232   -4.2935    2.6560 C   0  0  2  0  0  0  0  0  0  0  0  0
    2.6078   -3.7888    1.7947 C   0  0  0  0  0  0  0  0  0  0  0  0
    2.9429   -3.6025    0.2573 C   0  0  0  0  0  0  0  0  0  0  0  0
    4.4073   -3.1528   -0.1223 C   0  0  1  0  0  0  0  0  0  0  0  0
    4.4082   -1.6014   -0.3167 C   0  0  0  0  0  0  0  0  0  0  0  0
    5.5866   -3.7545    0.8149 C   0  0  1  0  0  0  0  0  0  0  0  0
    6.9149   -3.3266    0.1424 C   0  0  0  0  0  0  0  0  0  0  0  0
    7.3862   -2.1894    0.2391 O   0  0  0  0  0  0  0  0  0  0  0  0
    5.4547   -5.3309    0.9480 C   0  0  2  0  0  0  0  0  0  0  0  0
    5.0013   -5.8567   -0.2863 O   0  0  0  0  0  0  0  0  0  0  0  0
    6.8209   -6.1247    1.0889 C   0  0  1  0  0  0  0  0  0  0  0  0
    7.8374   -5.5027    1.8701 O   0  0  0  0  0  0  0  0  0  0  0  0
    6.6379   -7.5364    1.6660 C   0  0  0  0  0  0  0  0  0  0  0  0
    6.0172   -7.4572    3.0480 C   0  0  0  0  0  0  0  0  0  0  0  0
    6.2852   -8.2959    3.9149 O   0  0  0  0  0  0  0  0  0  0  0  0
   -0.2147   -8.9599    3.5727 H   0  0  0  0  0  0  0  0  0  0  0  0
    0.4276   -7.6078    4.5069 H   0  0  0  0  0  0  0  0  0  0  0  0
    1.0530   -9.2384    4.7649 H   0  0  0  0  0  0  0  0  0  0  0  0
    1.2684  -10.0325    1.7112 H   0  0  0  0  0  0  0  0  0  0  0  0
    2.4856  -10.3530    2.9391 H   0  0  0  0  0  0  0  0  0  0  0  0
    2.9212   -9.4957    1.4689 H   0  0  0  0  0  0  0  0  0  0  0  0
    1.8601   -6.2804    3.2608 H   0  0  0  0  0  0  0  0  0  0  0  0
    3.7767   -7.5947    1.2506 H   0  0  0  0  0  0  0  0  0  0  0  0
    2.7014   -6.3542    0.7660 H   0  0  0  0  0  0  0  0  0  0  0  0
    4.3011   -6.7004    3.9841 H   0  0  0  0  0  0  0  0  0  0  0  0
    5.4793   -5.2743    5.1884 H   0  0  0  0  0  0  0  0  0  0  0  0
    6.7676   -5.0779    4.0379 H   0  0  0  0  0  0  0  0  0  0  0  0
    4.7216   -3.2006    4.3621 H   0  0  0  0  0  0  0  0  0  0  0  0
    6.0636   -2.2831    2.5131 H   0  0  0  0  0  0  0  0  0  0  0  0
    1.8024   -4.5126    1.8387 H   0  0  0  0  0  0  0  0  0  0  0  0
    2.0780   -2.9078    2.1977 H   0  0  0  0  0  0  0  0  0  0  0  0
    2.7334   -4.5280   -0.2781 H   0  0  0  0  0  0  0  0  0  0  0  0
    2.2177   -2.9094   -0.1746 H   0  0  0  0  0  0  0  0  0  0  0  0
    4.5789   -3.5226   -1.1435 H   0  0  0  0  0  0  0  0  0  0  0  0
    4.2521   -1.0630    0.6195 H   0  0  0  0  0  0  0  0  0  0  0  0
    3.6077   -1.2947   -0.9925 H   0  0  0  0  0  0  0  0  0  0  0  0
    5.3222   -1.2180   -0.7685 H   0  0  0  0  0  0  0  0  0  0  0  0
    7.4153   -4.0974   -0.4455 H   0  0  0  0  0  0  0  0  0  0  0  0
    4.2035   -5.4386   -0.5302 H   0  0  0  0  0  0  0  0  0  0  0  0
    7.2822   -6.2421    0.1092 H   0  0  0  0  0  0  0  0  0  0  0  0
    8.5883   -6.0615    1.8977 H   0  0  0  0  0  0  0  0  0  0  0  0
    5.9778   -8.1167    1.0147 H   0  0  0  0  0  0  0  0  0  0  0  0
    7.5865   -8.0693    1.7065 H   0  0  0  0  0  0  0  0  0  0  0  0
  1  2  1  0
  1 27  1  0
  1 28  1  0
  1 29  1  0
  2  3  1  0
  2  4  2  3
  3 30  1  0
  3 31  1  0
  3 32  1  0
  4  5  1  0
  4 33  1  0
  6  5  1  6
  5 34  1  0
  5 35  1  0
  6 12  1  0
  6 20  1  0
  6  7  1  0
  7 25  1  0
  7  8  1  0
  7 36  1  1
  8  9  1  0
  8 37  1  0
  8 38  1  0
  9 12  1  0
  9 10  1  0
  9 39  1  1
 10 17  1  0
 10 11  1  0
 10 40  1  1
 12 11  1  6
 12 13  1  0
 13 14  1  0
 13 41  1  0
 13 42  1  0
 14 15  1  0
 14 43  1  0
 14 44  1  0
 15 16  1  0
 15 17  1  0
 15 45  1  6
 16 46  1  0
 16 47  1  0
 16 48  1  0
 17 18  1  6
 17 20  1  0
 18 19  2  0
 18 49  1  0
 20 21  1  6
 20 22  1  0
 21 50  1  0
 22 23  1  0
 22 24  1  0
 22 51  1  6
 23 52  1  0
 24 25  1  0
 24 53  1  0
 24 54  1  0
 25 26  2  0
M  END
>  <i_m_ct_stereo_status>  (344) 
1

>  <s_m_source_file>  (344) 
/var/tmp/pbs.5076255.sched01/tmpr9sv22dd/120oksnzf6p.sdf

>  <i_m_source_file_index>  (344) 
26

>  <i_lp_mmshare_version>  (344) 
48012

>  <i_f3d_flags>  (344) 
0

>  <s_epik_input>  (344) 
W0NIM11DKFtDSDNdKT1bQ0hdW0NIMl1bQ0BAXTEoW0NAQF0yMzQpW0NAQEhdNVtDSDJdW0NASF0yW0NASF0oTzMpW0NAXShbQ0hdPU8pKFtDQEhdKFtDSDNdKVtDSDJdW0NIMl00KVtDQEBdMShbT0hdKVtDQEBIXShbT0hdKVtDSDJdQzU9Tw==

>  <s_epik_cmdline>  (344) 
J2VwaWtfcHl0aG9uJywgJy1waHQnLCAnMi4wJywgJy1waCcsICc3LjAnLCAnLXRuJywgJzgnLCAnLW1hJywgJzIwMCcsICctaW1hZScsICc8aW5maWxlLm1hZT4nLCAnLW9tYWUnLCAnPG91dGZpbGUubWFlPic=

>  <r_lp_tautomer_probability>  (344) 
1

>  <r_epik_Ionization_Penalty>  (344) 
2.55891e-07

>  <r_epik_Ionization_Penalty_Charging>  (344) 
0

>  <r_epik_Ionization_Penalty_Neutral>  (344) 
2.55891e-07

>  <r_epik_State_Penalty>  (344) 
-0

>  <r_epik_Charging_Adjusted_Penalty>  (344) 
0

>  <i_epik_Tot_Q>  (344) 
0

>  <i_epik_Tot_abs_Q>  (344) 
0

>  <s_lp_Force_Field>  (344) 
OPLS3e

>  <r_lp_Energy>  (344) 
144.917

>  <b_lp_Chiralities_Consistent>  (344) 
1

>  <s_lp_Variant>  (344) 
108:0-1

>  <s_i_glide_gridfile>  (344) 
pfpi4k_grid

>  <i_i_glide_lignum>  (344) 
26

>  <i_i_glide_rotatable_bonds>  (344) 
5

>  <r_i_docking_score>  (344) 
-2.62483

>  <r_i_glide_ligand_efficiency>  (344) 
-0.100955

>  <r_i_glide_ligand_efficiency_sa>  (344) 
-0.299079

>  <r_i_glide_ligand_efficiency_ln>  (344) 
-0.616433

>  <r_i_glide_gscore>  (344) 
-2.62483

>  <r_i_glide_lipo>  (344) 
-0.520909

>  <r_i_glide_hbond>  (344) 
0

>  <r_i_glide_metal>  (344) 
-0

>  <r_i_glide_rewards>  (344) 
-1.13907

>  <r_i_glide_evdw>  (344) 
-19.5594

>  <r_i_glide_ecoul>  (344) 
-1.88087

>  <r_i_glide_erotb>  (344) 
0.295244

>  <r_i_glide_esite>  (344) 
0

>  <r_i_glide_emodel>  (344) 
-24.6631

>  <r_i_glide_energy>  (344) 
-21.4403

>  <r_i_glide_einternal>  (344) 
1.25597

>  <r_i_glide_intrahb_reward>  (344) 
-0

>  <i_i_glide_confnum>  (344) 
1

>  <i_i_glide_posenum>  (344) 
10

>  <r_i_glide_eff_state_penalty>  (344) 
0

>  <ligand_id>  (344) 
108

>  <original_smiles>  (344) 
CC(C)=CCC12C3CC4C5OC41CCC(C)C5(C=O)C2(O)C(O)CC3=O

>  <smiles>  (344) 
[H]OC1([H])C([H])([H])C(=O)C2([H])C([H])([H])C3([H])C4([H])OC35C([H])([H])C([H])([H])C([H])(C([H])([H])[H])C4(C([H])=O)C1(O[H])C25C([H])([H])C([H])=C(C([H])([H])[H])C([H])([H])[H]

$$$$
108:0:2
     RDKit          3D

 54 58  0  0  1  0  0  0  0  0999 V2000
    1.1605   -7.9304    4.7504 C   0  0  0  0  0  0  0  0  0  0  0  0
    1.4139   -7.1842    3.4474 C   0  0  0  0  0  0  0  0  0  0  0  0
    1.1439   -8.0286    2.2058 C   0  0  0  0  0  0  0  0  0  0  0  0
    1.8240   -5.9033    3.4511 C   0  0  0  0  0  0  0  0  0  0  0  0
    2.1040   -4.9962    2.2436 C   0  0  0  0  0  0  0  0  0  0  0  0
    3.5029   -4.2830    2.2217 C   0  0  2  0  0  0  0  0  0  0  0  0
    4.5734   -5.4240    2.3880 C   0  0  2  0  0  0  0  0  0  0  0  0
    5.8420   -4.7665    2.9422 C   0  0  0  0  0  0  0  0  0  0  0  0
    5.3634   -3.4479    3.4524 C   0  0  1  0  0  0  0  0  0  0  0  0
    5.2155   -2.1927    2.5395 C   0  0  2  0  0  0  0  0  0  0  0  0
    4.2558   -1.9464    3.4743 O   0  0  0  0  0  0  0  0  0  0  0  0
    3.8240   -3.3396    3.4519 C   0  0  2  0  0  0  0  0  0  0  0  0
    2.5542   -2.4939    3.8405 C   0  0  0  0  0  0  0  0  0  0  0  0
    1.9917   -1.6075    2.6445 C   0  0  0  0  0  0  0  0  0  0  0  0
    3.0294   -1.0448    1.6041 C   0  0  1  0  0  0  0  0  0  0  0  0
    3.4003    0.4176    2.0038 C   0  0  0  0  0  0  0  0  0  0  0  0
    4.2849   -2.0107    1.2666 C   0  0  1  0  0  0  0  0  0  0  0  0
    5.0082   -1.2937    0.1018 C   0  0  0  0  0  0  0  0  0  0  0  0
    6.2218   -1.0559    0.1031 O   0  0  0  0  0  0  0  0  0  0  0  0
    3.7922   -3.4581    0.8679 C   0  0  2  0  0  0  0  0  0  0  0  0
    2.5807   -3.3508    0.1333 O   0  0  0  0  0  0  0  0  0  0  0  0
    4.6819   -4.2245   -0.1957 C   0  0  1  0  0  0  0  0  0  0  0  0
    6.0908   -4.0354   -0.1081 O   0  0  0  0  0  0  0  0  0  0  0  0
    4.4432   -5.7419   -0.1789 C   0  0  0  0  0  0  0  0  0  0  0  0
    4.7914   -6.3229    1.1779 C   0  0  0  0  0  0  0  0  0  0  0  0
    5.2334   -7.4622    1.2894 O   0  0  0  0  0  0  0  0  0  0  0  0
    0.1297   -8.2706    4.8054 H   0  0  0  0  0  0  0  0  0  0  0  0
    1.3662   -7.3137    5.6207 H   0  0  0  0  0  0  0  0  0  0  0  0
    1.8038   -8.8180    4.8080 H   0  0  0  0  0  0  0  0  0  0  0  0
    0.0954   -8.3356    2.1839 H   0  0  0  0  0  0  0  0  0  0  0  0
    1.7442   -8.9377    2.2415 H   0  0  0  0  0  0  0  0  0  0  0  0
    1.3624   -7.5373    1.2675 H   0  0  0  0  0  0  0  0  0  0  0  0
    1.9749   -5.4277    4.4110 H   0  0  0  0  0  0  0  0  0  0  0  0
    1.9719   -5.5526    1.3264 H   0  0  0  0  0  0  0  0  0  0  0  0
    1.3057   -4.2766    2.2487 H   0  0  0  0  0  0  0  0  0  0  0  0
    4.2475   -6.0867    3.1861 H   0  0  0  0  0  0  0  0  0  0  0  0
    6.2452   -5.3825    3.7508 H   0  0  0  0  0  0  0  0  0  0  0  0
    6.6498   -4.6705    2.2179 H   0  0  0  0  0  0  0  0  0  0  0  0
    5.8018   -3.1748    4.4267 H   0  0  0  0  0  0  0  0  0  0  0  0
    6.0569   -1.4914    2.6305 H   0  0  0  0  0  0  0  0  0  0  0  0
    1.7405   -3.1476    4.1367 H   0  0  0  0  0  0  0  0  0  0  0  0
    2.6494   -1.8942    4.7569 H   0  0  0  0  0  0  0  0  0  0  0  0
    1.2646   -2.1902    2.0795 H   0  0  0  0  0  0  0  0  0  0  0  0
    1.3891   -0.8000    3.0548 H   0  0  0  0  0  0  0  0  0  0  0  0
    2.4666   -0.8915    0.6850 H   0  0  0  0  0  0  0  0  0  0  0  0
    3.9682    0.4712    2.9314 H   0  0  0  0  0  0  0  0  0  0  0  0
    2.5061    1.0220    2.1348 H   0  0  0  0  0  0  0  0  0  0  0  0
    3.9851    0.9190    1.2249 H   0  0  0  0  0  0  0  0  0  0  0  0
    4.3619   -1.0036   -0.7334 H   0  0  0  0  0  0  0  0  0  0  0  0
    2.6136   -2.5959   -0.4336 H   0  0  0  0  0  0  0  0  0  0  0  0
    4.4392   -3.8727   -1.1987 H   0  0  0  0  0  0  0  0  0  0  0  0
    6.4003   -4.3305    0.7254 H   0  0  0  0  0  0  0  0  0  0  0  0
    3.3918   -5.9547   -0.3630 H   0  0  0  0  0  0  0  0  0  0  0  0
    5.0151   -6.2426   -0.9605 H   0  0  0  0  0  0  0  0  0  0  0  0
  1  2  1  0
  1 27  1  0
  1 28  1  0
  1 29  1  0
  2  3  1  0
  2  4  2  3
  3 30  1  0
  3 31  1  0
  3 32  1  0
  4  5  1  0
  4 33  1  0
  6  5  1  6
  5 34  1  0
  5 35  1  0
  6 12  1  0
  6 20  1  0
  6  7  1  0
  7 25  1  0
  7  8  1  0
  7 36  1  1
  8  9  1  0
  8 37  1  0
  8 38  1  0
  9 12  1  0
  9 10  1  0
  9 39  1  1
 10 17  1  0
 10 11  1  0
 10 40  1  6
 12 11  1  6
 12 13  1  0
 13 14  1  0
 13 41  1  0
 13 42  1  0
 14 15  1  0
 14 43  1  0
 14 44  1  0
 15 16  1  0
 15 17  1  0
 15 45  1  6
 16 46  1  0
 16 47  1  0
 16 48  1  0
 17 18  1  6
 17 20  1  0
 18 19  2  0
 18 49  1  0
 20 21  1  6
 20 22  1  0
 21 50  1  0
 22 23  1  0
 22 24  1  0
 22 51  1  6
 23 52  1  0
 24 25  1  0
 24 53  1  0
 24 54  1  0
 25 26  2  0
M  END
>  <i_m_ct_stereo_status>  (345) 
1

>  <s_m_source_file>  (345) 
/var/tmp/pbs.5076255.sched01/tmpr9sv22dd/120oksnzf6p.sdf

>  <i_m_source_file_index>  (345) 
26

>  <i_lp_mmshare_version>  (345) 
48012

>  <i_f3d_flags>  (345) 
0

>  <s_epik_input>  (345) 
W0NIM11DKFtDSDNdKT1bQ0hdW0NIMl1bQ0BAXTEoW0NAQF0yMzQpW0NAQEhdNVtDSDJdW0NASF0yW0NASF0oTzMpW0NAXShbQ0hdPU8pKFtDQEhdKFtDSDNdKVtDSDJdW0NIMl00KVtDQEBdMShbT0hdKVtDQEBIXShbT0hdKVtDSDJdQzU9Tw==

>  <s_epik_cmdline>  (345) 
J2VwaWtfcHl0aG9uJywgJy1waHQnLCAnMi4wJywgJy1waCcsICc3LjAnLCAnLXRuJywgJzgnLCAnLW1hJywgJzIwMCcsICctaW1hZScsICc8aW5maWxlLm1hZT4nLCAnLW9tYWUnLCAnPG91dGZpbGUubWFlPic=

>  <r_lp_tautomer_probability>  (345) 
1

>  <r_epik_Ionization_Penalty>  (345) 
2.55891e-07

>  <r_epik_Ionization_Penalty_Charging>  (345) 
0

>  <r_epik_Ionization_Penalty_Neutral>  (345) 
2.55891e-07

>  <r_epik_State_Penalty>  (345) 
-0

>  <r_epik_Charging_Adjusted_Penalty>  (345) 
0

>  <i_epik_Tot_Q>  (345) 
0

>  <i_epik_Tot_abs_Q>  (345) 
0

>  <s_lp_Force_Field>  (345) 
OPLS3e

>  <r_lp_Energy>  (345) 
144.917

>  <b_lp_Chiralities_Consistent>  (345) 
1

>  <s_lp_Variant>  (345) 
108:0-1

>  <s_i_glide_gridfile>  (345) 
pfpi4k_grid

>  <i_i_glide_lignum>  (345) 
26

>  <i_i_glide_rotatable_bonds>  (345) 
5

>  <r_i_docking_score>  (345) 
-2.51395

>  <r_i_glide_ligand_efficiency>  (345) 
-0.0966905

>  <r_i_glide_ligand_efficiency_sa>  (345) 
-0.286445

>  <r_i_glide_ligand_efficiency_ln>  (345) 
-0.590394

>  <r_i_glide_gscore>  (345) 
-2.51395

>  <r_i_glide_lipo>  (345) 
-0.200063

>  <r_i_glide_hbond>  (345) 
-0.00818933

>  <r_i_glide_metal>  (345) 
-0

>  <r_i_glide_rewards>  (345) 
-1.09209

>  <r_i_glide_evdw>  (345) 
-19.4491

>  <r_i_glide_ecoul>  (345) 
-3.57598

>  <r_i_glide_erotb>  (345) 
0.295244

>  <r_i_glide_esite>  (345) 
0

>  <r_i_glide_emodel>  (345) 
-26.3363

>  <r_i_glide_energy>  (345) 
-23.0251

>  <r_i_glide_einternal>  (345) 
0.980108

>  <r_i_glide_intrahb_reward>  (345) 
-0

>  <i_i_glide_confnum>  (345) 
4

>  <i_i_glide_posenum>  (345) 
5

>  <r_i_glide_eff_state_penalty>  (345) 
0

>  <ligand_id>  (345) 
108

>  <original_smiles>  (345) 
CC(C)=CCC12C3CC4C5OC41CCC(C)C5(C=O)C2(O)C(O)CC3=O

>  <smiles>  (345) 
[H]OC1([H])C([H])([H])C(=O)C2([H])C([H])([H])C3([H])C4([H])OC35C([H])([H])C([H])([H])C([H])(C([H])([H])[H])C4(C([H])=O)C1(O[H])C25C([H])([H])C([H])=C(C([H])([H])[H])C([H])([H])[H]

$$$$
110:0:0
     RDKit          3D

 62 67  0  0  1  0  0  0  0  0999 V2000
   -1.9283    5.9178    2.1802 C   0  0  0  0  0  0  0  0  0  0  0  0
   -1.3578    5.2182    3.2780 O   0  0  0  0  0  0  0  0  0  0  0  0
   -1.5664    3.8069    3.2818 C   0  0  0  0  0  0  0  0  0  0  0  0
   -0.7146    3.0632    4.3835 C   0  0  2  0  0  0  0  0  0  0  0  0
    0.1358    4.1464    5.3636 C   0  0  1  0  0  0  0  0  0  0  0  0
    0.2279    3.6483    6.8061 C   0  0  0  0  0  0  0  0  0  0  0  0
    1.4391    2.6846    6.7071 C   0  0  2  0  0  0  0  0  0  0  0  0
    1.7324    2.0089    7.9427 O   0  0  0  0  0  0  0  0  0  0  0  0
    1.9031    2.8009    9.1136 C   0  0  0  0  0  0  0  0  0  0  0  0
    2.5962    3.4433    6.1594 C   0  0  1  0  0  0  0  0  0  0  0  0
    3.4754    2.2313    5.5356 C   0  0  2  0  0  0  0  0  0  0  0  0
    3.3592    2.4231    4.0891 C   0  0  0  0  0  0  0  0  0  0  0  0
    1.9241    2.1750    4.0188 N   0  0  2  0  0  0  0  0  0  0  0  0
    1.3305    2.3921    2.6610 C   0  0  0  0  0  0  0  0  0  0  0  0
    0.2005    1.3902    2.5481 C   0  0  0  0  0  0  0  0  0  0  0  0
   -0.2118    1.4181    4.0084 C   0  0  2  0  0  0  0  0  0  0  0  0
   -1.3571    0.5411    4.3424 C   0  0  0  0  0  0  0  0  0  0  0  0
   -1.2613    0.1683    5.6044 C   0  0  0  0  0  0  0  0  0  0  0  0
   -0.0390    0.7130    6.3441 C   0  0  1  0  0  0  0  0  0  0  0  0
    0.4885   -0.3459    7.1487 O   0  0  0  0  0  0  0  0  0  0  0  0
    1.0286    1.7816    5.4805 C   0  0  2  0  0  0  0  0  0  0  0  0
    1.3014    0.6004    4.7644 C   0  0  2  0  0  0  0  0  0  0  0  0
    2.8241    0.7070    5.5995 C   0  0  1  0  0  0  0  0  0  0  0  0
    3.7316   -0.2134    4.9948 O   0  0  0  0  0  0  0  0  0  0  0  0
    4.8701   -0.5483    5.7939 C   0  0  0  0  0  0  0  0  0  0  0  0
    1.7022    4.5290    5.3281 C   0  0  1  0  0  0  0  0  0  0  0  0
    2.1520    5.0279    4.0743 O   0  0  0  0  0  0  0  0  0  0  0  0
    3.3573    5.7887    4.1042 C   0  0  0  0  0  0  0  0  0  0  0  0
   -1.8301    6.9889    2.3396 H   0  0  0  0  0  0  0  0  0  0  0  0
   -2.9841    5.6758    2.0496 H   0  0  0  0  0  0  0  0  0  0  0  0
   -1.3898    5.7448    1.2774 H   0  0  0  0  0  0  0  0  0  0  0  0
   -2.6272    3.6161    3.4603 H   0  0  0  0  0  0  0  0  0  0  0  0
   -1.3824    3.4652    2.2728 H   0  0  0  0  0  0  0  0  0  0  0  0
   -1.5284    2.8697    5.0812 H   0  0  0  0  0  0  0  0  0  0  0  0
   -0.4352    5.0714    5.4223 H   0  0  0  0  0  0  0  0  0  0  0  0
    0.4340    4.4732    7.4903 H   0  0  0  0  0  0  0  0  0  0  0  0
   -0.7152    3.2371    7.1604 H   0  0  0  0  0  0  0  0  0  0  0  0
    2.2074    2.1519    9.9350 H   0  0  0  0  0  0  0  0  0  0  0  0
    0.9749    3.2854    9.4147 H   0  0  0  0  0  0  0  0  0  0  0  0
    2.6760    3.5611    9.0059 H   0  0  0  0  0  0  0  0  0  0  0  0
    3.1684    3.9735    6.9213 H   0  0  0  0  0  0  0  0  0  0  0  0
    4.5068    2.2977    5.8850 H   0  0  0  0  0  0  0  0  0  0  0  0
    3.7043    3.3655    3.6826 H   0  0  0  0  0  0  0  0  0  0  0  0
    3.8958    1.6480    3.5388 H   0  0  0  0  0  0  0  0  0  0  0  0
    1.0111    3.4219    2.5166 H   0  0  0  0  0  0  0  0  0  0  0  0
    2.0678    2.1892    1.8846 H   0  0  0  0  0  0  0  0  0  0  0  0
   -0.5658    1.6516    1.8178 H   0  0  0  0  0  0  0  0  0  0  0  0
    0.5784    0.3986    2.2741 H   0  0  0  0  0  0  0  0  0  0  0  0
   -2.1352    0.2658    3.6524 H   0  0  0  0  0  0  0  0  0  0  0  0
   -1.9696   -0.4798    6.0849 H   0  0  0  0  0  0  0  0  0  0  0  0
   -0.5392    1.2570    7.1358 H   0  0  0  0  0  0  0  0  0  0  0  0
    1.1078    0.0324    7.7598 H   0  0  0  0  0  0  0  0  0  0  0  0
    1.0579   -0.4657    4.8703 H   0  0  0  0  0  0  0  0  0  0  0  0
    2.7543    0.3734    6.6348 H   0  0  0  0  0  0  0  0  0  0  0  0
    5.5482   -1.1849    5.2239 H   0  0  0  0  0  0  0  0  0  0  0  0
    4.5774   -1.1016    6.6877 H   0  0  0  0  0  0  0  0  0  0  0  0
    5.4500    0.3187    6.1110 H   0  0  0  0  0  0  0  0  0  0  0  0
    1.7471    5.4270    5.9492 H   0  0  0  0  0  0  0  0  0  0  0  0
    3.6385    6.0061    3.0731 H   0  0  0  0  0  0  0  0  0  0  0  0
    4.1829    5.2354    4.5553 H   0  0  0  0  0  0  0  0  0  0  0  0
    3.2571    6.7293    4.6455 H   0  0  0  0  0  0  0  0  0  0  0  0
    2.0611    1.1882    3.8422 H   0  0  0  0  0  0  0  0  0  0  0  0
  1  2  1  0
  1 29  1  0
  1 30  1  0
  1 31  1  0
  2  3  1  0
  3  4  1  0
  3 32  1  0
  3 33  1  0
  4 16  1  0
  4  5  1  0
  4 34  1  1
  5 26  1  0
  5  6  1  0
  5 35  1  1
  6  7  1  0
  6 36  1  0
  6 37  1  0
 21  7  1  6
  7  8  1  1
  7 10  1  0
  8  9  1  0
  9 38  1  0
  9 39  1  0
  9 40  1  0
 10 11  1  0
 10 26  1  0
 10 41  1  1
 11 23  1  0
 11 12  1  0
 11 42  1  1
 12 13  1  0
 12 43  1  0
 12 44  1  0
 13 21  1  0
 13 14  1  0
 13 62  1  6
 14 15  1  0
 14 45  1  0
 14 46  1  0
 16 15  1  6
 15 47  1  0
 15 48  1  0
 16 22  1  0
 16 17  1  0
 17 18  2  0
 17 49  1  0
 18 19  1  0
 18 50  1  0
 19 20  1  0
 19 21  1  0
 19 51  1  1
 20 52  1  0
 21 22  1  0
 22 23  1  0
 22 53  1  1
 23 24  1  0
 23 54  1  1
 24 25  1  0
 25 55  1  0
 25 56  1  0
 25 57  1  0
 26 27  1  0
 26 58  1  1
 27 28  1  0
 28 59  1  0
 28 60  1  0
 28 61  1  0
M  CHG  1  13   1
M  END
>  <i_m_ct_stereo_status>  (346) 
1

>  <s_m_source_file>  (346) 
/var/tmp/pbs.5076255.sched01/tmpr9sv22dd/120oksnzf6p.sdf

>  <i_m_source_file_index>  (346) 
28

>  <i_lp_mmshare_version>  (346) 
48012

>  <i_f3d_flags>  (346) 
0

>  <s_epik_input>  (346) 
W0NIM11PW0NIMl1bQ0BASF0xW0NAQEhdKFtDSDJdMilbQ0BIXShPW0NIM10pW0NAQEhdKFtDQF0yKE9bQ0gzXSlbQ0BAXTMoW0NASF00W0NAQF0xNTYpW0NASF0oW09IXSlbQ0hdPVtDSF02KVtDQEBIXShbQ0BASF00T1tDSDNdKVtDSDJdTjNbQ0gyXVtDSDJdNQ==

>  <s_epik_cmdline>  (346) 
J2VwaWtfcHl0aG9uJywgJy1waHQnLCAnMi4wJywgJy1waCcsICc3LjAnLCAnLXRuJywgJzgnLCAnLW1hJywgJzIwMCcsICctaW1hZScsICc8aW5maWxlLm1hZT4nLCAnLW9tYWUnLCAnPG91dGZpbGUubWFlPic=

>  <r_epik_Ionization_Penalty>  (346) 
0.286217

>  <r_epik_Ionization_Penalty_Charging>  (346) 
0.286217

>  <r_epik_Ionization_Penalty_Neutral>  (346) 
4.53228e-07

>  <r_epik_State_Penalty>  (346) 
0.279035

>  <r_epik_Charging_Adjusted_Penalty>  (346) 
0.565252

>  <i_epik_Tot_Q>  (346) 
1

>  <i_epik_Tot_abs_Q>  (346) 
1

>  <s_lp_Force_Field>  (346) 
OPLS3e

>  <r_lp_Energy>  (346) 
608.245

>  <b_lp_Chiralities_Consistent>  (346) 
1

>  <s_lp_Variant>  (346) 
110:0-1

>  <s_i_glide_gridfile>  (346) 
pfpi4k_grid

>  <i_i_glide_lignum>  (346) 
28

>  <i_i_glide_rotatable_bonds>  (346) 
6

>  <r_i_docking_score>  (346) 
-2.55924

>  <r_i_glide_ligand_efficiency>  (346) 
-0.0914015

>  <r_i_glide_ligand_efficiency_sa>  (346) 
-0.277549

>  <r_i_glide_ligand_efficiency_ln>  (346) 
-0.590748

>  <r_i_glide_gscore>  (346) 
-2.55924

>  <r_i_glide_lipo>  (346) 
-0.0322975

>  <r_i_glide_hbond>  (346) 
-0.16

>  <r_i_glide_metal>  (346) 
-0

>  <r_i_glide_rewards>  (346) 
-1.23289

>  <r_i_glide_evdw>  (346) 
-11.7935

>  <r_i_glide_ecoul>  (346) 
-4.39894

>  <r_i_glide_erotb>  (346) 
0.126737

>  <r_i_glide_esite>  (346) 
-0.0112726

>  <r_i_glide_emodel>  (346) 
-20.4629

>  <r_i_glide_energy>  (346) 
-16.1924

>  <r_i_glide_einternal>  (346) 
7.08854

>  <r_i_glide_intrahb_reward>  (346) 
-0.5

>  <i_i_glide_confnum>  (346) 
6

>  <i_i_glide_posenum>  (346) 
5

>  <r_i_glide_eff_state_penalty>  (346) 
0

>  <ligand_id>  (346) 
110

>  <original_smiles>  (346) 
COCC1C2CC3(OC)C(C4CN5CCC16C=CC(O)C53C6C4OC)C2OC

>  <smiles>  (346) 
[H]OC1([H])C([H])=C([H])C23C([H])([H])C([H])([H])[N+]4([H])C([H])([H])C5([H])C([H])(OC([H])([H])[H])C2([H])C14C1(OC([H])([H])[H])C([H])([H])C([H])(C([H])(OC([H])([H])[H])C51[H])C3([H])C([H])([H])OC([H])([H])[H]

$$$$
110:0:1
     RDKit          3D

 62 67  0  0  1  0  0  0  0  0999 V2000
    4.2256   -1.0775    4.1946 C   0  0  0  0  0  0  0  0  0  0  0  0
    3.1671   -0.1167    4.2576 O   0  0  0  0  0  0  0  0  0  0  0  0
    3.4951    1.1705    4.7835 C   0  0  0  0  0  0  0  0  0  0  0  0
    2.2172    2.0588    4.9880 C   0  0  2  0  0  0  0  0  0  0  0  0
    1.1298    1.3965    6.0879 C   0  0  1  0  0  0  0  0  0  0  0  0
    0.4314    2.4785    6.9276 C   0  0  0  0  0  0  0  0  0  0  0  0
   -0.6973    2.9265    5.9685 C   0  0  2  0  0  0  0  0  0  0  0  0
   -1.5040    3.9946    6.4764 O   0  0  0  0  0  0  0  0  0  0  0  0
   -2.0900    3.8670    7.7670 C   0  0  0  0  0  0  0  0  0  0  0  0
   -1.4955    1.7241    5.5982 C   0  0  1  0  0  0  0  0  0  0  0  0
   -2.1217    2.2309    4.1913 C   0  0  2  0  0  0  0  0  0  0  0  0
   -1.4625    1.3760    3.2311 C   0  0  0  0  0  0  0  0  0  0  0  0
   -0.1277    1.9482    3.4177 N   0  0  2  0  0  0  0  0  0  0  0  0
    0.9474    1.2646    2.6452 C   0  0  0  0  0  0  0  0  0  0  0  0
    2.0133    2.2982    2.4027 C   0  0  0  0  0  0  0  0  0  0  0  0
    1.8018    3.1066    3.6677 C   0  0  2  0  0  0  0  0  0  0  0  0
    2.6772    4.2998    3.7829 C   0  0  0  0  0  0  0  0  0  0  0  0
    2.0657    5.1871    4.5418 C   0  0  0  0  0  0  0  0  0  0  0  0
    0.6810    4.7801    5.0406 C   0  0  1  0  0  0  0  0  0  0  0  0
   -0.1769    5.9119    4.9061 O   0  0  0  0  0  0  0  0  0  0  0  0
    0.1148    3.1947    4.6346 C   0  0  2  0  0  0  0  0  0  0  0  0
    0.0713    3.7577    3.3554 C   0  0  2  0  0  0  0  0  0  0  0  0
   -1.6365    3.7071    3.6659 C   0  0  1  0  0  0  0  0  0  0  0  0
   -2.3118    3.9402    2.4661 O   0  0  0  0  0  0  0  0  0  0  0  0
   -3.6625    4.3873    2.4784 C   0  0  0  0  0  0  0  0  0  0  0  0
   -0.2785    0.6508    5.8035 C   0  0  1  0  0  0  0  0  0  0  0  0
   -0.2428   -0.5320    5.0141 O   0  0  0  0  0  0  0  0  0  0  0  0
    0.6164   -1.5621    5.5136 C   0  0  0  0  0  0  0  0  0  0  0  0
    3.7722   -2.0611    4.1720 H   0  0  0  0  0  0  0  0  0  0  0  0
    4.8919   -1.0649    5.0551 H   0  0  0  0  0  0  0  0  0  0  0  0
    4.8038   -0.9530    3.2852 H   0  0  0  0  0  0  0  0  0  0  0  0
    3.9868    1.0562    5.7491 H   0  0  0  0  0  0  0  0  0  0  0  0
    4.2245    1.6478    4.1296 H   0  0  0  0  0  0  0  0  0  0  0  0
    2.6694    2.7726    5.6593 H   0  0  0  0  0  0  0  0  0  0  0  0
    1.7139    0.8003    6.7894 H   0  0  0  0  0  0  0  0  0  0  0  0
   -0.0013    2.0715    7.8404 H   0  0  0  0  0  0  0  0  0  0  0  0
    1.1136    3.2542    7.2728 H   0  0  0  0  0  0  0  0  0  0  0  0
   -2.7229    4.7300    7.9655 H   0  0  0  0  0  0  0  0  0  0  0  0
   -1.3298    3.8464    8.5460 H   0  0  0  0  0  0  0  0  0  0  0  0
   -2.7230    2.9861    7.8578 H   0  0  0  0  0  0  0  0  0  0  0  0
   -2.3037    1.5054    6.2992 H   0  0  0  0  0  0  0  0  0  0  0  0
   -3.1969    2.1287    4.1043 H   0  0  0  0  0  0  0  0  0  0  0  0
   -1.5794    0.3095    3.4227 H   0  0  0  0  0  0  0  0  0  0  0  0
   -1.7873    1.5439    2.2118 H   0  0  0  0  0  0  0  0  0  0  0  0
    1.2705    0.3800    3.1704 H   0  0  0  0  0  0  0  0  0  0  0  0
    0.5680    0.8945    1.6967 H   0  0  0  0  0  0  0  0  0  0  0  0
    2.9985    1.8811    2.2807 H   0  0  0  0  0  0  0  0  0  0  0  0
    1.7668    2.9176    1.5303 H   0  0  0  0  0  0  0  0  0  0  0  0
    3.6454    4.3669    3.3152 H   0  0  0  0  0  0  0  0  0  0  0  0
    2.4774    6.1514    4.8094 H   0  0  0  0  0  0  0  0  0  0  0  0
    0.8500    4.8351    6.0997 H   0  0  0  0  0  0  0  0  0  0  0  0
    0.1643    6.4275    4.1918 H   0  0  0  0  0  0  0  0  0  0  0  0
    0.1894    4.7604    2.9181 H   0  0  0  0  0  0  0  0  0  0  0  0
   -1.9982    4.5031    4.3226 H   0  0  0  0  0  0  0  0  0  0  0  0
   -4.0947    4.4430    1.4922 H   0  0  0  0  0  0  0  0  0  0  0  0
   -3.7023    5.3989    2.8611 H   0  0  0  0  0  0  0  0  0  0  0  0
   -4.3294    3.7270    3.0423 H   0  0  0  0  0  0  0  0  0  0  0  0
   -0.5714    0.2261    6.7589 H   0  0  0  0  0  0  0  0  0  0  0  0
    0.6284   -2.4000    4.8091 H   0  0  0  0  0  0  0  0  0  0  0  0
    0.3267   -1.9027    6.5048 H   0  0  0  0  0  0  0  0  0  0  0  0
    1.6424   -1.2232    5.6319 H   0  0  0  0  0  0  0  0  0  0  0  0
   -0.2475    2.6559    2.7009 H   0  0  0  0  0  0  0  0  0  0  0  0
  1  2  1  0
  1 29  1  0
  1 30  1  0
  1 31  1  0
  2  3  1  0
  3  4  1  0
  3 32  1  0
  3 33  1  0
  4 16  1  0
  4  5  1  0
  4 34  1  1
  5 26  1  0
  5  6  1  0
  5 35  1  1
  6  7  1  0
  6 36  1  0
  6 37  1  0
 21  7  1  6
  7  8  1  1
  7 10  1  0
  8  9  1  0
  9 38  1  0
  9 39  1  0
  9 40  1  0
 10 11  1  0
 10 26  1  0
 10 41  1  1
 11 23  1  0
 11 12  1  0
 11 42  1  1
 12 13  1  0
 12 43  1  0
 12 44  1  0
 13 21  1  0
 13 14  1  0
 13 62  1  6
 14 15  1  0
 14 45  1  0
 14 46  1  0
 16 15  1  6
 15 47  1  0
 15 48  1  0
 16 22  1  0
 16 17  1  0
 17 18  2  0
 17 49  1  0
 18 19  1  0
 18 50  1  0
 19 20  1  0
 19 21  1  0
 19 51  1  1
 20 52  1  0
 21 22  1  0
 22 23  1  0
 22 53  1  1
 23 24  1  0
 23 54  1  1
 24 25  1  0
 25 55  1  0
 25 56  1  0
 25 57  1  0
 26 27  1  0
 26 58  1  1
 27 28  1  0
 28 59  1  0
 28 60  1  0
 28 61  1  0
M  CHG  1  13   1
M  END
>  <i_m_ct_stereo_status>  (347) 
1

>  <s_m_source_file>  (347) 
/var/tmp/pbs.5076255.sched01/tmpr9sv22dd/120oksnzf6p.sdf

>  <i_m_source_file_index>  (347) 
28

>  <i_lp_mmshare_version>  (347) 
48012

>  <i_f3d_flags>  (347) 
0

>  <s_epik_input>  (347) 
W0NIM11PW0NIMl1bQ0BASF0xW0NAQEhdKFtDSDJdMilbQ0BIXShPW0NIM10pW0NAQEhdKFtDQF0yKE9bQ0gzXSlbQ0BAXTMoW0NASF00W0NAQF0xNTYpW0NASF0oW09IXSlbQ0hdPVtDSF02KVtDQEBIXShbQ0BASF00T1tDSDNdKVtDSDJdTjNbQ0gyXVtDSDJdNQ==

>  <s_epik_cmdline>  (347) 
J2VwaWtfcHl0aG9uJywgJy1waHQnLCAnMi4wJywgJy1waCcsICc3LjAnLCAnLXRuJywgJzgnLCAnLW1hJywgJzIwMCcsICctaW1hZScsICc8aW5maWxlLm1hZT4nLCAnLW9tYWUnLCAnPG91dGZpbGUubWFlPic=

>  <r_epik_Ionization_Penalty>  (347) 
0.286217

>  <r_epik_Ionization_Penalty_Charging>  (347) 
0.286217

>  <r_epik_Ionization_Penalty_Neutral>  (347) 
4.53228e-07

>  <r_epik_State_Penalty>  (347) 
0.279035

>  <r_epik_Charging_Adjusted_Penalty>  (347) 
0.565252

>  <i_epik_Tot_Q>  (347) 
1

>  <i_epik_Tot_abs_Q>  (347) 
1

>  <s_lp_Force_Field>  (347) 
OPLS3e

>  <r_lp_Energy>  (347) 
608.245

>  <b_lp_Chiralities_Consistent>  (347) 
1

>  <s_lp_Variant>  (347) 
110:0-1

>  <s_i_glide_gridfile>  (347) 
pfpi4k_grid

>  <i_i_glide_lignum>  (347) 
28

>  <i_i_glide_rotatable_bonds>  (347) 
6

>  <r_i_docking_score>  (347) 
-2.21896

>  <r_i_glide_ligand_efficiency>  (347) 
-0.0792485

>  <r_i_glide_ligand_efficiency_sa>  (347) 
-0.240645

>  <r_i_glide_ligand_efficiency_ln>  (347) 
-0.512201

>  <r_i_glide_gscore>  (347) 
-2.21896

>  <r_i_glide_lipo>  (347) 
-0.045593

>  <r_i_glide_hbond>  (347) 
0

>  <r_i_glide_metal>  (347) 
-0

>  <r_i_glide_rewards>  (347) 
-0.732893

>  <r_i_glide_evdw>  (347) 
-17.5114

>  <r_i_glide_ecoul>  (347) 
-4.32977

>  <r_i_glide_erotb>  (347) 
0.126737

>  <r_i_glide_esite>  (347) 
-0.0421738

>  <r_i_glide_emodel>  (347) 
-22.1203

>  <r_i_glide_energy>  (347) 
-21.8412

>  <r_i_glide_einternal>  (347) 
3.29436

>  <r_i_glide_intrahb_reward>  (347) 
-0

>  <i_i_glide_confnum>  (347) 
3

>  <i_i_glide_posenum>  (347) 
15

>  <r_i_glide_eff_state_penalty>  (347) 
0

>  <ligand_id>  (347) 
110

>  <original_smiles>  (347) 
COCC1C2CC3(OC)C(C4CN5CCC16C=CC(O)C53C6C4OC)C2OC

>  <smiles>  (347) 
[H]OC1([H])C([H])=C([H])C23C([H])([H])C([H])([H])[N+]4([H])C([H])([H])C5([H])C([H])(OC([H])([H])[H])C2([H])C14C1(OC([H])([H])[H])C([H])([H])C([H])(C([H])(OC([H])([H])[H])C51[H])C3([H])C([H])([H])OC([H])([H])[H]

$$$$
110:0:2
     RDKit          3D

 62 67  0  0  1  0  0  0  0  0999 V2000
   -3.3020    4.0732    2.5198 C   0  0  0  0  0  0  0  0  0  0  0  0
   -2.3194    3.8715    3.5296 O   0  0  0  0  0  0  0  0  0  0  0  0
   -2.5216    2.7090    4.3259 C   0  0  0  0  0  0  0  0  0  0  0  0
   -1.2068    2.0954    4.8966 C   0  0  2  0  0  0  0  0  0  0  0  0
   -0.2892    3.2793    5.6628 C   0  0  1  0  0  0  0  0  0  0  0  0
    0.4641    2.7113    6.8698 C   0  0  0  0  0  0  0  0  0  0  0  0
    1.7135    2.0986    6.1727 C   0  0  2  0  0  0  0  0  0  0  0  0
    2.6101    1.4354    7.0753 O   0  0  0  0  0  0  0  0  0  0  0  0
    3.0571    2.1387    8.2314 C   0  0  0  0  0  0  0  0  0  0  0  0
    2.3800    3.1622    5.3756 C   0  0  1  0  0  0  0  0  0  0  0  0
    3.1651    2.2598    4.2685 C   0  0  2  0  0  0  0  0  0  0  0  0
    2.4771    2.5575    3.0063 C   0  0  0  0  0  0  0  0  0  0  0  0
    1.1998    1.9362    3.4362 N   0  0  2  0  0  0  0  0  0  0  0  0
    0.0896    2.1010    2.4339 C   0  0  0  0  0  0  0  0  0  0  0  0
   -0.7789    0.8826    2.6021 C   0  0  0  0  0  0  0  0  0  0  0  0
   -0.5761    0.6797    4.0837 C   0  0  2  0  0  0  0  0  0  0  0  0
   -1.2955   -0.5049    4.6501 C   0  0  0  0  0  0  0  0  0  0  0  0
   -0.6218   -0.9363    5.7024 C   0  0  0  0  0  0  0  0  0  0  0  0
    0.6586   -0.1638    6.0343 C   0  0  1  0  0  0  0  0  0  0  0  0
    1.6808   -1.0957    6.3955 O   0  0  0  0  0  0  0  0  0  0  0  0
    1.0508    1.2113    5.0413 C   0  0  2  0  0  0  0  0  0  0  0  0
    1.2396    0.2025    4.0793 C   0  0  2  0  0  0  0  0  0  0  0  0
    2.9139    0.6181    4.3061 C   0  0  1  0  0  0  0  0  0  0  0  0
    3.7002    0.0545    3.2589 O   0  0  0  0  0  0  0  0  0  0  0  0
    3.8766   -1.3510    3.3008 C   0  0  0  0  0  0  0  0  0  0  0  0
    1.0307    4.0497    5.1332 C   0  0  1  0  0  0  0  0  0  0  0  0
    0.8477    4.7513    3.9103 O   0  0  0  0  0  0  0  0  0  0  0  0
    1.8632    5.6897    3.5603 C   0  0  0  0  0  0  0  0  0  0  0  0
   -3.1521    5.0602    2.0811 H   0  0  0  0  0  0  0  0  0  0  0  0
   -4.3208    4.0333    2.8931 H   0  0  0  0  0  0  0  0  0  0  0  0
   -3.2199    3.3313    1.7294 H   0  0  0  0  0  0  0  0  0  0  0  0
   -3.1740    3.0062    5.1449 H   0  0  0  0  0  0  0  0  0  0  0  0
   -3.0759    1.9578    3.7760 H   0  0  0  0  0  0  0  0  0  0  0  0
   -1.6360    1.6255    5.7772 H   0  0  0  0  0  0  0  0  0  0  0  0
   -0.9974    4.0193    6.0338 H   0  0  0  0  0  0  0  0  0  0  0  0
    0.7502    3.5004    7.5667 H   0  0  0  0  0  0  0  0  0  0  0  0
   -0.1483    2.0342    7.4639 H   0  0  0  0  0  0  0  0  0  0  0  0
    3.7851    1.5216    8.7533 H   0  0  0  0  0  0  0  0  0  0  0  0
    2.2435    2.3342    8.9286 H   0  0  0  0  0  0  0  0  0  0  0  0
    3.5491    3.0796    7.9917 H   0  0  0  0  0  0  0  0  0  0  0  0
    3.0857    3.7535    5.9576 H   0  0  0  0  0  0  0  0  0  0  0  0
    4.2170    2.5221    4.2338 H   0  0  0  0  0  0  0  0  0  0  0  0
    2.4061    3.5662    2.6642 H   0  0  0  0  0  0  0  0  0  0  0  0
    2.8913    1.9640    2.1846 H   0  0  0  0  0  0  0  0  0  0  0  0
   -0.4187    3.0396    2.5739 H   0  0  0  0  0  0  0  0  0  0  0  0
    0.5001    2.1133    1.4337 H   0  0  0  0  0  0  0  0  0  0  0  0
   -1.7934    1.0478    2.2693 H   0  0  0  0  0  0  0  0  0  0  0  0
   -0.3480    0.0607    2.0237 H   0  0  0  0  0  0  0  0  0  0  0  0
   -2.2051   -0.9043    4.2492 H   0  0  0  0  0  0  0  0  0  0  0  0
   -0.9209   -1.7862    6.3053 H   0  0  0  0  0  0  0  0  0  0  0  0
    0.4139    0.1665    7.0272 H   0  0  0  0  0  0  0  0  0  0  0  0
    2.1055   -1.4087    5.6125 H   0  0  0  0  0  0  0  0  0  0  0  0
    1.2501   -0.8946    4.0738 H   0  0  0  0  0  0  0  0  0  0  0  0
    3.3610    0.2210    5.2219 H   0  0  0  0  0  0  0  0  0  0  0  0
    4.5690   -1.6535    2.5170 H   0  0  0  0  0  0  0  0  0  0  0  0
    2.9443   -1.8804    3.1179 H   0  0  0  0  0  0  0  0  0  0  0  0
    4.2921   -1.6880    4.2512 H   0  0  0  0  0  0  0  0  0  0  0  0
    1.1356    4.8771    5.8367 H   0  0  0  0  0  0  0  0  0  0  0  0
    1.6340    6.0349    2.5531 H   0  0  0  0  0  0  0  0  0  0  0  0
    2.8355    5.2110    3.5152 H   0  0  0  0  0  0  0  0  0  0  0  0
    1.9060    6.5585    4.2272 H   0  0  0  0  0  0  0  0  0  0  0  0
    1.4516    1.0367    3.0591 H   0  0  0  0  0  0  0  0  0  0  0  0
  1  2  1  0
  1 29  1  0
  1 30  1  0
  1 31  1  0
  2  3  1  0
  3  4  1  0
  3 32  1  0
  3 33  1  0
  4 16  1  0
  4  5  1  0
  4 34  1  1
  5 26  1  0
  5  6  1  0
  5 35  1  1
  6  7  1  0
  6 36  1  0
  6 37  1  0
 21  7  1  6
  7  8  1  1
  7 10  1  0
  8  9  1  0
  9 38  1  0
  9 39  1  0
  9 40  1  0
 10 11  1  0
 10 26  1  0
 10 41  1  1
 11 23  1  0
 11 12  1  0
 11 42  1  6
 12 13  1  0
 12 43  1  0
 12 44  1  0
 13 21  1  0
 13 14  1  0
 13 62  1  6
 14 15  1  0
 14 45  1  0
 14 46  1  0
 16 15  1  6
 15 47  1  0
 15 48  1  0
 16 22  1  0
 16 17  1  0
 17 18  2  0
 17 49  1  0
 18 19  1  0
 18 50  1  0
 19 20  1  0
 19 21  1  0
 19 51  1  1
 20 52  1  0
 21 22  1  0
 22 23  1  0
 22 53  1  1
 23 24  1  0
 23 54  1  1
 24 25  1  0
 25 55  1  0
 25 56  1  0
 25 57  1  0
 26 27  1  0
 26 58  1  1
 27 28  1  0
 28 59  1  0
 28 60  1  0
 28 61  1  0
M  CHG  1  13   1
M  END
>  <i_m_ct_stereo_status>  (348) 
1

>  <s_m_source_file>  (348) 
/var/tmp/pbs.5076255.sched01/tmpr9sv22dd/120oksnzf6p.sdf

>  <i_m_source_file_index>  (348) 
28

>  <i_lp_mmshare_version>  (348) 
48012

>  <i_f3d_flags>  (348) 
0

>  <s_epik_input>  (348) 
W0NIM11PW0NIMl1bQ0BASF0xW0NAQEhdKFtDSDJdMilbQ0BIXShPW0NIM10pW0NAQEhdKFtDQF0yKE9bQ0gzXSlbQ0BAXTMoW0NASF00W0NAQF0xNTYpW0NASF0oW09IXSlbQ0hdPVtDSF02KVtDQEBIXShbQ0BASF00T1tDSDNdKVtDSDJdTjNbQ0gyXVtDSDJdNQ==

>  <s_epik_cmdline>  (348) 
J2VwaWtfcHl0aG9uJywgJy1waHQnLCAnMi4wJywgJy1waCcsICc3LjAnLCAnLXRuJywgJzgnLCAnLW1hJywgJzIwMCcsICctaW1hZScsICc8aW5maWxlLm1hZT4nLCAnLW9tYWUnLCAnPG91dGZpbGUubWFlPic=

>  <r_epik_Ionization_Penalty>  (348) 
0.286217

>  <r_epik_Ionization_Penalty_Charging>  (348) 
0.286217

>  <r_epik_Ionization_Penalty_Neutral>  (348) 
4.53228e-07

>  <r_epik_State_Penalty>  (348) 
0.279035

>  <r_epik_Charging_Adjusted_Penalty>  (348) 
0.565252

>  <i_epik_Tot_Q>  (348) 
1

>  <i_epik_Tot_abs_Q>  (348) 
1

>  <s_lp_Force_Field>  (348) 
OPLS3e

>  <r_lp_Energy>  (348) 
608.245

>  <b_lp_Chiralities_Consistent>  (348) 
1

>  <s_lp_Variant>  (348) 
110:0-1

>  <s_i_glide_gridfile>  (348) 
pfpi4k_grid

>  <i_i_glide_lignum>  (348) 
28

>  <i_i_glide_rotatable_bonds>  (348) 
6

>  <r_i_docking_score>  (348) 
-2.04051

>  <r_i_glide_ligand_efficiency>  (348) 
-0.0728753

>  <r_i_glide_ligand_efficiency_sa>  (348) 
-0.221292

>  <r_i_glide_ligand_efficiency_ln>  (348) 
-0.471009

>  <r_i_glide_gscore>  (348) 
-2.04051

>  <r_i_glide_lipo>  (348) 
-0.000598936

>  <r_i_glide_hbond>  (348) 
0

>  <r_i_glide_metal>  (348) 
-0

>  <r_i_glide_rewards>  (348) 
-0.732893

>  <r_i_glide_evdw>  (348) 
-19.3525

>  <r_i_glide_ecoul>  (348) 
-2.91667

>  <r_i_glide_erotb>  (348) 
0.126737

>  <r_i_glide_esite>  (348) 
-0.0286312

>  <r_i_glide_emodel>  (348) 
-22.1654

>  <r_i_glide_energy>  (348) 
-22.2691

>  <r_i_glide_einternal>  (348) 
2.41903

>  <r_i_glide_intrahb_reward>  (348) 
-0

>  <i_i_glide_confnum>  (348) 
3

>  <i_i_glide_posenum>  (348) 
37

>  <r_i_glide_eff_state_penalty>  (348) 
0

>  <ligand_id>  (348) 
110

>  <original_smiles>  (348) 
COCC1C2CC3(OC)C(C4CN5CCC16C=CC(O)C53C6C4OC)C2OC

>  <smiles>  (348) 
[H]OC1([H])C([H])=C([H])C23C([H])([H])C([H])([H])[N+]4([H])C([H])([H])C5([H])C([H])(OC([H])([H])[H])C2([H])C14C1(OC([H])([H])[H])C([H])([H])C([H])(C([H])(OC([H])([H])[H])C51[H])C3([H])C([H])([H])OC([H])([H])[H]

$$$$
110:1:0
     RDKit          3D

 61 66  0  0  1  0  0  0  0  0999 V2000
    4.1674   -1.3015    4.2657 C   0  0  0  0  0  0  0  0  0  0  0  0
    2.8190   -1.7278    4.4203 O   0  0  0  0  0  0  0  0  0  0  0  0
    1.8610   -0.9769    3.6826 C   0  0  0  0  0  0  0  0  0  0  0  0
    1.6715    0.4473    4.2719 C   0  0  2  0  0  0  0  0  0  0  0  0
    1.3789    0.3780    5.9531 C   0  0  1  0  0  0  0  0  0  0  0  0
    1.9145    1.6151    6.6733 C   0  0  0  0  0  0  0  0  0  0  0  0
    0.7580    2.6433    6.4085 C   0  0  2  0  0  0  0  0  0  0  0  0
    0.9893    3.9594    6.9378 O   0  0  0  0  0  0  0  0  0  0  0  0
    1.4622    4.0616    8.2739 C   0  0  0  0  0  0  0  0  0  0  0  0
   -0.5004    2.0416    6.9461 C   0  0  1  0  0  0  0  0  0  0  0  0
   -1.6087    2.8021    6.0038 C   0  0  2  0  0  0  0  0  0  0  0  0
   -2.0980    1.7225    5.1623 C   0  0  0  0  0  0  0  0  0  0  0  0
   -0.8327    1.4329    4.4871 N   0  0  0  0  0  0  0  0  0  0  0  0
   -1.0730    0.7077    3.2187 C   0  0  0  0  0  0  0  0  0  0  0  0
    0.0346    0.9320    2.2198 C   0  0  0  0  0  0  0  0  0  0  0  0
    1.0041    1.6212    3.1309 C   0  0  2  0  0  0  0  0  0  0  0  0
    2.1821    2.1702    2.4167 C   0  0  0  0  0  0  0  0  0  0  0  0
    2.6758    3.1681    3.1221 C   0  0  0  0  0  0  0  0  0  0  0  0
    1.9487    3.4748    4.4240 C   0  0  1  0  0  0  0  0  0  0  0  0
    1.8456    4.9065    4.5297 O   0  0  0  0  0  0  0  0  0  0  0  0
    0.5380    2.5266    4.8516 C   0  0  2  0  0  0  0  0  0  0  0  0
    0.0135    3.0916    3.6793 C   0  0  2  0  0  0  0  0  0  0  0  0
   -1.0832    3.7996    4.7756 C   0  0  1  0  0  0  0  0  0  0  0  0
   -2.1713    4.4372    4.1028 O   0  0  0  0  0  0  0  0  0  0  0  0
   -2.5847    3.9498    2.8301 C   0  0  0  0  0  0  0  0  0  0  0  0
   -0.0081    0.4715    6.7927 C   0  0  1  0  0  0  0  0  0  0  0  0
   -0.9992   -0.5141    6.4794 O   0  0  0  0  0  0  0  0  0  0  0  0
   -0.5699   -1.8647    6.4368 C   0  0  0  0  0  0  0  0  0  0  0  0
    4.8281   -1.9752    4.8149 H   0  0  0  0  0  0  0  0  0  0  0  0
    4.3223   -0.2964    4.6585 H   0  0  0  0  0  0  0  0  0  0  0  0
    4.4739   -1.3190    3.2191 H   0  0  0  0  0  0  0  0  0  0  0  0
    2.1728   -0.9326    2.6389 H   0  0  0  0  0  0  0  0  0  0  0  0
    0.9126   -1.5142    3.6852 H   0  0  0  0  0  0  0  0  0  0  0  0
    2.7012    0.7915    4.3215 H   0  0  0  0  0  0  0  0  0  0  0  0
    1.9255   -0.4828    6.3328 H   0  0  0  0  0  0  0  0  0  0  0  0
    2.0394    1.4280    7.7404 H   0  0  0  0  0  0  0  0  0  0  0  0
    2.9224    1.8439    6.3392 H   0  0  0  0  0  0  0  0  0  0  0  0
    1.4789    5.1138    8.5539 H   0  0  0  0  0  0  0  0  0  0  0  0
    2.4784    3.6759    8.3639 H   0  0  0  0  0  0  0  0  0  0  0  0
    0.8206    3.5381    8.9826 H   0  0  0  0  0  0  0  0  0  0  0  0
   -0.6702    2.2641    7.9986 H   0  0  0  0  0  0  0  0  0  0  0  0
   -2.3893    3.2625    6.6131 H   0  0  0  0  0  0  0  0  0  0  0  0
   -2.5007    0.8835    5.7259 H   0  0  0  0  0  0  0  0  0  0  0  0
   -2.8636    2.0879    4.5095 H   0  0  0  0  0  0  0  0  0  0  0  0
   -1.1972   -0.3524    3.4356 H   0  0  0  0  0  0  0  0  0  0  0  0
   -1.9915    1.0539    2.7424 H   0  0  0  0  0  0  0  0  0  0  0  0
    0.3918    0.0162    1.7582 H   0  0  0  0  0  0  0  0  0  0  0  0
   -0.2885    1.5999    1.4196 H   0  0  0  0  0  0  0  0  0  0  0  0
    2.5464    1.7658    1.4888 H   0  0  0  0  0  0  0  0  0  0  0  0
    3.5375    3.7476    2.8315 H   0  0  0  0  0  0  0  0  0  0  0  0
    2.7695    3.3580    5.1200 H   0  0  0  0  0  0  0  0  0  0  0  0
    1.3468    5.2191    3.7854 H   0  0  0  0  0  0  0  0  0  0  0  0
    0.3046    3.9366    3.0516 H   0  0  0  0  0  0  0  0  0  0  0  0
   -0.6024    4.6452    5.2622 H   0  0  0  0  0  0  0  0  0  0  0  0
   -3.3628    4.6181    2.4575 H   0  0  0  0  0  0  0  0  0  0  0  0
   -3.0013    2.9551    2.8618 H   0  0  0  0  0  0  0  0  0  0  0  0
   -1.7822    3.9785    2.0955 H   0  0  0  0  0  0  0  0  0  0  0  0
    0.2411    0.1786    7.8114 H   0  0  0  0  0  0  0  0  0  0  0  0
   -1.4046   -2.4930    6.1240 H   0  0  0  0  0  0  0  0  0  0  0  0
   -0.2285   -2.1948    7.4164 H   0  0  0  0  0  0  0  0  0  0  0  0
    0.2298   -2.0137    5.7179 H   0  0  0  0  0  0  0  0  0  0  0  0
  1  2  1  0
  1 29  1  0
  1 30  1  0
  1 31  1  0
  2  3  1  0
  3  4  1  0
  3 32  1  0
  3 33  1  0
  4 16  1  0
  4  5  1  0
  4 34  1  1
  5 26  1  0
  5  6  1  0
  5 35  1  1
  6  7  1  0
  6 36  1  0
  6 37  1  0
  7 21  1  0
  7  8  1  6
  7 10  1  0
  8  9  1  0
  9 38  1  0
  9 39  1  0
  9 40  1  0
 10 11  1  0
 10 26  1  0
 10 41  1  1
 11 23  1  0
 11 12  1  0
 11 42  1  1
 12 13  1  0
 12 43  1  0
 12 44  1  0
 21 13  1  6
 13 14  1  0
 14 15  1  0
 14 45  1  0
 14 46  1  0
 16 15  1  6
 15 47  1  0
 15 48  1  0
 16 22  1  0
 16 17  1  0
 17 18  2  0
 17 49  1  0
 18 19  1  0
 18 50  1  0
 19 20  1  0
 19 21  1  0
 19 51  1  1
 20 52  1  0
 21 22  1  0
 22 23  1  0
 22 53  1  6
 23 24  1  0
 23 54  1  1
 24 25  1  0
 25 55  1  0
 25 56  1  0
 25 57  1  0
 26 27  1  0
 26 58  1  1
 27 28  1  0
 28 59  1  0
 28 60  1  0
 28 61  1  0
M  END
>  <i_m_ct_stereo_status>  (349) 
1

>  <s_m_source_file>  (349) 
/var/tmp/pbs.5076255.sched01/tmpr9sv22dd/120oksnzf6p.sdf

>  <i_m_source_file_index>  (349) 
29

>  <i_lp_mmshare_version>  (349) 
48012

>  <i_f3d_flags>  (349) 
0

>  <s_epik_input>  (349) 
W0NIM11PW0NIMl1bQ0BASF0xW0NAQEhdKFtDSDJdMilbQ0BIXShPW0NIM10pW0NAQEhdKFtDQF0yKE9bQ0gzXSlbQ0BAXTMoW0NASF00W0NAQF0xNTYpW0NASF0oW09IXSlbQ0hdPVtDSF02KVtDQEBIXShbQ0BASF00T1tDSDNdKVtDSDJdTjNbQ0gyXVtDSDJdNQ==

>  <s_epik_cmdline>  (349) 
J2VwaWtfcHl0aG9uJywgJy1waHQnLCAnMi4wJywgJy1waCcsICc3LjAnLCAnLXRuJywgJzgnLCAnLW1hJywgJzIwMCcsICctaW1hZScsICc8aW5maWxlLm1hZT4nLCAnLW9tYWUnLCAnPG91dGZpbGUubWFlPic=

>  <r_epik_Ionization_Penalty>  (349) 
0.568438

>  <r_epik_Ionization_Penalty_Charging>  (349) 
0

>  <r_epik_Ionization_Penalty_Neutral>  (349) 
0.568438

>  <r_epik_State_Penalty>  (349) 
0.580188

>  <r_epik_Charging_Adjusted_Penalty>  (349) 
0.580188

>  <i_epik_Tot_Q>  (349) 
0

>  <i_epik_Tot_abs_Q>  (349) 
0

>  <s_lp_Force_Field>  (349) 
OPLS3e

>  <r_lp_Energy>  (349) 
581.383

>  <b_lp_Chiralities_Consistent>  (349) 
1

>  <s_lp_Variant>  (349) 
110:0-2

>  <s_i_glide_gridfile>  (349) 
pfpi4k_grid

>  <i_i_glide_lignum>  (349) 
29

>  <i_i_glide_rotatable_bonds>  (349) 
6

>  <r_i_docking_score>  (349) 
-2.52924

>  <r_i_glide_ligand_efficiency>  (349) 
-0.09033

>  <r_i_glide_ligand_efficiency_sa>  (349) 
-0.274295

>  <r_i_glide_ligand_efficiency_ln>  (349) 
-0.583823

>  <r_i_glide_gscore>  (349) 
-2.52924

>  <r_i_glide_lipo>  (349) 
-0.0437542

>  <r_i_glide_hbond>  (349) 
-0.21112

>  <r_i_glide_metal>  (349) 
-0

>  <r_i_glide_rewards>  (349) 
-0.739765

>  <r_i_glide_evdw>  (349) 
-15.8627

>  <r_i_glide_ecoul>  (349) 
-5.79193

>  <r_i_glide_erotb>  (349) 
0.127323

>  <r_i_glide_esite>  (349) 
0

>  <r_i_glide_emodel>  (349) 
-21.2875

>  <r_i_glide_energy>  (349) 
-21.6546

>  <r_i_glide_einternal>  (349) 
6.03309

>  <r_i_glide_intrahb_reward>  (349) 
-0

>  <i_i_glide_confnum>  (349) 
3

>  <i_i_glide_posenum>  (349) 
15

>  <r_i_glide_eff_state_penalty>  (349) 
0

>  <ligand_id>  (349) 
110

>  <original_smiles>  (349) 
COCC1C2CC3(OC)C(C4CN5CCC16C=CC(O)C53C6C4OC)C2OC

>  <smiles>  (349) 
[H]OC1([H])C([H])=C([H])C23C([H])([H])C([H])([H])N4C([H])([H])C5([H])C([H])(OC([H])([H])[H])C2([H])C41C1(OC([H])([H])[H])C([H])([H])C([H])(C([H])(OC([H])([H])[H])C51[H])C3([H])C([H])([H])OC([H])([H])[H]

$$$$
110:1:1
     RDKit          3D

 61 66  0  0  1  0  0  0  0  0999 V2000
    5.2330    1.7104    6.0566 C   0  0  0  0  0  0  0  0  0  0  0  0
    4.2187    0.9542    6.7162 O   0  0  0  0  0  0  0  0  0  0  0  0
    3.0736    0.6322    5.9201 C   0  0  0  0  0  0  0  0  0  0  0  0
    2.1822    1.8740    5.6263 C   0  0  2  0  0  0  0  0  0  0  0  0
    1.8008    2.6860    7.0752 C   0  0  1  0  0  0  0  0  0  0  0  0
    1.6516    4.1917    6.8439 C   0  0  0  0  0  0  0  0  0  0  0  0
    0.1871    4.2693    6.2903 C   0  0  2  0  0  0  0  0  0  0  0  0
   -0.2584    5.5827    5.9358 O   0  0  0  0  0  0  0  0  0  0  0  0
    0.0042    6.6391    6.8487 C   0  0  0  0  0  0  0  0  0  0  0  0
   -0.7027    3.6372    7.3148 C   0  0  1  0  0  0  0  0  0  0  0  0
   -1.9345    3.1534    6.3656 C   0  0  2  0  0  0  0  0  0  0  0  0
   -1.8050    1.7033    6.3418 C   0  0  0  0  0  0  0  0  0  0  0  0
   -0.4951    1.6308    5.7505 N   0  0  0  0  0  0  0  0  0  0  0  0
   -0.2439    0.2726    5.1967 C   0  0  0  0  0  0  0  0  0  0  0  0
    0.7268    0.3047    4.0520 C   0  0  0  0  0  0  0  0  0  0  0  0
    1.1730    1.7324    4.1864 C   0  0  2  0  0  0  0  0  0  0  0  0
    2.0401    2.1741    3.0589 C   0  0  0  0  0  0  0  0  0  0  0  0
    1.9770    3.4927    2.9668 C   0  0  0  0  0  0  0  0  0  0  0  0
    1.0453    4.1563    3.9736 C   0  0  1  0  0  0  0  0  0  0  0  0
    0.2794    5.1554    3.2849 O   0  0  0  0  0  0  0  0  0  0  0  0
    0.2030    3.1716    5.1509 C   0  0  2  0  0  0  0  0  0  0  0  0
   -0.4245    2.6465    4.0094 C   0  0  2  0  0  0  0  0  0  0  0  0
   -1.7915    3.3661    4.7289 C   0  0  1  0  0  0  0  0  0  0  0  0
   -3.0081    2.9209    4.1279 O   0  0  0  0  0  0  0  0  0  0  0  0
   -3.1572    3.1848    2.7403 C   0  0  0  0  0  0  0  0  0  0  0  0
    0.4520    2.6724    7.9772 C   0  0  1  0  0  0  0  0  0  0  0  0
    0.1123    1.3895    8.5076 O   0  0  0  0  0  0  0  0  0  0  0  0
   -0.7832    1.4229    9.6184 C   0  0  0  0  0  0  0  0  0  0  0  0
    6.0880    1.8266    6.7238 H   0  0  0  0  0  0  0  0  0  0  0  0
    4.9030    2.7142    5.8002 H   0  0  0  0  0  0  0  0  0  0  0  0
    5.5799    1.2099    5.1510 H   0  0  0  0  0  0  0  0  0  0  0  0
    3.4190    0.1619    4.9964 H   0  0  0  0  0  0  0  0  0  0  0  0
    2.4934   -0.1236    6.4576 H   0  0  0  0  0  0  0  0  0  0  0  0
    2.9086    2.5804    5.2536 H   0  0  0  0  0  0  0  0  0  0  0  0
    2.6367    2.5364    7.7569 H   0  0  0  0  0  0  0  0  0  0  0  0
    1.7566    4.7491    7.7759 H   0  0  0  0  0  0  0  0  0  0  0  0
    2.4706    4.5716    6.2377 H   0  0  0  0  0  0  0  0  0  0  0  0
   -0.4937    7.5379    6.4843 H   0  0  0  0  0  0  0  0  0  0  0  0
    1.0718    6.8534    6.9094 H   0  0  0  0  0  0  0  0  0  0  0  0
   -0.3759    6.4323    7.8483 H   0  0  0  0  0  0  0  0  0  0  0  0
   -1.0539    4.3389    8.0718 H   0  0  0  0  0  0  0  0  0  0  0  0
   -2.8996    3.4792    6.7575 H   0  0  0  0  0  0  0  0  0  0  0  0
   -1.8619    1.2260    7.3123 H   0  0  0  0  0  0  0  0  0  0  0  0
   -2.5583    1.2381    5.7101 H   0  0  0  0  0  0  0  0  0  0  0  0
    0.1248   -0.3715    5.9976 H   0  0  0  0  0  0  0  0  0  0  0  0
   -1.1750   -0.1709    4.8390 H   0  0  0  0  0  0  0  0  0  0  0  0
    1.5079   -0.4470    4.1308 H   0  0  0  0  0  0  0  0  0  0  0  0
    0.2043    0.1518    3.1079 H   0  0  0  0  0  0  0  0  0  0  0  0
    2.6212    1.5119    2.4392 H   0  0  0  0  0  0  0  0  0  0  0  0
    2.5000    4.0815    2.2325 H   0  0  0  0  0  0  0  0  0  0  0  0
    1.7471    4.8352    4.4398 H   0  0  0  0  0  0  0  0  0  0  0  0
    0.2128    4.9032    2.3455 H   0  0  0  0  0  0  0  0  0  0  0  0
   -0.4802    2.9663    2.9635 H   0  0  0  0  0  0  0  0  0  0  0  0
   -1.8041    4.4426    4.5390 H   0  0  0  0  0  0  0  0  0  0  0  0
   -4.1683    2.9207    2.4351 H   0  0  0  0  0  0  0  0  0  0  0  0
   -2.4819    2.5774    2.1394 H   0  0  0  0  0  0  0  0  0  0  0  0
   -3.0048    4.2362    2.5001 H   0  0  0  0  0  0  0  0  0  0  0  0
    0.7568    3.2013    8.8838 H   0  0  0  0  0  0  0  0  0  0  0  0
   -0.9795    0.3996    9.9411 H   0  0  0  0  0  0  0  0  0  0  0  0
   -1.7412    1.8762    9.3586 H   0  0  0  0  0  0  0  0  0  0  0  0
   -0.3683    1.9675   10.4660 H   0  0  0  0  0  0  0  0  0  0  0  0
  1  2  1  0
  1 29  1  0
  1 30  1  0
  1 31  1  0
  2  3  1  0
  3  4  1  0
  3 32  1  0
  3 33  1  0
  4 16  1  0
  4  5  1  0
  4 34  1  6
  5 26  1  0
  5  6  1  0
  5 35  1  1
  6  7  1  0
  6 36  1  0
  6 37  1  0
  7 21  1  0
  7  8  1  6
  7 10  1  0
  8  9  1  0
  9 38  1  0
  9 39  1  0
  9 40  1  0
 10 11  1  0
 10 26  1  0
 10 41  1  1
 11 23  1  0
 11 12  1  0
 11 42  1  1
 12 13  1  0
 12 43  1  0
 12 44  1  0
 21 13  1  1
 13 14  1  0
 14 15  1  0
 14 45  1  0
 14 46  1  0
 16 15  1  6
 15 47  1  0
 15 48  1  0
 16 22  1  0
 16 17  1  0
 17 18  2  0
 17 49  1  0
 18 19  1  0
 18 50  1  0
 19 20  1  0
 19 21  1  0
 19 51  1  1
 20 52  1  0
 21 22  1  0
 22 23  1  0
 22 53  1  6
 23 24  1  0
 23 54  1  1
 24 25  1  0
 25 55  1  0
 25 56  1  0
 25 57  1  0
 26 27  1  0
 26 58  1  1
 27 28  1  0
 28 59  1  0
 28 60  1  0
 28 61  1  0
M  END
>  <i_m_ct_stereo_status>  (350) 
1

>  <s_m_source_file>  (350) 
/var/tmp/pbs.5076255.sched01/tmpr9sv22dd/120oksnzf6p.sdf

>  <i_m_source_file_index>  (350) 
29

>  <i_lp_mmshare_version>  (350) 
48012

>  <i_f3d_flags>  (350) 
0

>  <s_epik_input>  (350) 
W0NIM11PW0NIMl1bQ0BASF0xW0NAQEhdKFtDSDJdMilbQ0BIXShPW0NIM10pW0NAQEhdKFtDQF0yKE9bQ0gzXSlbQ0BAXTMoW0NASF00W0NAQF0xNTYpW0NASF0oW09IXSlbQ0hdPVtDSF02KVtDQEBIXShbQ0BASF00T1tDSDNdKVtDSDJdTjNbQ0gyXVtDSDJdNQ==

>  <s_epik_cmdline>  (350) 
J2VwaWtfcHl0aG9uJywgJy1waHQnLCAnMi4wJywgJy1waCcsICc3LjAnLCAnLXRuJywgJzgnLCAnLW1hJywgJzIwMCcsICctaW1hZScsICc8aW5maWxlLm1hZT4nLCAnLW9tYWUnLCAnPG91dGZpbGUubWFlPic=

>  <r_epik_Ionization_Penalty>  (350) 
0.568438

>  <r_epik_Ionization_Penalty_Charging>  (350) 
0

>  <r_epik_Ionization_Penalty_Neutral>  (350) 
0.568438

>  <r_epik_State_Penalty>  (350) 
0.580188

>  <r_epik_Charging_Adjusted_Penalty>  (350) 
0.580188

>  <i_epik_Tot_Q>  (350) 
0

>  <i_epik_Tot_abs_Q>  (350) 
0

>  <s_lp_Force_Field>  (350) 
OPLS3e

>  <r_lp_Energy>  (350) 
581.383

>  <b_lp_Chiralities_Consistent>  (350) 
1

>  <s_lp_Variant>  (350) 
110:0-2

>  <s_i_glide_gridfile>  (350) 
pfpi4k_grid

>  <i_i_glide_lignum>  (350) 
29

>  <i_i_glide_rotatable_bonds>  (350) 
6

>  <r_i_docking_score>  (350) 
-2.51182

>  <r_i_glide_ligand_efficiency>  (350) 
-0.0897078

>  <r_i_glide_ligand_efficiency_sa>  (350) 
-0.272406

>  <r_i_glide_ligand_efficiency_ln>  (350) 
-0.579801

>  <r_i_glide_gscore>  (350) 
-2.51182

>  <r_i_glide_lipo>  (350) 
-0.0819666

>  <r_i_glide_hbond>  (350) 
0

>  <r_i_glide_metal>  (350) 
-0

>  <r_i_glide_rewards>  (350) 
-0.739765

>  <r_i_glide_evdw>  (350) 
-18.5693

>  <r_i_glide_ecoul>  (350) 
-5.92631

>  <r_i_glide_erotb>  (350) 
0.127323

>  <r_i_glide_esite>  (350) 
0

>  <r_i_glide_emodel>  (350) 
-26.1518

>  <r_i_glide_energy>  (350) 
-24.4956

>  <r_i_glide_einternal>  (350) 
2.44944

>  <r_i_glide_intrahb_reward>  (350) 
-0

>  <i_i_glide_confnum>  (350) 
6

>  <i_i_glide_posenum>  (350) 
5

>  <r_i_glide_eff_state_penalty>  (350) 
0

>  <ligand_id>  (350) 
110

>  <original_smiles>  (350) 
COCC1C2CC3(OC)C(C4CN5CCC16C=CC(O)C53C6C4OC)C2OC

>  <smiles>  (350) 
[H]OC1([H])C([H])=C([H])C23C([H])([H])C([H])([H])N4C([H])([H])C5([H])C([H])(OC([H])([H])[H])C2([H])C41C1(OC([H])([H])[H])C([H])([H])C([H])(C([H])(OC([H])([H])[H])C51[H])C3([H])C([H])([H])OC([H])([H])[H]

$$$$
110:1:2
     RDKit          3D

 61 66  0  0  1  0  0  0  0  0999 V2000
    4.3655   -0.9107    3.9873 C   0  0  0  0  0  0  0  0  0  0  0  0
    3.3014   -0.0122    4.2369 O   0  0  0  0  0  0  0  0  0  0  0  0
    3.6998    1.2060    4.8459 C   0  0  0  0  0  0  0  0  0  0  0  0
    2.4886    2.1676    5.0727 C   0  0  2  0  0  0  0  0  0  0  0  0
    1.5034    1.5972    6.3351 C   0  0  1  0  0  0  0  0  0  0  0  0
    0.8203    2.7387    7.0861 C   0  0  0  0  0  0  0  0  0  0  0  0
   -0.3886    3.0549    6.1355 C   0  0  2  0  0  0  0  0  0  0  0  0
   -1.2279    4.1319    6.5649 O   0  0  0  0  0  0  0  0  0  0  0  0
   -1.6278    4.1649    7.9273 C   0  0  0  0  0  0  0  0  0  0  0  0
   -1.1572    1.7813    5.9683 C   0  0  1  0  0  0  0  0  0  0  0  0
   -1.8433    2.0535    4.5164 C   0  0  2  0  0  0  0  0  0  0  0  0
   -1.1573    1.1393    3.6336 C   0  0  0  0  0  0  0  0  0  0  0  0
    0.1800    1.6589    3.7935 N   0  0  0  0  0  0  0  0  0  0  0  0
    1.0461    1.2375    2.6738 C   0  0  0  0  0  0  0  0  0  0  0  0
    2.1671    2.1962    2.4426 C   0  0  0  0  0  0  0  0  0  0  0  0
    1.9575    3.0628    3.6510 C   0  0  2  0  0  0  0  0  0  0  0  0
    2.8187    4.2892    3.6173 C   0  0  0  0  0  0  0  0  0  0  0  0
    2.2632    5.2138    4.3672 C   0  0  0  0  0  0  0  0  0  0  0  0
    0.9494    4.7928    5.0027 C   0  0  1  0  0  0  0  0  0  0  0  0
    0.0335    5.9050    4.8704 O   0  0  0  0  0  0  0  0  0  0  0  0
    0.3148    3.1835    4.7436 C   0  0  2  0  0  0  0  0  0  0  0  0
    0.2205    3.6379    3.4123 C   0  0  2  0  0  0  0  0  0  0  0  0
   -1.4411    3.4264    3.7138 C   0  0  1  0  0  0  0  0  0  0  0  0
   -2.1722    3.4938    2.4834 O   0  0  0  0  0  0  0  0  0  0  0  0
   -3.5329    3.9002    2.5904 C   0  0  0  0  0  0  0  0  0  0  0  0
    0.1046    0.7701    6.2738 C   0  0  1  0  0  0  0  0  0  0  0  0
    0.1239   -0.4916    5.6091 O   0  0  0  0  0  0  0  0  0  0  0  0
    1.0897   -1.4270    6.0651 C   0  0  0  0  0  0  0  0  0  0  0  0
    3.9583   -1.8124    3.5333 H   0  0  0  0  0  0  0  0  0  0  0  0
    4.8746   -1.2013    4.9056 H   0  0  0  0  0  0  0  0  0  0  0  0
    5.0911   -0.4846    3.2958 H   0  0  0  0  0  0  0  0  0  0  0  0
    4.1708    0.9784    5.8047 H   0  0  0  0  0  0  0  0  0  0  0  0
    4.4608    1.6992    4.2411 H   0  0  0  0  0  0  0  0  0  0  0  0
    3.0182    2.9388    5.6360 H   0  0  0  0  0  0  0  0  0  0  0  0
    2.1652    1.0850    7.0408 H   0  0  0  0  0  0  0  0  0  0  0  0
    0.4689    2.4122    8.0670 H   0  0  0  0  0  0  0  0  0  0  0  0
    1.5270    3.5264    7.3262 H   0  0  0  0  0  0  0  0  0  0  0  0
   -2.3433    4.9750    8.0734 H   0  0  0  0  0  0  0  0  0  0  0  0
   -0.7779    4.3615    8.5800 H   0  0  0  0  0  0  0  0  0  0  0  0
   -2.1133    3.2421    8.2403 H   0  0  0  0  0  0  0  0  0  0  0  0
   -1.9253    1.6393    6.7319 H   0  0  0  0  0  0  0  0  0  0  0  0
   -2.9159    1.8853    4.5043 H   0  0  0  0  0  0  0  0  0  0  0  0
   -1.2536    0.0847    3.9157 H   0  0  0  0  0  0  0  0  0  0  0  0
   -1.5019    1.2256    2.6015 H   0  0  0  0  0  0  0  0  0  0  0  0
    1.4194    0.2278    2.8939 H   0  0  0  0  0  0  0  0  0  0  0  0
    0.4720    1.1289    1.7516 H   0  0  0  0  0  0  0  0  0  0  0  0
    3.1413    1.7249    2.3543 H   0  0  0  0  0  0  0  0  0  0  0  0
    1.9684    2.7641    1.5328 H   0  0  0  0  0  0  0  0  0  0  0  0
    3.7390    4.3634    3.0541 H   0  0  0  0  0  0  0  0  0  0  0  0
    2.6632    6.2021    4.5295 H   0  0  0  0  0  0  0  0  0  0  0  0
    1.1933    4.9676    6.0528 H   0  0  0  0  0  0  0  0  0  0  0  0
    0.2223    6.3130    4.0385 H   0  0  0  0  0  0  0  0  0  0  0  0
    0.2554    4.6164    2.9270 H   0  0  0  0  0  0  0  0  0  0  0  0
   -1.8106    4.2880    4.2829 H   0  0  0  0  0  0  0  0  0  0  0  0
   -4.0506    3.7832    1.6389 H   0  0  0  0  0  0  0  0  0  0  0  0
   -3.5832    4.9585    2.8577 H   0  0  0  0  0  0  0  0  0  0  0  0
   -4.0994    3.3321    3.3288 H   0  0  0  0  0  0  0  0  0  0  0  0
   -0.0750    0.4488    7.3032 H   0  0  0  0  0  0  0  0  0  0  0  0
    1.0752   -2.3028    5.4144 H   0  0  0  0  0  0  0  0  0  0  0  0
    0.8819   -1.7486    7.0828 H   0  0  0  0  0  0  0  0  0  0  0  0
    2.0986   -1.0298    6.0445 H   0  0  0  0  0  0  0  0  0  0  0  0
  1  2  1  0
  1 29  1  0
  1 30  1  0
  1 31  1  0
  2  3  1  0
  3  4  1  0
  3 32  1  0
  3 33  1  0
  4 16  1  0
  4  5  1  0
  4 34  1  1
  5 26  1  0
  5  6  1  0
  5 35  1  1
  6  7  1  0
  6 36  1  0
  6 37  1  0
  7 21  1  0
  7  8  1  1
  7 10  1  0
  8  9  1  0
  9 38  1  0
  9 39  1  0
  9 40  1  0
 10 11  1  0
 10 26  1  0
 10 41  1  1
 11 23  1  0
 11 12  1  0
 11 42  1  1
 12 13  1  0
 12 43  1  0
 12 44  1  0
 21 13  1  6
 13 14  1  0
 14 15  1  0
 14 45  1  0
 14 46  1  0
 16 15  1  6
 15 47  1  0
 15 48  1  0
 16 22  1  0
 16 17  1  0
 17 18  2  0
 17 49  1  0
 18 19  1  0
 18 50  1  0
 19 20  1  0
 19 21  1  0
 19 51  1  1
 20 52  1  0
 21 22  1  0
 22 23  1  0
 22 53  1  1
 23 24  1  0
 23 54  1  1
 24 25  1  0
 25 55  1  0
 25 56  1  0
 25 57  1  0
 26 27  1  0
 26 58  1  1
 27 28  1  0
 28 59  1  0
 28 60  1  0
 28 61  1  0
M  END
>  <i_m_ct_stereo_status>  (351) 
1

>  <s_m_source_file>  (351) 
/var/tmp/pbs.5076255.sched01/tmpr9sv22dd/120oksnzf6p.sdf

>  <i_m_source_file_index>  (351) 
29

>  <i_lp_mmshare_version>  (351) 
48012

>  <i_f3d_flags>  (351) 
0

>  <s_epik_input>  (351) 
W0NIM11PW0NIMl1bQ0BASF0xW0NAQEhdKFtDSDJdMilbQ0BIXShPW0NIM10pW0NAQEhdKFtDQF0yKE9bQ0gzXSlbQ0BAXTMoW0NASF00W0NAQF0xNTYpW0NASF0oW09IXSlbQ0hdPVtDSF02KVtDQEBIXShbQ0BASF00T1tDSDNdKVtDSDJdTjNbQ0gyXVtDSDJdNQ==

>  <s_epik_cmdline>  (351) 
J2VwaWtfcHl0aG9uJywgJy1waHQnLCAnMi4wJywgJy1waCcsICc3LjAnLCAnLXRuJywgJzgnLCAnLW1hJywgJzIwMCcsICctaW1hZScsICc8aW5maWxlLm1hZT4nLCAnLW9tYWUnLCAnPG91dGZpbGUubWFlPic=

>  <r_epik_Ionization_Penalty>  (351) 
0.568438

>  <r_epik_Ionization_Penalty_Charging>  (351) 
0

>  <r_epik_Ionization_Penalty_Neutral>  (351) 
0.568438

>  <r_epik_State_Penalty>  (351) 
0.580188

>  <r_epik_Charging_Adjusted_Penalty>  (351) 
0.580188

>  <i_epik_Tot_Q>  (351) 
0

>  <i_epik_Tot_abs_Q>  (351) 
0

>  <s_lp_Force_Field>  (351) 
OPLS3e

>  <r_lp_Energy>  (351) 
581.383

>  <b_lp_Chiralities_Consistent>  (351) 
1

>  <s_lp_Variant>  (351) 
110:0-2

>  <s_i_glide_gridfile>  (351) 
pfpi4k_grid

>  <i_i_glide_lignum>  (351) 
29

>  <i_i_glide_rotatable_bonds>  (351) 
6

>  <r_i_docking_score>  (351) 
-1.84967

>  <r_i_glide_ligand_efficiency>  (351) 
-0.0660596

>  <r_i_glide_ligand_efficiency_sa>  (351) 
-0.200596

>  <r_i_glide_ligand_efficiency_ln>  (351) 
-0.426958

>  <r_i_glide_gscore>  (351) 
-1.84967

>  <r_i_glide_lipo>  (351) 
-0.0657718

>  <r_i_glide_hbond>  (351) 
0

>  <r_i_glide_metal>  (351) 
-0

>  <r_i_glide_rewards>  (351) 
-0.739765

>  <r_i_glide_evdw>  (351) 
-18.1021

>  <r_i_glide_ecoul>  (351) 
-1.77567

>  <r_i_glide_erotb>  (351) 
0.127323

>  <r_i_glide_esite>  (351) 
0

>  <r_i_glide_emodel>  (351) 
-20.9646

>  <r_i_glide_energy>  (351) 
-19.8778

>  <r_i_glide_einternal>  (351) 
1.7342

>  <r_i_glide_intrahb_reward>  (351) 
-0

>  <i_i_glide_confnum>  (351) 
1

>  <i_i_glide_posenum>  (351) 
31

>  <r_i_glide_eff_state_penalty>  (351) 
0

>  <ligand_id>  (351) 
110

>  <original_smiles>  (351) 
COCC1C2CC3(OC)C(C4CN5CCC16C=CC(O)C53C6C4OC)C2OC

>  <smiles>  (351) 
[H]OC1([H])C([H])=C([H])C23C([H])([H])C([H])([H])N4C([H])([H])C5([H])C([H])(OC([H])([H])[H])C2([H])C41C1(OC([H])([H])[H])C([H])([H])C([H])(C([H])(OC([H])([H])[H])C51[H])C3([H])C([H])([H])OC([H])([H])[H]

$$$$
111:0:0
     RDKit          3D

 55 60  0  0  1  0  0  0  0  0999 V2000
    4.6735   -0.1016    3.3694 C   0  0  0  0  0  0  0  0  0  0  0  0
    3.7585    0.7494    4.0406 O   0  0  0  0  0  0  0  0  0  0  0  0
    2.7629    1.3162    3.1942 C   0  0  0  0  0  0  0  0  0  0  0  0
    1.6892    1.9035    4.1194 C   0  0  1  0  0  0  0  0  0  0  0  0
    0.3171    2.0668    3.4195 C   0  0  0  0  0  0  0  0  0  0  0  0
   -0.3094    1.4059    4.4136 C   0  0  0  0  0  0  0  0  0  0  0  0
   -1.5765    1.7526    5.1839 C   0  0  1  0  0  0  0  0  0  0  0  0
   -1.9293    0.8888    6.4497 C   0  0  0  0  0  0  0  0  0  0  0  0
   -1.1117    1.3176    7.7106 C   0  0  1  0  0  0  0  0  0  0  0  0
    0.3118    1.5761    7.3064 C   0  0  1  0  0  0  0  0  0  0  0  0
    1.0476    0.5612    6.4060 C   0  0  1  0  0  0  0  0  0  0  0  0
    0.6161   -0.7645    6.6892 O   0  0  0  0  0  0  0  0  0  0  0  0
    1.1569   -1.3048    7.8865 C   0  0  0  0  0  0  0  0  0  0  0  0
    0.9470    0.7751    4.9155 C   0  0  2  0  0  0  0  0  0  0  0  0
   -0.2151    3.0228    6.8955 C   0  0  2  0  0  0  0  0  0  0  0  0
   -1.2058    3.1150    5.7019 C   0  0  0  0  0  0  0  0  0  0  0  0
   -1.7717    4.1049    5.2327 O   0  0  0  0  0  0  0  0  0  0  0  0
    0.9746    4.0435    6.7924 C   0  0  1  0  0  0  0  0  0  0  0  0
    2.3013    3.3732    6.3373 C   0  0  0  0  0  0  0  0  0  0  0  0
    2.2898    3.2431    4.7885 C   0  0  2  0  0  0  0  0  0  0  0  0
    1.7405    4.6669    4.4637 C   0  0  1  0  0  0  0  0  0  0  0  0
    1.0269    4.8948    3.2779 O   0  0  0  0  0  0  0  0  0  0  0  0
    0.9184    5.0908    5.6831 C   0  0  0  0  0  0  0  0  0  0  0  0
    0.2971    6.1494    5.7778 O   0  0  0  0  0  0  0  0  0  0  0  0
   -1.1137    2.8266    8.1787 C   0  0  0  0  0  0  0  0  0  0  0  0
   -2.5253    3.4482    8.2858 C   0  0  0  0  0  0  0  0  0  0  0  0
   -0.4795    3.1989    9.5456 C   0  0  0  0  0  0  0  0  0  0  0  0
    5.4207   -0.4694    4.0743 H   0  0  0  0  0  0  0  0  0  0  0  0
    5.2038    0.4167    2.5718 H   0  0  0  0  0  0  0  0  0  0  0  0
    4.1678   -0.9688    2.9430 H   0  0  0  0  0  0  0  0  0  0  0  0
    3.1856    2.0691    2.5314 H   0  0  0  0  0  0  0  0  0  0  0  0
    2.3398    0.5369    2.5599 H   0  0  0  0  0  0  0  0  0  0  0  0
   -0.0245    2.7974    2.6860 H   0  0  0  0  0  0  0  0  0  0  0  0
   -2.4223    1.8317    4.4939 H   0  0  0  0  0  0  0  0  0  0  0  0
   -2.9902    0.9673    6.6758 H   0  0  0  0  0  0  0  0  0  0  0  0
   -1.7603   -0.1624    6.2018 H   0  0  0  0  0  0  0  0  0  0  0  0
   -1.1822    0.6326    8.5480 H   0  0  0  0  0  0  0  0  0  0  0  0
    0.9182    1.6218    8.2056 H   0  0  0  0  0  0  0  0  0  0  0  0
    2.1123    0.5508    6.6284 H   0  0  0  0  0  0  0  0  0  0  0  0
    0.7994   -2.3285    8.0042 H   0  0  0  0  0  0  0  0  0  0  0  0
    0.8418   -0.7280    8.7580 H   0  0  0  0  0  0  0  0  0  0  0  0
    2.2493   -1.3317    7.8627 H   0  0  0  0  0  0  0  0  0  0  0  0
    1.1162   -0.1724    4.4054 H   0  0  0  0  0  0  0  0  0  0  0  0
    1.1139    4.5591    7.7399 H   0  0  0  0  0  0  0  0  0  0  0  0
    3.0922    4.0887    6.5817 H   0  0  0  0  0  0  0  0  0  0  0  0
    2.6335    2.5043    6.8982 H   0  0  0  0  0  0  0  0  0  0  0  0
    3.3419    3.2807    4.5110 H   0  0  0  0  0  0  0  0  0  0  0  0
    2.5857    5.3567    4.4403 H   0  0  0  0  0  0  0  0  0  0  0  0
    1.4949    4.5673    2.5206 H   0  0  0  0  0  0  0  0  0  0  0  0
   -2.4905    4.5375    8.2313 H   0  0  0  0  0  0  0  0  0  0  0  0
   -3.0120    3.1777    9.2259 H   0  0  0  0  0  0  0  0  0  0  0  0
   -3.2022    3.1039    7.5054 H   0  0  0  0  0  0  0  0  0  0  0  0
   -0.6263    4.2573    9.7560 H   0  0  0  0  0  0  0  0  0  0  0  0
    0.5969    3.0582    9.6053 H   0  0  0  0  0  0  0  0  0  0  0  0
   -0.9234    2.6406   10.3721 H   0  0  0  0  0  0  0  0  0  0  0  0
  1  2  1  0
  1 28  1  0
  1 29  1  0
  1 30  1  0
  2  3  1  0
  4  3  1  6
  3 31  1  0
  3 32  1  0
  4 14  1  0
  4 20  1  0
  4  5  1  0
  5  6  2  0
  5 33  1  0
  6 14  1  0
  6  7  1  0
  7 16  1  0
  7  8  1  0
  7 34  1  6
  8  9  1  0
  8 35  1  0
  8 36  1  0
  9 25  1  0
  9 10  1  0
  9 37  1  1
 10 11  1  0
 10 15  1  0
 10 38  1  1
 11 12  1  0
 11 14  1  0
 11 39  1  1
 12 13  1  0
 13 40  1  0
 13 41  1  0
 13 42  1  0
 14 43  1  6
 15 16  1  0
 15 18  1  0
 15 25  1  1
 16 17  2  0
 18 23  1  0
 18 19  1  0
 18 44  1  1
 19 20  1  0
 19 45  1  0
 19 46  1  0
 20 21  1  0
 20 47  1  6
 21 22  1  0
 21 23  1  0
 21 48  1  6
 22 49  1  0
 23 24  2  0
 25 26  1  0
 25 27  1  0
 26 50  1  0
 26 51  1  0
 26 52  1  0
 27 53  1  0
 27 54  1  0
 27 55  1  0
M  END
>  <i_m_ct_stereo_status>  (352) 
1

>  <s_m_source_file>  (352) 
/var/tmp/pbs.5076255.sched01/tmpr9sv22dd/120oksnzf6p.sdf

>  <i_m_source_file_index>  (352) 
30

>  <i_lp_mmshare_version>  (352) 
48012

>  <i_f3d_flags>  (352) 
0

>  <s_epik_input>  (352) 
W09IXVtDQEhdMUMoPU8pW0NAQEhdMltDSDJdW0NASF0xW0NAQF0oW0NIXT0zKShbQ0gyXU9bQ0gzXSlbQ0BASF0oW0NAQEhdNE9bQ0gzXSlDM1tDQEhdKEM1PU8pW0NIMl1bQ0BASF0oW0NAQEhdNFtDQEBdMjU2KUM2KFtDSDNdKVtDSDNd

>  <s_epik_cmdline>  (352) 
J2VwaWtfcHl0aG9uJywgJy1waHQnLCAnMi4wJywgJy1waCcsICc3LjAnLCAnLXRuJywgJzgnLCAnLW1hJywgJzIwMCcsICctaW1hZScsICc8aW5maWxlLm1hZT4nLCAnLW9tYWUnLCAnPG91dGZpbGUubWFlPic=

>  <r_lp_tautomer_probability>  (352) 
1

>  <r_epik_Ionization_Penalty>  (352) 
1.85774e-07

>  <r_epik_Ionization_Penalty_Charging>  (352) 
0

>  <r_epik_Ionization_Penalty_Neutral>  (352) 
1.85774e-07

>  <r_epik_State_Penalty>  (352) 
-0

>  <r_epik_Charging_Adjusted_Penalty>  (352) 
0

>  <i_epik_Tot_Q>  (352) 
0

>  <i_epik_Tot_abs_Q>  (352) 
0

>  <s_lp_Force_Field>  (352) 
OPLS3e

>  <r_lp_Energy>  (352) 
123.673

>  <b_lp_Chiralities_Consistent>  (352) 
1

>  <s_lp_Variant>  (352) 
111:0-1

>  <s_i_glide_gridfile>  (352) 
pfpi4k_grid

>  <i_i_glide_lignum>  (352) 
30

>  <i_i_glide_rotatable_bonds>  (352) 
4

>  <r_i_docking_score>  (352) 
-2.21832

>  <r_i_glide_ligand_efficiency>  (352) 
-0.0821602

>  <r_i_glide_ligand_efficiency_sa>  (352) 
-0.24648

>  <r_i_glide_ligand_efficiency_ln>  (352) 
-0.516389

>  <r_i_glide_gscore>  (352) 
-2.21832

>  <r_i_glide_lipo>  (352) 
-0.141775

>  <r_i_glide_hbond>  (352) 
0

>  <r_i_glide_metal>  (352) 
-0

>  <r_i_glide_rewards>  (352) 
-0.869627

>  <r_i_glide_evdw>  (352) 
-16.6585

>  <r_i_glide_ecoul>  (352) 
-3.36614

>  <r_i_glide_erotb>  (352) 
0.13923

>  <r_i_glide_esite>  (352) 
-0.00830636

>  <r_i_glide_emodel>  (352) 
-23.0389

>  <r_i_glide_energy>  (352) 
-20.0246

>  <r_i_glide_einternal>  (352) 
0.464781

>  <r_i_glide_intrahb_reward>  (352) 
-0

>  <i_i_glide_confnum>  (352) 
4

>  <i_i_glide_posenum>  (352) 
16

>  <r_i_glide_eff_state_penalty>  (352) 
0

>  <ligand_id>  (352) 
111

>  <original_smiles>  (352) 
COCC12C=C3C4CC5C(C(OC)C31)C(C4=O)(C1CC2C(O)C1=O)C5(C)C

>  <smiles>  (352) 
[H]OC1([H])C(=O)C2([H])C([H])([H])C1([H])C1(C([H])([H])OC([H])([H])[H])C([H])=C3C4([H])C(=O)C25C([H])(C([H])(OC([H])([H])[H])C31[H])C([H])(C4([H])[H])C5(C([H])([H])[H])C([H])([H])[H]

$$$$
111:0:1
     RDKit          3D

 55 60  0  0  1  0  0  0  0  0999 V2000
   -3.3776    3.0029    2.4062 C   0  0  0  0  0  0  0  0  0  0  0  0
   -2.7794    3.9704    3.2638 O   0  0  0  0  0  0  0  0  0  0  0  0
   -2.4915    3.5451    4.5997 C   0  0  0  0  0  0  0  0  0  0  0  0
   -1.1992    2.7343    4.7216 C   0  0  1  0  0  0  0  0  0  0  0  0
   -1.0643    1.6089    3.6967 C   0  0  0  0  0  0  0  0  0  0  0  0
    0.1158    2.0386    3.2775 C   0  0  0  0  0  0  0  0  0  0  0  0
    1.3740    1.2503    2.9706 C   0  0  1  0  0  0  0  0  0  0  0  0
    2.6985    2.0570    2.7463 C   0  0  0  0  0  0  0  0  0  0  0  0
    3.3401    2.5212    4.0997 C   0  0  1  0  0  0  0  0  0  0  0  0
    2.2704    3.0365    5.0177 C   0  0  1  0  0  0  0  0  0  0  0  0
    1.2039    4.0149    4.4764 C   0  0  1  0  0  0  0  0  0  0  0  0
    1.7589    4.8819    3.4871 O   0  0  0  0  0  0  0  0  0  0  0  0
    2.5772    5.9134    4.0046 C   0  0  0  0  0  0  0  0  0  0  0  0
   -0.0337    3.3859    3.8969 C   0  0  2  0  0  0  0  0  0  0  0  0
    2.0456    1.4945    5.3920 C   0  0  2  0  0  0  0  0  0  0  0  0
    1.5238    0.5459    4.2778 C   0  0  0  0  0  0  0  0  0  0  0  0
    1.2996   -0.6809    4.3390 O   0  0  0  0  0  0  0  0  0  0  0  0
    1.2706    1.3703    6.7608 C   0  0  1  0  0  0  0  0  0  0  0  0
    0.2790    2.5443    7.0163 C   0  0  0  0  0  0  0  0  0  0  0  0
   -1.0438    2.2570    6.2508 C   0  0  2  0  0  0  0  0  0  0  0  0
   -1.1816    0.7577    6.6422 C   0  0  1  0  0  0  0  0  0  0  0  0
   -1.9452   -0.1173    5.8487 O   0  0  0  0  0  0  0  0  0  0  0  0
    0.2400    0.2514    6.8792 C   0  0  0  0  0  0  0  0  0  0  0  0
    0.5110   -0.9160    7.2169 O   0  0  0  0  0  0  0  0  0  0  0  0
    3.6170    1.4699    5.2440 C   0  0  0  0  0  0  0  0  0  0  0  0
    4.3535    0.1979    4.7578 C   0  0  0  0  0  0  0  0  0  0  0  0
    4.4406    1.8966    6.4860 C   0  0  0  0  0  0  0  0  0  0  0  0
   -3.7085    3.4852    1.4771 H   0  0  0  0  0  0  0  0  0  0  0  0
   -4.2697    2.5967    2.8807 H   0  0  0  0  0  0  0  0  0  0  0  0
   -2.7297    2.2080    2.1237 H   0  0  0  0  0  0  0  0  0  0  0  0
   -2.3401    4.4479    5.1874 H   0  0  0  0  0  0  0  0  0  0  0  0
   -3.3454    3.0422    5.0583 H   0  0  0  0  0  0  0  0  0  0  0  0
   -1.5622    0.6348    3.6280 H   0  0  0  0  0  0  0  0  0  0  0  0
    1.1820    0.5470    2.1592 H   0  0  0  0  0  0  0  0  0  0  0  0
    3.3995    1.4448    2.1830 H   0  0  0  0  0  0  0  0  0  0  0  0
    2.4845    2.9100    2.0978 H   0  0  0  0  0  0  0  0  0  0  0  0
    4.1461    3.2408    3.9894 H   0  0  0  0  0  0  0  0  0  0  0  0
    2.7258    3.5869    5.8278 H   0  0  0  0  0  0  0  0  0  0  0  0
    0.8541    4.6958    5.2507 H   0  0  0  0  0  0  0  0  0  0  0  0
    2.9409    6.5241    3.1766 H   0  0  0  0  0  0  0  0  0  0  0  0
    3.4397    5.5001    4.5300 H   0  0  0  0  0  0  0  0  0  0  0  0
    2.0248    6.5632    4.6870 H   0  0  0  0  0  0  0  0  0  0  0  0
   -0.4330    4.0741    3.1665 H   0  0  0  0  0  0  0  0  0  0  0  0
    1.9766    1.2943    7.5839 H   0  0  0  0  0  0  0  0  0  0  0  0
    0.0416    2.5147    8.0865 H   0  0  0  0  0  0  0  0  0  0  0  0
    0.6737    3.5495    6.9275 H   0  0  0  0  0  0  0  0  0  0  0  0
   -1.8140    2.7653    6.8356 H   0  0  0  0  0  0  0  0  0  0  0  0
   -1.6548    0.7078    7.6205 H   0  0  0  0  0  0  0  0  0  0  0  0
   -1.5490   -0.1237    4.9852 H   0  0  0  0  0  0  0  0  0  0  0  0
    4.1892   -0.6413    5.4330 H   0  0  0  0  0  0  0  0  0  0  0  0
    5.4269    0.3674    4.6747 H   0  0  0  0  0  0  0  0  0  0  0  0
    4.0404   -0.1199    3.7667 H   0  0  0  0  0  0  0  0  0  0  0  0
    4.6019    1.0460    7.1424 H   0  0  0  0  0  0  0  0  0  0  0  0
    3.9657    2.6438    7.1152 H   0  0  0  0  0  0  0  0  0  0  0  0
    5.4205    2.2874    6.2021 H   0  0  0  0  0  0  0  0  0  0  0  0
  1  2  1  0
  1 28  1  0
  1 29  1  0
  1 30  1  0
  2  3  1  0
  4  3  1  1
  3 31  1  0
  3 32  1  0
  4 14  1  0
  4 20  1  0
  4  5  1  0
  5  6  2  0
  5 33  1  0
  6 14  1  0
  6  7  1  0
  7 16  1  0
  7  8  1  0
  7 34  1  6
  8  9  1  0
  8 35  1  0
  8 36  1  0
  9 25  1  0
  9 10  1  0
  9 37  1  6
 10 11  1  0
 10 15  1  0
 10 38  1  1
 11 12  1  0
 11 14  1  0
 11 39  1  1
 12 13  1  0
 13 40  1  0
 13 41  1  0
 13 42  1  0
 14 43  1  6
 15 16  1  0
 15 18  1  0
 15 25  1  1
 16 17  2  0
 18 23  1  0
 18 19  1  0
 18 44  1  1
 19 20  1  0
 19 45  1  0
 19 46  1  0
 20 21  1  0
 20 47  1  1
 21 22  1  0
 21 23  1  0
 21 48  1  1
 22 49  1  0
 23 24  2  0
 25 26  1  0
 25 27  1  0
 26 50  1  0
 26 51  1  0
 26 52  1  0
 27 53  1  0
 27 54  1  0
 27 55  1  0
M  END
>  <i_m_ct_stereo_status>  (353) 
1

>  <s_m_source_file>  (353) 
/var/tmp/pbs.5076255.sched01/tmpr9sv22dd/120oksnzf6p.sdf

>  <i_m_source_file_index>  (353) 
30

>  <i_lp_mmshare_version>  (353) 
48012

>  <i_f3d_flags>  (353) 
0

>  <s_epik_input>  (353) 
W09IXVtDQEhdMUMoPU8pW0NAQEhdMltDSDJdW0NASF0xW0NAQF0oW0NIXT0zKShbQ0gyXU9bQ0gzXSlbQ0BASF0oW0NAQEhdNE9bQ0gzXSlDM1tDQEhdKEM1PU8pW0NIMl1bQ0BASF0oW0NAQEhdNFtDQEBdMjU2KUM2KFtDSDNdKVtDSDNd

>  <s_epik_cmdline>  (353) 
J2VwaWtfcHl0aG9uJywgJy1waHQnLCAnMi4wJywgJy1waCcsICc3LjAnLCAnLXRuJywgJzgnLCAnLW1hJywgJzIwMCcsICctaW1hZScsICc8aW5maWxlLm1hZT4nLCAnLW9tYWUnLCAnPG91dGZpbGUubWFlPic=

>  <r_lp_tautomer_probability>  (353) 
1

>  <r_epik_Ionization_Penalty>  (353) 
1.85774e-07

>  <r_epik_Ionization_Penalty_Charging>  (353) 
0

>  <r_epik_Ionization_Penalty_Neutral>  (353) 
1.85774e-07

>  <r_epik_State_Penalty>  (353) 
-0

>  <r_epik_Charging_Adjusted_Penalty>  (353) 
0

>  <i_epik_Tot_Q>  (353) 
0

>  <i_epik_Tot_abs_Q>  (353) 
0

>  <s_lp_Force_Field>  (353) 
OPLS3e

>  <r_lp_Energy>  (353) 
123.673

>  <b_lp_Chiralities_Consistent>  (353) 
1

>  <s_lp_Variant>  (353) 
111:0-1

>  <s_i_glide_gridfile>  (353) 
pfpi4k_grid

>  <i_i_glide_lignum>  (353) 
30

>  <i_i_glide_rotatable_bonds>  (353) 
4

>  <r_i_docking_score>  (353) 
-2.11437

>  <r_i_glide_ligand_efficiency>  (353) 
-0.0783098

>  <r_i_glide_ligand_efficiency_sa>  (353) 
-0.234929

>  <r_i_glide_ligand_efficiency_ln>  (353) 
-0.492189

>  <r_i_glide_gscore>  (353) 
-2.11437

>  <r_i_glide_lipo>  (353) 
-0.0316166

>  <r_i_glide_hbond>  (353) 
0

>  <r_i_glide_metal>  (353) 
-0

>  <r_i_glide_rewards>  (353) 
-0.869627

>  <r_i_glide_evdw>  (353) 
-19.0314

>  <r_i_glide_ecoul>  (353) 
-2.5239

>  <r_i_glide_erotb>  (353) 
0.13923

>  <r_i_glide_esite>  (353) 
-0.0221996

>  <r_i_glide_emodel>  (353) 
-22.1056

>  <r_i_glide_energy>  (353) 
-21.5552

>  <r_i_glide_einternal>  (353) 
3.84224

>  <r_i_glide_intrahb_reward>  (353) 
-0

>  <i_i_glide_confnum>  (353) 
5

>  <i_i_glide_posenum>  (353) 
15

>  <r_i_glide_eff_state_penalty>  (353) 
0

>  <ligand_id>  (353) 
111

>  <original_smiles>  (353) 
COCC12C=C3C4CC5C(C(OC)C31)C(C4=O)(C1CC2C(O)C1=O)C5(C)C

>  <smiles>  (353) 
[H]OC1([H])C(=O)C2([H])C([H])([H])C1([H])C1(C([H])([H])OC([H])([H])[H])C([H])=C3C4([H])C(=O)C25C([H])(C([H])(OC([H])([H])[H])C31[H])C([H])(C4([H])[H])C5(C([H])([H])[H])C([H])([H])[H]

$$$$
111:0:2
     RDKit          3D

 55 60  0  0  1  0  0  0  0  0999 V2000
   -3.6979    3.1025    2.1964 C   0  0  0  0  0  0  0  0  0  0  0  0
   -2.9003    3.9604    3.0091 O   0  0  0  0  0  0  0  0  0  0  0  0
   -2.5821    3.4485    4.3008 C   0  0  0  0  0  0  0  0  0  0  0  0
   -1.3270    2.5886    4.3356 C   0  0  1  0  0  0  0  0  0  0  0  0
   -1.1499    1.6864    3.0917 C   0  0  0  0  0  0  0  0  0  0  0  0
    0.0614    2.1410    2.8654 C   0  0  0  0  0  0  0  0  0  0  0  0
    1.3195    1.3540    2.5134 C   0  0  1  0  0  0  0  0  0  0  0  0
    2.6982    2.1011    2.5510 C   0  0  0  0  0  0  0  0  0  0  0  0
    3.2366    2.2478    4.0073 C   0  0  1  0  0  0  0  0  0  0  0  0
    2.1123    2.6424    4.9284 C   0  0  1  0  0  0  0  0  0  0  0  0
    1.1368    3.7719    4.5157 C   0  0  1  0  0  0  0  0  0  0  0  0
    1.8042    4.7831    3.7590 O   0  0  0  0  0  0  0  0  0  0  0  0
    2.6639    5.6106    4.5223 C   0  0  0  0  0  0  0  0  0  0  0  0
   -0.0845    3.3348    3.7404 C   0  0  2  0  0  0  0  0  0  0  0  0
    1.8076    1.0758    4.9727 C   0  0  2  0  0  0  0  0  0  0  0  0
    1.3401    0.3808    3.6674 C   0  0  0  0  0  0  0  0  0  0  0  0
    1.0818   -0.8098    3.4685 O   0  0  0  0  0  0  0  0  0  0  0  0
    0.9255    0.7220    6.2359 C   0  0  1  0  0  0  0  0  0  0  0  0
   -0.0308    1.8808    6.6444 C   0  0  0  0  0  0  0  0  0  0  0  0
   -1.2948    1.8082    5.7353 C   0  0  2  0  0  0  0  0  0  0  0  0
   -1.5136    0.2704    5.7922 C   0  0  1  0  0  0  0  0  0  0  0  0
   -2.2181   -0.4378    4.8025 O   0  0  0  0  0  0  0  0  0  0  0  0
   -0.1465   -0.3437    6.0673 C   0  0  0  0  0  0  0  0  0  0  0  0
    0.0526   -1.5587    6.2186 O   0  0  0  0  0  0  0  0  0  0  0  0
    3.3813    0.9887    4.9455 C   0  0  0  0  0  0  0  0  0  0  0  0
    4.1053   -0.1961    4.2705 C   0  0  0  0  0  0  0  0  0  0  0  0
    4.1231    1.1260    6.2914 C   0  0  0  0  0  0  0  0  0  0  0  0
   -3.9738    3.6509    1.2842 H   0  0  0  0  0  0  0  0  0  0  0  0
   -4.6308    2.9128    2.7150 H   0  0  0  0  0  0  0  0  0  0  0  0
   -3.2116    2.1825    1.9318 H   0  0  0  0  0  0  0  0  0  0  0  0
   -2.3717    4.3171    4.9356 H   0  0  0  0  0  0  0  0  0  0  0  0
   -3.4459    2.9760    4.7561 H   0  0  0  0  0  0  0  0  0  0  0  0
   -1.5741    0.7138    2.8556 H   0  0  0  0  0  0  0  0  0  0  0  0
    1.1636    0.8221    1.5842 H   0  0  0  0  0  0  0  0  0  0  0  0
    3.4129    1.5603    1.9272 H   0  0  0  0  0  0  0  0  0  0  0  0
    2.5539    3.0731    2.0804 H   0  0  0  0  0  0  0  0  0  0  0  0
    4.0829    2.9364    4.0961 H   0  0  0  0  0  0  0  0  0  0  0  0
    2.5362    2.9938    5.8673 H   0  0  0  0  0  0  0  0  0  0  0  0
    0.7638    4.3079    5.3954 H   0  0  0  0  0  0  0  0  0  0  0  0
    3.1024    6.3505    3.8567 H   0  0  0  0  0  0  0  0  0  0  0  0
    3.4662    5.0267    4.9745 H   0  0  0  0  0  0  0  0  0  0  0  0
    2.1172    6.1308    5.3130 H   0  0  0  0  0  0  0  0  0  0  0  0
   -0.4244    4.1835    3.1560 H   0  0  0  0  0  0  0  0  0  0  0  0
    1.5630    0.4487    7.0767 H   0  0  0  0  0  0  0  0  0  0  0  0
   -0.3665    1.6450    7.6589 H   0  0  0  0  0  0  0  0  0  0  0  0
    0.3976    2.8583    6.7835 H   0  0  0  0  0  0  0  0  0  0  0  0
   -2.0859    2.2318    6.3587 H   0  0  0  0  0  0  0  0  0  0  0  0
   -2.0863    0.0796    6.6925 H   0  0  0  0  0  0  0  0  0  0  0  0
   -2.8725    0.1271    4.4055 H   0  0  0  0  0  0  0  0  0  0  0  0
    3.8580   -1.1388    4.7531 H   0  0  0  0  0  0  0  0  0  0  0  0
    5.1898   -0.0668    4.2984 H   0  0  0  0  0  0  0  0  0  0  0  0
    3.8621   -0.2961    3.2140 H   0  0  0  0  0  0  0  0  0  0  0  0
    4.1993    0.1568    6.7756 H   0  0  0  0  0  0  0  0  0  0  0  0
    3.6276    1.7596    7.0272 H   0  0  0  0  0  0  0  0  0  0  0  0
    5.1352    1.5131    6.1629 H   0  0  0  0  0  0  0  0  0  0  0  0
  1  2  1  0
  1 28  1  0
  1 29  1  0
  1 30  1  0
  2  3  1  0
  4  3  1  6
  3 31  1  0
  3 32  1  0
  4 14  1  0
  4 20  1  0
  4  5  1  0
  5  6  2  0
  5 33  1  0
  6 14  1  0
  6  7  1  0
  7 16  1  0
  7  8  1  0
  7 34  1  6
  8  9  1  0
  8 35  1  0
  8 36  1  0
  9 25  1  0
  9 10  1  0
  9 37  1  6
 10 11  1  0
 10 15  1  0
 10 38  1  1
 11 12  1  0
 11 14  1  0
 11 39  1  1
 12 13  1  0
 13 40  1  0
 13 41  1  0
 13 42  1  0
 14 43  1  6
 15 16  1  0
 15 18  1  0
 15 25  1  1
 16 17  2  0
 18 23  1  0
 18 19  1  0
 18 44  1  1
 19 20  1  0
 19 45  1  0
 19 46  1  0
 20 21  1  0
 20 47  1  1
 21 22  1  0
 21 23  1  0
 21 48  1  1
 22 49  1  0
 23 24  2  0
 25 26  1  0
 25 27  1  0
 26 50  1  0
 26 51  1  0
 26 52  1  0
 27 53  1  0
 27 54  1  0
 27 55  1  0
M  END
>  <i_m_ct_stereo_status>  (354) 
1

>  <s_m_source_file>  (354) 
/var/tmp/pbs.5076255.sched01/tmpr9sv22dd/120oksnzf6p.sdf

>  <i_m_source_file_index>  (354) 
30

>  <i_lp_mmshare_version>  (354) 
48012

>  <i_f3d_flags>  (354) 
0

>  <s_epik_input>  (354) 
W09IXVtDQEhdMUMoPU8pW0NAQEhdMltDSDJdW0NASF0xW0NAQF0oW0NIXT0zKShbQ0gyXU9bQ0gzXSlbQ0BASF0oW0NAQEhdNE9bQ0gzXSlDM1tDQEhdKEM1PU8pW0NIMl1bQ0BASF0oW0NAQEhdNFtDQEBdMjU2KUM2KFtDSDNdKVtDSDNd

>  <s_epik_cmdline>  (354) 
J2VwaWtfcHl0aG9uJywgJy1waHQnLCAnMi4wJywgJy1waCcsICc3LjAnLCAnLXRuJywgJzgnLCAnLW1hJywgJzIwMCcsICctaW1hZScsICc8aW5maWxlLm1hZT4nLCAnLW9tYWUnLCAnPG91dGZpbGUubWFlPic=

>  <r_lp_tautomer_probability>  (354) 
1

>  <r_epik_Ionization_Penalty>  (354) 
1.85774e-07

>  <r_epik_Ionization_Penalty_Charging>  (354) 
0

>  <r_epik_Ionization_Penalty_Neutral>  (354) 
1.85774e-07

>  <r_epik_State_Penalty>  (354) 
-0

>  <r_epik_Charging_Adjusted_Penalty>  (354) 
0

>  <i_epik_Tot_Q>  (354) 
0

>  <i_epik_Tot_abs_Q>  (354) 
0

>  <s_lp_Force_Field>  (354) 
OPLS3e

>  <r_lp_Energy>  (354) 
123.673

>  <b_lp_Chiralities_Consistent>  (354) 
1

>  <s_lp_Variant>  (354) 
111:0-1

>  <s_i_glide_gridfile>  (354) 
pfpi4k_grid

>  <i_i_glide_lignum>  (354) 
30

>  <i_i_glide_rotatable_bonds>  (354) 
4

>  <r_i_docking_score>  (354) 
-1.85695

>  <r_i_glide_ligand_efficiency>  (354) 
-0.068776

>  <r_i_glide_ligand_efficiency_sa>  (354) 
-0.206328

>  <r_i_glide_ligand_efficiency_ln>  (354) 
-0.432268

>  <r_i_glide_gscore>  (354) 
-1.85695

>  <r_i_glide_lipo>  (354) 
-0.0298926

>  <r_i_glide_hbond>  (354) 
0

>  <r_i_glide_metal>  (354) 
-0

>  <r_i_glide_rewards>  (354) 
-0.869627

>  <r_i_glide_evdw>  (354) 
-20.7712

>  <r_i_glide_ecoul>  (354) 
-0.132905

>  <r_i_glide_erotb>  (354) 
0.13923

>  <r_i_glide_esite>  (354) 
-0.0381662

>  <r_i_glide_emodel>  (354) 
-20.4227

>  <r_i_glide_energy>  (354) 
-20.9041

>  <r_i_glide_einternal>  (354) 
3.37729

>  <r_i_glide_intrahb_reward>  (354) 
-0

>  <i_i_glide_confnum>  (354) 
5

>  <i_i_glide_posenum>  (354) 
1

>  <r_i_glide_eff_state_penalty>  (354) 
0

>  <ligand_id>  (354) 
111

>  <original_smiles>  (354) 
COCC12C=C3C4CC5C(C(OC)C31)C(C4=O)(C1CC2C(O)C1=O)C5(C)C

>  <smiles>  (354) 
[H]OC1([H])C(=O)C2([H])C([H])([H])C1([H])C1(C([H])([H])OC([H])([H])[H])C([H])=C3C4([H])C(=O)C25C([H])(C([H])(OC([H])([H])[H])C31[H])C([H])(C4([H])[H])C5(C([H])([H])[H])C([H])([H])[H]

$$$$
112:0:0
     RDKit          3D

 48 52  0  0  1  0  0  0  0  0999 V2000
    3.0099    0.6763   -5.3212 C   0  0  0  0  0  0  0  0  0  0  0  0
    2.7079    0.1378   -3.9786 N   0  0  0  0  0  0  0  0  0  0  0  0
    3.6024   -0.9249   -3.4607 C   0  0  2  0  0  0  0  0  0  0  0  0
    3.1669   -2.2854   -4.0330 C   0  0  0  0  0  0  0  0  0  0  0  0
    3.8017   -3.4676   -3.2973 C   0  0  1  0  0  0  0  0  0  0  0  0
    5.3074   -3.3162   -3.0439 C   0  0  0  0  0  0  0  0  0  0  0  0
    5.2185   -3.1264   -1.5455 C   0  0  2  0  0  0  0  0  0  0  0  0
    4.4043   -4.3367   -1.0401 C   0  0  1  0  0  0  0  0  0  0  0  0
    4.2446   -4.5187    0.4282 N   0  0  1  0  0  0  0  0  0  0  0  0
    5.4310   -5.2033    1.0011 C   0  0  0  0  0  0  0  0  0  0  0  0
    3.8759   -3.2573    1.1498 C   0  0  0  0  0  0  0  0  0  0  0  0
    3.6438   -3.2601    2.5384 C   0  0  0  0  0  0  0  0  0  0  0  0
    3.3440   -2.0410    3.1790 C   0  0  0  0  0  0  0  0  0  0  0  0
    3.2788   -0.8385    2.4309 C   0  0  0  0  0  0  0  0  0  0  0  0
    3.0035    0.3967    2.9736 O   0  0  0  0  0  0  0  0  0  0  0  0
    2.7286    0.4676    4.3631 C   0  0  0  0  0  0  0  0  0  0  0  0
    3.5002   -0.8728    1.0341 C   0  0  0  0  0  0  0  0  0  0  0  0
    3.7786   -2.0956    0.3771 C   0  0  0  0  0  0  0  0  0  0  0  0
    3.9769   -2.2541   -1.1469 C   0  0  1  0  0  0  0  0  0  0  0  0
    3.6487   -0.9307   -1.9058 C   0  0  0  0  0  0  0  0  0  0  0  0
    3.3686   -3.5066   -1.8155 C   0  0  1  0  0  0  0  0  0  0  0  0
    1.9973   -3.7773   -1.6016 O   0  0  0  0  0  0  0  0  0  0  0  0
    2.2204    1.3758   -5.6032 H   0  0  0  0  0  0  0  0  0  0  0  0
    3.0458   -0.1032   -6.0852 H   0  0  0  0  0  0  0  0  0  0  0  0
    3.9530    1.2255   -5.3171 H   0  0  0  0  0  0  0  0  0  0  0  0
    2.6609    0.9224   -3.3268 H   0  0  0  0  0  0  0  0  0  0  0  0
    4.6040   -0.6878   -3.8204 H   0  0  0  0  0  0  0  0  0  0  0  0
    2.0784   -2.3935   -3.9733 H   0  0  0  0  0  0  0  0  0  0  0  0
    3.4144   -2.3503   -5.0852 H   0  0  0  0  0  0  0  0  0  0  0  0
    3.6062   -4.3804   -3.8631 H   0  0  0  0  0  0  0  0  0  0  0  0
    5.8425   -4.2315   -3.2857 H   0  0  0  0  0  0  0  0  0  0  0  0
    5.8059   -2.4821   -3.5213 H   0  0  0  0  0  0  0  0  0  0  0  0
    6.1480   -2.9234   -1.0064 H   0  0  0  0  0  0  0  0  0  0  0  0
    4.6630   -5.2807   -1.5233 H   0  0  0  0  0  0  0  0  0  0  0  0
    5.2859   -5.4700    2.0501 H   0  0  0  0  0  0  0  0  0  0  0  0
    6.3124   -4.5608    0.9316 H   0  0  0  0  0  0  0  0  0  0  0  0
    5.6462   -6.1289    0.4603 H   0  0  0  0  0  0  0  0  0  0  0  0
    3.6991   -4.1711    3.1168 H   0  0  0  0  0  0  0  0  0  0  0  0
    3.1741   -2.0585    4.2501 H   0  0  0  0  0  0  0  0  0  0  0  0
    2.5134    1.5037    4.6210 H   0  0  0  0  0  0  0  0  0  0  0  0
    3.5833    0.1465    4.9601 H   0  0  0  0  0  0  0  0  0  0  0  0
    1.8549   -0.1278    4.6313 H   0  0  0  0  0  0  0  0  0  0  0  0
    3.4316    0.0561    0.4892 H   0  0  0  0  0  0  0  0  0  0  0  0
    4.3267   -0.1431   -1.5845 H   0  0  0  0  0  0  0  0  0  0  0  0
    2.6437   -0.6643   -1.5924 H   0  0  0  0  0  0  0  0  0  0  0  0
    1.7723   -4.4431   -2.2367 H   0  0  0  0  0  0  0  0  0  0  0  0
    3.4798   -5.1721    0.5284 H   0  0  0  0  0  0  0  0  0  0  0  0
    1.7851   -0.2704   -4.0184 H   0  0  0  0  0  0  0  0  0  0  0  0
  1  2  1  0
  1 23  1  0
  1 24  1  0
  1 25  1  0
  2  3  1  0
  2 26  1  0
  2 48  1  0
  3 20  1  0
  3  4  1  0
  3 27  1  6
  4  5  1  0
  4 28  1  0
  4 29  1  0
  5 21  1  0
  5  6  1  0
  5 30  1  6
  6  7  1  0
  6 31  1  0
  6 32  1  0
  7 19  1  0
  7  8  1  0
  7 33  1  1
  8 21  1  0
  8  9  1  0
  8 34  1  6
  9 10  1  0
  9 11  1  0
  9 47  1  6
 10 35  1  0
 10 36  1  0
 10 37  1  0
 11 18  2  0
 11 12  1  0
 12 13  2  0
 12 38  1  0
 13 14  1  0
 13 39  1  0
 14 15  1  0
 14 17  2  0
 15 16  1  0
 16 40  1  0
 16 41  1  0
 16 42  1  0
 17 18  1  0
 17 43  1  0
 18 19  1  0
 19 20  1  6
 19 21  1  0
 20 44  1  0
 20 45  1  0
 21 22  1  6
 22 46  1  0
M  CHG  2   2   1   9   1
M  END
>  <i_m_ct_stereo_status>  (355) 
1

>  <s_m_source_file>  (355) 
/var/tmp/pbs.5076255.sched01/tmpr9sv22dd/120oksnzf6p.sdf

>  <i_m_source_file_index>  (355) 
31

>  <i_lp_mmshare_version>  (355) 
48012

>  <i_f3d_flags>  (355) 
0

>  <s_epik_input>  (355) 
W0NIM11bTkhdW0NAQEhdKFtDSDJdMSlbQ0gyXVtDQEBIXShbQ0gyXTIpW0NAQF0zKFtPSF0pW0NAQEhdKFtDQEBIXTJbQ0BAXTEzNClOKFtDSDNdKWM1YzRbY0hdYyhbY0hdW2NIXTUpT1tDSDNd

>  <s_epik_cmdline>  (355) 
J2VwaWtfcHl0aG9uJywgJy1waHQnLCAnMi4wJywgJy1waCcsICc3LjAnLCAnLXRuJywgJzgnLCAnLW1hJywgJzIwMCcsICctaW1hZScsICc8aW5maWxlLm1hZT4nLCAnLW9tYWUnLCAnPG91dGZpbGUubWFlPic=

>  <r_epik_Ionization_Penalty>  (355) 
0.00157465

>  <r_epik_Ionization_Penalty_Charging>  (355) 
0.00157439

>  <r_epik_Ionization_Penalty_Neutral>  (355) 
2.6356e-07

>  <r_epik_State_Penalty>  (355) 
0.00101541

>  <r_epik_Charging_Adjusted_Penalty>  (355) 
0.0025898

>  <i_epik_Tot_Q>  (355) 
2

>  <i_epik_Tot_abs_Q>  (355) 
2

>  <s_lp_Force_Field>  (355) 
OPLS3e

>  <r_lp_Energy>  (355) 
106.053

>  <b_lp_Chiralities_Consistent>  (355) 
1

>  <s_lp_Variant>  (355) 
112:0-1

>  <s_i_glide_gridfile>  (355) 
pfpi4k_grid

>  <i_i_glide_lignum>  (355) 
31

>  <i_i_glide_rotatable_bonds>  (355) 
3

>  <r_i_docking_score>  (355) 
-4.50895

>  <r_i_glide_ligand_efficiency>  (355) 
-0.204952

>  <r_i_glide_ligand_efficiency_sa>  (355) 
-0.574284

>  <r_i_glide_ligand_efficiency_ln>  (355) 
-1.10215

>  <r_i_glide_gscore>  (355) 
-4.50895

>  <r_i_glide_lipo>  (355) 
-0.915409

>  <r_i_glide_hbond>  (355) 
-0.148779

>  <r_i_glide_metal>  (355) 
-0

>  <r_i_glide_rewards>  (355) 
-1.3472

>  <r_i_glide_evdw>  (355) 
-19.3617

>  <r_i_glide_ecoul>  (355) 
-7.52986

>  <r_i_glide_erotb>  (355) 
0

>  <r_i_glide_esite>  (355) 
0

>  <r_i_glide_emodel>  (355) 
-35.8538

>  <r_i_glide_energy>  (355) 
-26.8915

>  <r_i_glide_einternal>  (355) 
1.74956

>  <r_i_glide_intrahb_reward>  (355) 
-0

>  <i_i_glide_confnum>  (355) 
2

>  <i_i_glide_posenum>  (355) 
40

>  <r_i_glide_eff_state_penalty>  (355) 
0

>  <ligand_id>  (355) 
112

>  <original_smiles>  (355) 
CNC1CC2CC3C4N(C)c5ccc(OC)cc5C3(C1)C24O

>  <smiles>  (355) 
[H]OC12C3([H])C([H])([H])C4([H])C1(c1c([H])c(OC([H])([H])[H])c([H])c([H])c1[N+]([H])(C([H])([H])[H])C42[H])C([H])([H])C([H])([N+]([H])([H])C([H])([H])[H])C3([H])[H]

$$$$
112:0:1
     RDKit          3D

 48 52  0  0  1  0  0  0  0  0999 V2000
    3.3754    0.4870   -5.2503 C   0  0  0  0  0  0  0  0  0  0  0  0
    3.0462    0.1331   -3.8588 N   0  0  0  0  0  0  0  0  0  0  0  0
    3.8503   -0.9401   -3.2247 C   0  0  2  0  0  0  0  0  0  0  0  0
    3.5216   -2.2957   -3.8597 C   0  0  0  0  0  0  0  0  0  0  0  0
    4.0504   -3.4912   -3.0672 C   0  0  1  0  0  0  0  0  0  0  0  0
    5.5073   -3.3311   -2.6087 C   0  0  0  0  0  0  0  0  0  0  0  0
    5.1969   -3.1906   -1.1357 C   0  0  2  0  0  0  0  0  0  0  0  0
    4.3224   -4.4084   -0.7541 C   0  0  1  0  0  0  0  0  0  0  0  0
    3.9488   -4.6119    0.6634 N   0  0  1  0  0  0  0  0  0  0  0  0
    5.0362   -5.2899    1.3905 C   0  0  0  0  0  0  0  0  0  0  0  0
    3.4671   -3.3594    1.3388 C   0  0  0  0  0  0  0  0  0  0  0  0
    3.0322   -3.3583    2.6728 C   0  0  0  0  0  0  0  0  0  0  0  0
    2.6363   -2.1276    3.2609 C   0  0  0  0  0  0  0  0  0  0  0  0
    2.6833   -0.9264    2.5044 C   0  0  0  0  0  0  0  0  0  0  0  0
    2.2880    0.2410    3.1321 O   0  0  0  0  0  0  0  0  0  0  0  0
    2.2942    1.4190    2.3222 C   0  0  0  0  0  0  0  0  0  0  0  0
    3.1211   -0.9842    1.1601 C   0  0  0  0  0  0  0  0  0  0  0  0
    3.4900   -2.2046    0.5512 C   0  0  0  0  0  0  0  0  0  0  0  0
    3.9083   -2.3227   -0.9120 C   0  0  1  0  0  0  0  0  0  0  0  0
    3.6825   -0.9734   -1.6857 C   0  0  0  0  0  0  0  0  0  0  0  0
    3.4219   -3.5657   -1.6691 C   0  0  1  0  0  0  0  0  0  0  0  0
    2.0312   -3.8270   -1.6620 O   0  0  0  0  0  0  0  0  0  0  0  0
    2.6513    1.2112   -5.6185 H   0  0  0  0  0  0  0  0  0  0  0  0
    3.3332   -0.3666   -5.9244 H   0  0  0  0  0  0  0  0  0  0  0  0
    4.3586    0.9443   -5.3280 H   0  0  0  0  0  0  0  0  0  0  0  0
    3.0779    0.9965   -3.3087 H   0  0  0  0  0  0  0  0  0  0  0  0
    4.8852   -0.6878   -3.4151 H   0  0  0  0  0  0  0  0  0  0  0  0
    2.4416   -2.4068   -3.9888 H   0  0  0  0  0  0  0  0  0  0  0  0
    3.9683   -2.3388   -4.8385 H   0  0  0  0  0  0  0  0  0  0  0  0
    3.9465   -4.4021   -3.6587 H   0  0  0  0  0  0  0  0  0  0  0  0
    6.0969   -4.2284   -2.7834 H   0  0  0  0  0  0  0  0  0  0  0  0
    6.0610   -2.4832   -3.0040 H   0  0  0  0  0  0  0  0  0  0  0  0
    6.0251   -2.9762   -0.4604 H   0  0  0  0  0  0  0  0  0  0  0  0
    4.6483   -5.3322   -1.2336 H   0  0  0  0  0  0  0  0  0  0  0  0
    4.7427   -5.5719    2.3976 H   0  0  0  0  0  0  0  0  0  0  0  0
    5.9108   -4.6487    1.4631 H   0  0  0  0  0  0  0  0  0  0  0  0
    5.3369   -6.2023    0.8757 H   0  0  0  0  0  0  0  0  0  0  0  0
    2.9984   -4.2701    3.2621 H   0  0  0  0  0  0  0  0  0  0  0  0
    2.3014   -2.1078    4.2916 H   0  0  0  0  0  0  0  0  0  0  0  0
    1.9780    2.3026    2.8797 H   0  0  0  0  0  0  0  0  0  0  0  0
    1.6166    1.3076    1.4688 H   0  0  0  0  0  0  0  0  0  0  0  0
    3.3005    1.6231    1.9454 H   0  0  0  0  0  0  0  0  0  0  0  0
    3.1589   -0.1013    0.5523 H   0  0  0  0  0  0  0  0  0  0  0  0
    4.3324   -0.2082   -1.2591 H   0  0  0  0  0  0  0  0  0  0  0  0
    2.6511   -0.6570   -1.5119 H   0  0  0  0  0  0  0  0  0  0  0  0
    1.8999   -4.4978   -2.3136 H   0  0  0  0  0  0  0  0  0  0  0  0
    3.1833   -5.2644    0.6296 H   0  0  0  0  0  0  0  0  0  0  0  0
    2.0879   -0.1769   -3.8333 H   0  0  0  0  0  0  0  0  0  0  0  0
  1  2  1  0
  1 23  1  0
  1 24  1  0
  1 25  1  0
  2  3  1  0
  2 26  1  0
  2 48  1  0
  3 20  1  0
  3  4  1  0
  3 27  1  1
  4  5  1  0
  4 28  1  0
  4 29  1  0
  5 21  1  0
  5  6  1  0
  5 30  1  6
  6  7  1  0
  6 31  1  0
  6 32  1  0
  7 19  1  0
  7  8  1  0
  7 33  1  1
  8 21  1  0
  8  9  1  0
  8 34  1  6
  9 10  1  0
  9 11  1  0
  9 47  1  6
 10 35  1  0
 10 36  1  0
 10 37  1  0
 11 18  2  0
 11 12  1  0
 12 13  2  0
 12 38  1  0
 13 14  1  0
 13 39  1  0
 14 15  1  0
 14 17  2  0
 15 16  1  0
 16 40  1  0
 16 41  1  0
 16 42  1  0
 17 18  1  0
 17 43  1  0
 18 19  1  0
 19 20  1  6
 19 21  1  0
 20 44  1  0
 20 45  1  0
 21 22  1  6
 22 46  1  0
M  CHG  2   2   1   9   1
M  END
>  <i_m_ct_stereo_status>  (356) 
1

>  <s_m_source_file>  (356) 
/var/tmp/pbs.5076255.sched01/tmpr9sv22dd/120oksnzf6p.sdf

>  <i_m_source_file_index>  (356) 
31

>  <i_lp_mmshare_version>  (356) 
48012

>  <i_f3d_flags>  (356) 
0

>  <s_epik_input>  (356) 
W0NIM11bTkhdW0NAQEhdKFtDSDJdMSlbQ0gyXVtDQEBIXShbQ0gyXTIpW0NAQF0zKFtPSF0pW0NAQEhdKFtDQEBIXTJbQ0BAXTEzNClOKFtDSDNdKWM1YzRbY0hdYyhbY0hdW2NIXTUpT1tDSDNd

>  <s_epik_cmdline>  (356) 
J2VwaWtfcHl0aG9uJywgJy1waHQnLCAnMi4wJywgJy1waCcsICc3LjAnLCAnLXRuJywgJzgnLCAnLW1hJywgJzIwMCcsICctaW1hZScsICc8aW5maWxlLm1hZT4nLCAnLW9tYWUnLCAnPG91dGZpbGUubWFlPic=

>  <r_epik_Ionization_Penalty>  (356) 
0.00157465

>  <r_epik_Ionization_Penalty_Charging>  (356) 
0.00157439

>  <r_epik_Ionization_Penalty_Neutral>  (356) 
2.6356e-07

>  <r_epik_State_Penalty>  (356) 
0.00101541

>  <r_epik_Charging_Adjusted_Penalty>  (356) 
0.0025898

>  <i_epik_Tot_Q>  (356) 
2

>  <i_epik_Tot_abs_Q>  (356) 
2

>  <s_lp_Force_Field>  (356) 
OPLS3e

>  <r_lp_Energy>  (356) 
106.053

>  <b_lp_Chiralities_Consistent>  (356) 
1

>  <s_lp_Variant>  (356) 
112:0-1

>  <s_i_glide_gridfile>  (356) 
pfpi4k_grid

>  <i_i_glide_lignum>  (356) 
31

>  <i_i_glide_rotatable_bonds>  (356) 
3

>  <r_i_docking_score>  (356) 
-4.49606

>  <r_i_glide_ligand_efficiency>  (356) 
-0.204366

>  <r_i_glide_ligand_efficiency_sa>  (356) 
-0.572643

>  <r_i_glide_ligand_efficiency_ln>  (356) 
-1.099

>  <r_i_glide_gscore>  (356) 
-4.49606

>  <r_i_glide_lipo>  (356) 
-0.827954

>  <r_i_glide_hbond>  (356) 
-0.188392

>  <r_i_glide_metal>  (356) 
-0

>  <r_i_glide_rewards>  (356) 
-1.3472

>  <r_i_glide_evdw>  (356) 
-19.0972

>  <r_i_glide_ecoul>  (356) 
-7.85105

>  <r_i_glide_erotb>  (356) 
0

>  <r_i_glide_esite>  (356) 
0

>  <r_i_glide_emodel>  (356) 
-34.0317

>  <r_i_glide_energy>  (356) 
-26.9483

>  <r_i_glide_einternal>  (356) 
5.01263

>  <r_i_glide_intrahb_reward>  (356) 
-0

>  <i_i_glide_confnum>  (356) 
1

>  <i_i_glide_posenum>  (356) 
14

>  <r_i_glide_eff_state_penalty>  (356) 
0

>  <ligand_id>  (356) 
112

>  <original_smiles>  (356) 
CNC1CC2CC3C4N(C)c5ccc(OC)cc5C3(C1)C24O

>  <smiles>  (356) 
[H]OC12C3([H])C([H])([H])C4([H])C1(c1c([H])c(OC([H])([H])[H])c([H])c([H])c1[N+]([H])(C([H])([H])[H])C42[H])C([H])([H])C([H])([N+]([H])([H])C([H])([H])[H])C3([H])[H]

$$$$
112:0:2
     RDKit          3D

 48 52  0  0  1  0  0  0  0  0999 V2000
    3.0320    0.6456   -5.3058 C   0  0  0  0  0  0  0  0  0  0  0  0
    2.7624    0.1441   -3.9402 N   0  0  0  0  0  0  0  0  0  0  0  0
    3.6527   -0.9350   -3.4359 C   0  0  2  0  0  0  0  0  0  0  0  0
    3.1844   -2.2896   -3.9852 C   0  0  0  0  0  0  0  0  0  0  0  0
    3.8094   -3.4688   -3.2473 C   0  0  1  0  0  0  0  0  0  0  0  0
    5.3204   -3.3342   -3.0298 C   0  0  0  0  0  0  0  0  0  0  0  0
    5.2733   -3.1442   -1.5338 C   0  0  2  0  0  0  0  0  0  0  0  0
    4.4470   -4.3358   -1.0021 C   0  0  1  0  0  0  0  0  0  0  0  0
    4.3195   -4.5053    0.4738 N   0  0  1  0  0  0  0  0  0  0  0  0
    5.5138   -5.1997    1.0223 C   0  0  0  0  0  0  0  0  0  0  0  0
    3.9907   -3.2326    1.1922 C   0  0  0  0  0  0  0  0  0  0  0  0
    3.7984   -3.2038    2.5855 C   0  0  0  0  0  0  0  0  0  0  0  0
    3.5344   -1.9691    3.2057 C   0  0  0  0  0  0  0  0  0  0  0  0
    3.4412   -0.7868    2.4334 C   0  0  0  0  0  0  0  0  0  0  0  0
    3.1533    0.3894    3.0753 O   0  0  0  0  0  0  0  0  0  0  0  0
    2.2939    1.2914    2.3827 C   0  0  0  0  0  0  0  0  0  0  0  0
    3.6553   -0.8453    1.0347 C   0  0  0  0  0  0  0  0  0  0  0  0
    3.9009   -2.0790    0.4007 C   0  0  0  0  0  0  0  0  0  0  0  0
    4.0670   -2.2520   -1.1179 C   0  0  1  0  0  0  0  0  0  0  0  0
    3.7411   -0.9298   -1.8805 C   0  0  0  0  0  0  0  0  0  0  0  0
    3.4080   -3.4901   -1.7604 C   0  0  1  0  0  0  0  0  0  0  0  0
    2.0398   -3.7046   -1.4858 O   0  0  0  0  0  0  0  0  0  0  0  0
    2.2516    1.3598   -5.5785 H   0  0  0  0  0  0  0  0  0  0  0  0
    3.0231   -0.1495   -6.0555 H   0  0  0  0  0  0  0  0  0  0  0  0
    3.9879    1.1692   -5.3502 H   0  0  0  0  0  0  0  0  0  0  0  0
    2.7618    0.9433   -3.3099 H   0  0  0  0  0  0  0  0  0  0  0  0
    4.6403   -0.7118   -3.8290 H   0  0  0  0  0  0  0  0  0  0  0  0
    2.1002   -2.3773   -3.9155 H   0  0  0  0  0  0  0  0  0  0  0  0
    3.4148   -2.3713   -5.0422 H   0  0  0  0  0  0  0  0  0  0  0  0
    3.5909   -4.3789   -3.7989 H   0  0  0  0  0  0  0  0  0  0  0  0
    5.8499   -4.2535   -3.2801 H   0  0  0  0  0  0  0  0  0  0  0  0
    5.8110   -2.5127   -3.5259 H   0  0  0  0  0  0  0  0  0  0  0  0
    6.2160   -2.9580   -1.0198 H   0  0  0  0  0  0  0  0  0  0  0  0
    4.6729   -5.2842   -1.4874 H   0  0  0  0  0  0  0  0  0  0  0  0
    5.3933   -5.4520    2.0790 H   0  0  0  0  0  0  0  0  0  0  0  0
    6.4018   -4.5709    0.9269 H   0  0  0  0  0  0  0  0  0  0  0  0
    5.7064   -6.1332    0.4881 H   0  0  0  0  0  0  0  0  0  0  0  0
    3.8514   -4.1107    3.1780 H   0  0  0  0  0  0  0  0  0  0  0  0
    3.3816   -1.9299    4.2781 H   0  0  0  0  0  0  0  0  0  0  0  0
    2.2137    2.2279    2.9330 H   0  0  0  0  0  0  0  0  0  0  0  0
    1.3016    0.8471    2.3055 H   0  0  0  0  0  0  0  0  0  0  0  0
    2.6126    1.5668    1.3790 H   0  0  0  0  0  0  0  0  0  0  0  0
    3.6367    0.0488    0.4425 H   0  0  0  0  0  0  0  0  0  0  0  0
    4.4284   -0.1396   -1.5846 H   0  0  0  0  0  0  0  0  0  0  0  0
    2.7456   -0.6549   -1.5527 H   0  0  0  0  0  0  0  0  0  0  0  0
    1.5938   -2.8949   -1.6953 H   0  0  0  0  0  0  0  0  0  0  0  0
    3.5521   -5.1496    0.5957 H   0  0  0  0  0  0  0  0  0  0  0  0
    1.8267   -0.2337   -3.9473 H   0  0  0  0  0  0  0  0  0  0  0  0
  1  2  1  0
  1 23  1  0
  1 24  1  0
  1 25  1  0
  2  3  1  0
  2 26  1  0
  2 48  1  0
  3 20  1  0
  3  4  1  0
  3 27  1  6
  4  5  1  0
  4 28  1  0
  4 29  1  0
  5 21  1  0
  5  6  1  0
  5 30  1  6
  6  7  1  0
  6 31  1  0
  6 32  1  0
  7 19  1  0
  7  8  1  0
  7 33  1  1
  8 21  1  0
  8  9  1  0
  8 34  1  6
  9 10  1  0
  9 11  1  0
  9 47  1  6
 10 35  1  0
 10 36  1  0
 10 37  1  0
 11 18  2  0
 11 12  1  0
 12 13  2  0
 12 38  1  0
 13 14  1  0
 13 39  1  0
 14 15  1  0
 14 17  2  0
 15 16  1  0
 16 40  1  0
 16 41  1  0
 16 42  1  0
 17 18  1  0
 17 43  1  0
 18 19  1  0
 19 20  1  6
 19 21  1  0
 20 44  1  0
 20 45  1  0
 21 22  1  6
 22 46  1  0
M  CHG  2   2   1   9   1
M  END
>  <i_m_ct_stereo_status>  (357) 
1

>  <s_m_source_file>  (357) 
/var/tmp/pbs.5076255.sched01/tmpr9sv22dd/120oksnzf6p.sdf

>  <i_m_source_file_index>  (357) 
31

>  <i_lp_mmshare_version>  (357) 
48012

>  <i_f3d_flags>  (357) 
0

>  <s_epik_input>  (357) 
W0NIM11bTkhdW0NAQEhdKFtDSDJdMSlbQ0gyXVtDQEBIXShbQ0gyXTIpW0NAQF0zKFtPSF0pW0NAQEhdKFtDQEBIXTJbQ0BAXTEzNClOKFtDSDNdKWM1YzRbY0hdYyhbY0hdW2NIXTUpT1tDSDNd

>  <s_epik_cmdline>  (357) 
J2VwaWtfcHl0aG9uJywgJy1waHQnLCAnMi4wJywgJy1waCcsICc3LjAnLCAnLXRuJywgJzgnLCAnLW1hJywgJzIwMCcsICctaW1hZScsICc8aW5maWxlLm1hZT4nLCAnLW9tYWUnLCAnPG91dGZpbGUubWFlPic=

>  <r_epik_Ionization_Penalty>  (357) 
0.00157465

>  <r_epik_Ionization_Penalty_Charging>  (357) 
0.00157439

>  <r_epik_Ionization_Penalty_Neutral>  (357) 
2.6356e-07

>  <r_epik_State_Penalty>  (357) 
0.00101541

>  <r_epik_Charging_Adjusted_Penalty>  (357) 
0.0025898

>  <i_epik_Tot_Q>  (357) 
2

>  <i_epik_Tot_abs_Q>  (357) 
2

>  <s_lp_Force_Field>  (357) 
OPLS3e

>  <r_lp_Energy>  (357) 
106.053

>  <b_lp_Chiralities_Consistent>  (357) 
1

>  <s_lp_Variant>  (357) 
112:0-1

>  <s_i_glide_gridfile>  (357) 
pfpi4k_grid

>  <i_i_glide_lignum>  (357) 
31

>  <i_i_glide_rotatable_bonds>  (357) 
3

>  <r_i_docking_score>  (357) 
-4.25885

>  <r_i_glide_ligand_efficiency>  (357) 
-0.193584

>  <r_i_glide_ligand_efficiency_sa>  (357) 
-0.54243

>  <r_i_glide_ligand_efficiency_ln>  (357) 
-1.04102

>  <r_i_glide_gscore>  (357) 
-4.25885

>  <r_i_glide_lipo>  (357) 
-0.980985

>  <r_i_glide_hbond>  (357) 
-0.0710987

>  <r_i_glide_metal>  (357) 
-0

>  <r_i_glide_rewards>  (357) 
-1.3472

>  <r_i_glide_evdw>  (357) 
-20.794

>  <r_i_glide_ecoul>  (357) 
-5.46578

>  <r_i_glide_erotb>  (357) 
0

>  <r_i_glide_esite>  (357) 
0

>  <r_i_glide_emodel>  (357) 
-31.7975

>  <r_i_glide_energy>  (357) 
-26.2597

>  <r_i_glide_einternal>  (357) 
6.73843

>  <r_i_glide_intrahb_reward>  (357) 
-0

>  <i_i_glide_confnum>  (357) 
1

>  <i_i_glide_posenum>  (357) 
25

>  <r_i_glide_eff_state_penalty>  (357) 
0

>  <ligand_id>  (357) 
112

>  <original_smiles>  (357) 
CNC1CC2CC3C4N(C)c5ccc(OC)cc5C3(C1)C24O

>  <smiles>  (357) 
[H]OC12C3([H])C([H])([H])C4([H])C1(c1c([H])c(OC([H])([H])[H])c([H])c([H])c1[N+]([H])(C([H])([H])[H])C42[H])C([H])([H])C([H])([N+]([H])([H])C([H])([H])[H])C3([H])[H]

$$$$
113:0:0
     RDKit          3D

 34 36  0  0  1  0  0  0  0  0999 V2000
    2.2595   -2.6612   -3.8604 C   0  0  0  0  0  0  0  0  0  0  0  0
    3.5123   -2.5500   -3.0263 C   0  0  0  0  0  0  0  0  0  0  0  0
    4.5907   -2.3218   -3.5838 O   0  0  0  0  0  0  0  0  0  0  0  0
    3.3547   -2.7106   -1.7056 N   0  0  0  0  0  0  0  0  0  0  0  0
    4.3980   -2.7172   -0.6826 C   0  0  1  0  0  0  0  0  0  0  0  0
    3.7439   -2.9743    0.7002 C   0  0  0  0  0  0  0  0  0  0  0  0
    4.8292   -2.9806    1.7999 C   0  0  1  0  0  0  0  0  0  0  0  0
    5.8525   -4.1006    1.5145 C   0  0  0  0  0  0  0  0  0  0  0  0
    6.5103   -3.8541    0.1388 C   0  0  1  0  0  0  0  0  0  0  0  0
    5.4156   -3.8617   -0.9471 C   0  0  0  0  0  0  0  0  0  0  0  0
    7.2375   -2.4921    0.1421 C   0  0  1  0  0  0  0  0  0  0  0  0
    7.8693   -2.2561   -1.1047 O   0  0  0  0  0  0  0  0  0  0  0  0
    6.2158   -1.3676    0.4518 C   0  0  2  0  0  0  0  0  0  0  0  0
    5.5438   -1.6159    1.8202 C   0  0  0  0  0  0  0  0  0  0  0  0
    5.1215   -1.3428   -0.6309 C   0  0  0  0  0  0  0  0  0  0  0  0
    1.3904   -2.8912   -3.2444 H   0  0  0  0  0  0  0  0  0  0  0  0
    2.3758   -3.4492   -4.6053 H   0  0  0  0  0  0  0  0  0  0  0  0
    2.0990   -1.7063   -4.3550 H   0  0  0  0  0  0  0  0  0  0  0  0
    2.4025   -2.8356   -1.3840 H   0  0  0  0  0  0  0  0  0  0  0  0
    2.9977   -2.2063    0.9204 H   0  0  0  0  0  0  0  0  0  0  0  0
    3.2133   -3.9279    0.7036 H   0  0  0  0  0  0  0  0  0  0  0  0
    4.3671   -3.1571    2.7707 H   0  0  0  0  0  0  0  0  0  0  0  0
    6.6102   -4.1327    2.2964 H   0  0  0  0  0  0  0  0  0  0  0  0
    5.3578   -5.0741    1.5269 H   0  0  0  0  0  0  0  0  0  0  0  0
    7.2244   -4.6569   -0.0500 H   0  0  0  0  0  0  0  0  0  0  0  0
    4.9091   -4.8294   -0.9653 H   0  0  0  0  0  0  0  0  0  0  0  0
    5.8931   -3.7650   -1.9209 H   0  0  0  0  0  0  0  0  0  0  0  0
    8.0171   -2.4951    0.8922 H   0  0  0  0  0  0  0  0  0  0  0  0
    8.5119   -2.9364   -1.2845 H   0  0  0  0  0  0  0  0  0  0  0  0
    6.7205   -0.4029    0.4796 H   0  0  0  0  0  0  0  0  0  0  0  0
    4.8270   -0.8212    2.0319 H   0  0  0  0  0  0  0  0  0  0  0  0
    6.2768   -1.5870    2.6247 H   0  0  0  0  0  0  0  0  0  0  0  0
    5.5808   -1.0902   -1.5849 H   0  0  0  0  0  0  0  0  0  0  0  0
    4.4067   -0.5428   -0.4270 H   0  0  0  0  0  0  0  0  0  0  0  0
  1  2  1  0
  1 16  1  0
  1 17  1  0
  1 18  1  0
  2  3  2  0
  2  4  1  0
  5  4  1  6
  4 19  1  0
  5 10  1  0
  5 15  1  0
  5  6  1  0
  6  7  1  0
  6 20  1  0
  6 21  1  0
  7 14  1  0
  7  8  1  0
  7 22  1  1
  8  9  1  0
  8 23  1  0
  8 24  1  0
  9 10  1  0
  9 11  1  0
  9 25  1  6
 10 26  1  0
 10 27  1  0
 11 12  1  0
 11 13  1  0
 11 28  1  1
 12 29  1  0
 13 14  1  0
 13 15  1  0
 13 30  1  1
 14 31  1  0
 14 32  1  0
 15 33  1  0
 15 34  1  0
M  END
>  <i_m_ct_stereo_status>  (358) 
1

>  <s_m_source_file>  (358) 
/var/tmp/pbs.5076255.sched01/tmpr9sv22dd/120oksnzf6p.sdf

>  <i_m_source_file_index>  (358) 
32

>  <i_lp_mmshare_version>  (358) 
48012

>  <i_f3d_flags>  (358) 
0

>  <s_epik_input>  (358) 
W0NIM11DKD1PKVtOSF1bQ0BAXTEyW0NIMl1bQ0BIXTNbQ0gyXVtDQEBIXShbQ0gyXTEpW0NAQEhdKFtPSF0pW0NASF0oW0NIMl0zKVtDSDJdMg==

>  <s_epik_cmdline>  (358) 
J2VwaWtfcHl0aG9uJywgJy1waHQnLCAnMi4wJywgJy1waCcsICc3LjAnLCAnLXRuJywgJzgnLCAnLW1hJywgJzIwMCcsICctaW1hZScsICc8aW5maWxlLm1hZT4nLCAnLW9tYWUnLCAnPG91dGZpbGUubWFlPic=

>  <r_lp_tautomer_probability>  (358) 
1

>  <r_epik_Ionization_Penalty>  (358) 
4.38014e-06

>  <r_epik_Ionization_Penalty_Charging>  (358) 
0

>  <r_epik_Ionization_Penalty_Neutral>  (358) 
4.38014e-06

>  <r_epik_State_Penalty>  (358) 
-0

>  <r_epik_Charging_Adjusted_Penalty>  (358) 
0

>  <i_epik_Tot_Q>  (358) 
0

>  <i_epik_Tot_abs_Q>  (358) 
0

>  <s_lp_Force_Field>  (358) 
OPLS3e

>  <r_lp_Energy>  (358) 
-4.83251

>  <b_lp_Chiralities_Consistent>  (358) 
1

>  <s_lp_Variant>  (358) 
113:0-1

>  <s_i_glide_gridfile>  (358) 
pfpi4k_grid

>  <i_i_glide_lignum>  (358) 
32

>  <i_i_glide_rotatable_bonds>  (358) 
3

>  <r_i_docking_score>  (358) 
-4.76795

>  <r_i_glide_ligand_efficiency>  (358) 
-0.317863

>  <r_i_glide_ligand_efficiency_sa>  (358) 
-0.783919

>  <r_i_glide_ligand_efficiency_ln>  (358) 
-1.28584

>  <r_i_glide_gscore>  (358) 
-4.76795

>  <r_i_glide_lipo>  (358) 
-0.723046

>  <r_i_glide_hbond>  (358) 
-0.16

>  <r_i_glide_metal>  (358) 
-0

>  <r_i_glide_rewards>  (358) 
-2.06874

>  <r_i_glide_evdw>  (358) 
-22.5317

>  <r_i_glide_ecoul>  (358) 
-6.93282

>  <r_i_glide_erotb>  (358) 
0.378504

>  <r_i_glide_esite>  (358) 
-0.0281594

>  <r_i_glide_emodel>  (358) 
-38.7225

>  <r_i_glide_energy>  (358) 
-29.4645

>  <r_i_glide_einternal>  (358) 
0.396169

>  <r_i_glide_intrahb_reward>  (358) 
-0

>  <i_i_glide_confnum>  (358) 
4

>  <i_i_glide_posenum>  (358) 
14

>  <r_i_glide_eff_state_penalty>  (358) 
0

>  <ligand_id>  (358) 
113

>  <original_smiles>  (358) 
CC(=O)NC12CC3CC(C1)C(O)C(C3)C2

>  <smiles>  (358) 
[H]OC1([H])C2([H])C([H])([H])C3([H])C([H])([H])C1([H])C([H])([H])C(N([H])C(=O)C([H])([H])[H])(C3([H])[H])C2([H])[H]

$$$$
113:0:1
     RDKit          3D

 34 36  0  0  1  0  0  0  0  0999 V2000
    3.1337   -0.0830   -4.7186 C   0  0  0  0  0  0  0  0  0  0  0  0
    3.6162   -1.2226   -3.8305 C   0  0  0  0  0  0  0  0  0  0  0  0
    3.8168   -2.3317   -4.3194 O   0  0  0  0  0  0  0  0  0  0  0  0
    3.8120   -0.9400   -2.5343 N   0  0  0  0  0  0  0  0  0  0  0  0
    4.2689   -1.8665   -1.4960 C   0  0  1  0  0  0  0  0  0  0  0  0
    3.2827   -3.0527   -1.3097 C   0  0  0  0  0  0  0  0  0  0  0  0
    3.7881   -3.9639   -0.1803 C   0  0  1  0  0  0  0  0  0  0  0  0
    5.1884   -4.5050   -0.5385 C   0  0  0  0  0  0  0  0  0  0  0  0
    6.1791   -3.3281   -0.7007 C   0  0  1  0  0  0  0  0  0  0  0  0
    5.6814   -2.4148   -1.8347 C   0  0  0  0  0  0  0  0  0  0  0  0
    6.2646   -2.5365    0.6226 C   0  0  1  0  0  0  0  0  0  0  0  0
    7.2078   -1.4775    0.5025 O   0  0  0  0  0  0  0  0  0  0  0  0
    4.8574   -1.9988    0.9735 C   0  0  2  0  0  0  0  0  0  0  0  0
    3.8698   -3.1734    1.1354 C   0  0  0  0  0  0  0  0  0  0  0  0
    4.3476   -1.0812   -0.1581 C   0  0  0  0  0  0  0  0  0  0  0  0
    3.0236    0.8483   -4.1650 H   0  0  0  0  0  0  0  0  0  0  0  0
    2.1669   -0.3349   -5.1443 H   0  0  0  0  0  0  0  0  0  0  0  0
    3.8355    0.0835   -5.5284 H   0  0  0  0  0  0  0  0  0  0  0  0
    3.5829    0.0008   -2.2465 H   0  0  0  0  0  0  0  0  0  0  0  0
    2.2816   -2.6835   -1.0775 H   0  0  0  0  0  0  0  0  0  0  0  0
    3.1842   -3.6459   -2.2171 H   0  0  0  0  0  0  0  0  0  0  0  0
    3.1023   -4.8019   -0.0652 H   0  0  0  0  0  0  0  0  0  0  0  0
    5.5359   -5.1987    0.2280 H   0  0  0  0  0  0  0  0  0  0  0  0
    5.1226   -5.0712   -1.4702 H   0  0  0  0  0  0  0  0  0  0  0  0
    7.1645   -3.7218   -0.9602 H   0  0  0  0  0  0  0  0  0  0  0  0
    5.6897   -2.9935   -2.7611 H   0  0  0  0  0  0  0  0  0  0  0  0
    6.3747   -1.5903   -1.9854 H   0  0  0  0  0  0  0  0  0  0  0  0
    6.6089   -3.1971    1.4168 H   0  0  0  0  0  0  0  0  0  0  0  0
    7.1828   -0.9349    1.2781 H   0  0  0  0  0  0  0  0  0  0  0  0
    4.9025   -1.4387    1.9054 H   0  0  0  0  0  0  0  0  0  0  0  0
    2.8824   -2.7956    1.4013 H   0  0  0  0  0  0  0  0  0  0  0  0
    4.1795   -3.8296    1.9482 H   0  0  0  0  0  0  0  0  0  0  0  0
    5.0029   -0.2167   -0.2634 H   0  0  0  0  0  0  0  0  0  0  0  0
    3.3636   -0.6812    0.1028 H   0  0  0  0  0  0  0  0  0  0  0  0
  1  2  1  0
  1 16  1  0
  1 17  1  0
  1 18  1  0
  2  3  2  0
  2  4  1  0
  5  4  1  6
  4 19  1  0
  5 10  1  0
  5 15  1  0
  5  6  1  0
  6  7  1  0
  6 20  1  0
  6 21  1  0
  7 14  1  0
  7  8  1  0
  7 22  1  1
  8  9  1  0
  8 23  1  0
  8 24  1  0
  9 10  1  0
  9 11  1  0
  9 25  1  6
 10 26  1  0
 10 27  1  0
 11 12  1  0
 11 13  1  0
 11 28  1  1
 12 29  1  0
 13 14  1  0
 13 15  1  0
 13 30  1  1
 14 31  1  0
 14 32  1  0
 15 33  1  0
 15 34  1  0
M  END
>  <i_m_ct_stereo_status>  (359) 
1

>  <s_m_source_file>  (359) 
/var/tmp/pbs.5076255.sched01/tmpr9sv22dd/120oksnzf6p.sdf

>  <i_m_source_file_index>  (359) 
32

>  <i_lp_mmshare_version>  (359) 
48012

>  <i_f3d_flags>  (359) 
0

>  <s_epik_input>  (359) 
W0NIM11DKD1PKVtOSF1bQ0BAXTEyW0NIMl1bQ0BIXTNbQ0gyXVtDQEBIXShbQ0gyXTEpW0NAQEhdKFtPSF0pW0NASF0oW0NIMl0zKVtDSDJdMg==

>  <s_epik_cmdline>  (359) 
J2VwaWtfcHl0aG9uJywgJy1waHQnLCAnMi4wJywgJy1waCcsICc3LjAnLCAnLXRuJywgJzgnLCAnLW1hJywgJzIwMCcsICctaW1hZScsICc8aW5maWxlLm1hZT4nLCAnLW9tYWUnLCAnPG91dGZpbGUubWFlPic=

>  <r_lp_tautomer_probability>  (359) 
1

>  <r_epik_Ionization_Penalty>  (359) 
4.38014e-06

>  <r_epik_Ionization_Penalty_Charging>  (359) 
0

>  <r_epik_Ionization_Penalty_Neutral>  (359) 
4.38014e-06

>  <r_epik_State_Penalty>  (359) 
-0

>  <r_epik_Charging_Adjusted_Penalty>  (359) 
0

>  <i_epik_Tot_Q>  (359) 
0

>  <i_epik_Tot_abs_Q>  (359) 
0

>  <s_lp_Force_Field>  (359) 
OPLS3e

>  <r_lp_Energy>  (359) 
-4.83251

>  <b_lp_Chiralities_Consistent>  (359) 
1

>  <s_lp_Variant>  (359) 
113:0-1

>  <s_i_glide_gridfile>  (359) 
pfpi4k_grid

>  <i_i_glide_lignum>  (359) 
32

>  <i_i_glide_rotatable_bonds>  (359) 
3

>  <r_i_docking_score>  (359) 
-4.74696

>  <r_i_glide_ligand_efficiency>  (359) 
-0.316464

>  <r_i_glide_ligand_efficiency_sa>  (359) 
-0.780467

>  <r_i_glide_ligand_efficiency_ln>  (359) 
-1.28018

>  <r_i_glide_gscore>  (359) 
-4.74696

>  <r_i_glide_lipo>  (359) 
-0.45707

>  <r_i_glide_hbond>  (359) 
-0.348859

>  <r_i_glide_metal>  (359) 
-0

>  <r_i_glide_rewards>  (359) 
-2.19715

>  <r_i_glide_evdw>  (359) 
-26.3404

>  <r_i_glide_ecoul>  (359) 
-5.23624

>  <r_i_glide_erotb>  (359) 
0.378504

>  <r_i_glide_esite>  (359) 
-0.0199263

>  <r_i_glide_emodel>  (359) 
-40.7975

>  <r_i_glide_energy>  (359) 
-31.5766

>  <r_i_glide_einternal>  (359) 
0.477792

>  <r_i_glide_intrahb_reward>  (359) 
-0

>  <i_i_glide_confnum>  (359) 
2

>  <i_i_glide_posenum>  (359) 
1

>  <r_i_glide_eff_state_penalty>  (359) 
0

>  <ligand_id>  (359) 
113

>  <original_smiles>  (359) 
CC(=O)NC12CC3CC(C1)C(O)C(C3)C2

>  <smiles>  (359) 
[H]OC1([H])C2([H])C([H])([H])C3([H])C([H])([H])C1([H])C([H])([H])C(N([H])C(=O)C([H])([H])[H])(C3([H])[H])C2([H])[H]

$$$$
113:0:2
     RDKit          3D

 34 36  0  0  1  0  0  0  0  0999 V2000
    3.4008    0.0308   -4.7442 C   0  0  0  0  0  0  0  0  0  0  0  0
    3.8008   -1.1222   -3.8352 C   0  0  0  0  0  0  0  0  0  0  0  0
    4.0172   -2.2308   -4.3189 O   0  0  0  0  0  0  0  0  0  0  0  0
    3.9039   -0.8640   -2.5269 N   0  0  0  0  0  0  0  0  0  0  0  0
    4.2440   -1.8169   -1.4687 C   0  0  1  0  0  0  0  0  0  0  0  0
    5.6798   -2.3804   -1.6639 C   0  0  0  0  0  0  0  0  0  0  0  0
    6.0200   -3.3431   -0.5129 C   0  0  1  0  0  0  0  0  0  0  0  0
    5.9778   -2.5887    0.8312 C   0  0  0  0  0  0  0  0  0  0  0  0
    4.5599   -2.0196    1.0471 C   0  0  1  0  0  0  0  0  0  0  0  0
    4.2147   -1.0584   -0.1151 C   0  0  0  0  0  0  0  0  0  0  0  0
    3.5373   -3.1754    1.0849 C   0  0  1  0  0  0  0  0  0  0  0  0
    2.2440   -2.6586    1.3349 O   0  0  0  0  0  0  0  0  0  0  0  0
    3.5800   -3.9398   -0.2546 C   0  0  2  0  0  0  0  0  0  0  0  0
    4.9986   -4.4967   -0.4867 C   0  0  0  0  0  0  0  0  0  0  0  0
    3.2301   -2.9976   -1.4184 C   0  0  0  0  0  0  0  0  0  0  0  0
    3.2350    0.9509   -4.1850 H   0  0  0  0  0  0  0  0  0  0  0  0
    2.4841   -0.2245   -5.2755 H   0  0  0  0  0  0  0  0  0  0  0  0
    4.1859    0.2155   -5.4748 H   0  0  0  0  0  0  0  0  0  0  0  0
    3.6653    0.0804   -2.2400 H   0  0  0  0  0  0  0  0  0  0  0  0
    5.7858   -2.9279   -2.6039 H   0  0  0  0  0  0  0  0  0  0  0  0
    6.4000   -1.5666   -1.7002 H   0  0  0  0  0  0  0  0  0  0  0  0
    7.0217   -3.7474   -0.6663 H   0  0  0  0  0  0  0  0  0  0  0  0
    6.2470   -3.2602    1.6453 H   0  0  0  0  0  0  0  0  0  0  0  0
    6.7091   -1.7795    0.8363 H   0  0  0  0  0  0  0  0  0  0  0  0
    4.5335   -1.4761    1.9935 H   0  0  0  0  0  0  0  0  0  0  0  0
    4.9307   -0.2305   -0.1189 H   0  0  0  0  0  0  0  0  0  0  0  0
    3.2348   -0.6040    0.0481 H   0  0  0  0  0  0  0  0  0  0  0  0
    3.7801   -3.8589    1.9005 H   0  0  0  0  0  0  0  0  0  0  0  0
    2.0180   -2.0383    0.6493 H   0  0  0  0  0  0  0  0  0  0  0  0
    2.8686   -4.7641   -0.2340 H   0  0  0  0  0  0  0  0  0  0  0  0
    5.0157   -5.0351   -1.4363 H   0  0  0  0  0  0  0  0  0  0  0  0
    5.2655   -5.2216    0.2817 H   0  0  0  0  0  0  0  0  0  0  0  0
    2.2108   -2.6353   -1.3135 H   0  0  0  0  0  0  0  0  0  0  0  0
    3.2293   -3.5853   -2.3357 H   0  0  0  0  0  0  0  0  0  0  0  0
  1  2  1  0
  1 16  1  0
  1 17  1  0
  1 18  1  0
  2  3  2  0
  2  4  1  0
  5  4  1  6
  4 19  1  0
  5 10  1  0
  5 15  1  0
  5  6  1  0
  6  7  1  0
  6 20  1  0
  6 21  1  0
  7 14  1  0
  7  8  1  0
  7 22  1  6
  8  9  1  0
  8 23  1  0
  8 24  1  0
  9 10  1  0
  9 11  1  0
  9 25  1  1
 10 26  1  0
 10 27  1  0
 11 12  1  0
 11 13  1  0
 11 28  1  1
 12 29  1  0
 13 14  1  0
 13 15  1  0
 13 30  1  1
 14 31  1  0
 14 32  1  0
 15 33  1  0
 15 34  1  0
M  END
>  <i_m_ct_stereo_status>  (360) 
1

>  <s_m_source_file>  (360) 
/var/tmp/pbs.5076255.sched01/tmpr9sv22dd/120oksnzf6p.sdf

>  <i_m_source_file_index>  (360) 
32

>  <i_lp_mmshare_version>  (360) 
48012

>  <i_f3d_flags>  (360) 
0

>  <s_epik_input>  (360) 
W0NIM11DKD1PKVtOSF1bQ0BAXTEyW0NIMl1bQ0BIXTNbQ0gyXVtDQEBIXShbQ0gyXTEpW0NAQEhdKFtPSF0pW0NASF0oW0NIMl0zKVtDSDJdMg==

>  <s_epik_cmdline>  (360) 
J2VwaWtfcHl0aG9uJywgJy1waHQnLCAnMi4wJywgJy1waCcsICc3LjAnLCAnLXRuJywgJzgnLCAnLW1hJywgJzIwMCcsICctaW1hZScsICc8aW5maWxlLm1hZT4nLCAnLW9tYWUnLCAnPG91dGZpbGUubWFlPic=

>  <r_lp_tautomer_probability>  (360) 
1

>  <r_epik_Ionization_Penalty>  (360) 
4.38014e-06

>  <r_epik_Ionization_Penalty_Charging>  (360) 
0

>  <r_epik_Ionization_Penalty_Neutral>  (360) 
4.38014e-06

>  <r_epik_State_Penalty>  (360) 
-0

>  <r_epik_Charging_Adjusted_Penalty>  (360) 
0

>  <i_epik_Tot_Q>  (360) 
0

>  <i_epik_Tot_abs_Q>  (360) 
0

>  <s_lp_Force_Field>  (360) 
OPLS3e

>  <r_lp_Energy>  (360) 
-4.83251

>  <b_lp_Chiralities_Consistent>  (360) 
1

>  <s_lp_Variant>  (360) 
113:0-1

>  <s_i_glide_gridfile>  (360) 
pfpi4k_grid

>  <i_i_glide_lignum>  (360) 
32

>  <i_i_glide_rotatable_bonds>  (360) 
3

>  <r_i_docking_score>  (360) 
-4.45591

>  <r_i_glide_ligand_efficiency>  (360) 
-0.297061

>  <r_i_glide_ligand_efficiency_sa>  (360) 
-0.732614

>  <r_i_glide_ligand_efficiency_ln>  (360) 
-1.20169

>  <r_i_glide_gscore>  (360) 
-4.45591

>  <r_i_glide_lipo>  (360) 
-0.38537

>  <r_i_glide_hbond>  (360) 
-0.401532

>  <r_i_glide_metal>  (360) 
-0

>  <r_i_glide_rewards>  (360) 
-2.20945

>  <r_i_glide_evdw>  (360) 
-25.0651

>  <r_i_glide_ecoul>  (360) 
-3.84858

>  <r_i_glide_erotb>  (360) 
0.378504

>  <r_i_glide_esite>  (360) 
-0.00752432

>  <r_i_glide_emodel>  (360) 
-37.6611

>  <r_i_glide_energy>  (360) 
-28.9136

>  <r_i_glide_einternal>  (360) 
0.14334

>  <r_i_glide_intrahb_reward>  (360) 
-0

>  <i_i_glide_confnum>  (360) 
6

>  <i_i_glide_posenum>  (360) 
18

>  <r_i_glide_eff_state_penalty>  (360) 
0

>  <ligand_id>  (360) 
113

>  <original_smiles>  (360) 
CC(=O)NC12CC3CC(C1)C(O)C(C3)C2

>  <smiles>  (360) 
[H]OC1([H])C2([H])C([H])([H])C3([H])C([H])([H])C1([H])C([H])([H])C(N([H])C(=O)C([H])([H])[H])(C3([H])[H])C2([H])[H]

$$$$
114:0:0
     RDKit          3D

 40 43  0  0  1  0  0  0  0  0999 V2000
   -7.5164  -11.8742   -7.1948 C   0  0  0  0  0  0  0  0  0  0  0  0
   -7.4199  -10.4513   -7.6011 N   0  0  1  0  0  0  0  0  0  0  0  0
   -7.1549  -10.1713   -9.0204 C   0  0  1  0  0  0  0  0  0  0  0  0
   -8.2860  -10.7552   -9.9115 C   0  0  0  0  0  0  0  0  0  0  0  0
   -9.7333  -10.5281   -9.3840 C   0  0  2  0  0  0  0  0  0  0  0  0
  -10.5624   -9.4700  -10.1082 C   0  0  0  0  0  0  0  0  0  0  0  0
  -11.6115   -9.2006   -9.1943 O   0  0  0  0  0  0  0  0  0  0  0  0
  -11.1064   -9.2362   -7.8629 C   0  0  0  0  0  0  0  0  0  0  0  0
   -9.8641  -10.1494   -7.9005 C   0  0  2  0  0  0  0  0  0  0  0  0
   -8.5551   -9.5540   -7.3025 C   0  0  2  0  0  0  0  0  0  0  0  0
   -8.1264   -8.2102   -7.9605 C   0  0  1  0  0  0  0  0  0  0  0  0
   -7.5872   -7.1754   -6.9671 C   0  0  0  0  0  0  0  0  0  0  0  0
   -6.5326   -7.4909   -6.0785 C   0  0  0  0  0  0  0  0  0  0  0  0
   -6.0659   -6.5359   -5.1552 C   0  0  0  0  0  0  0  0  0  0  0  0
   -6.6456   -5.2534   -5.1136 C   0  0  0  0  0  0  0  0  0  0  0  0
   -6.1892   -4.3307   -4.2362 F   0  0  0  0  0  0  0  0  0  0  0  0
   -7.6968   -4.9305   -5.9884 C   0  0  0  0  0  0  0  0  0  0  0  0
   -8.1659   -5.8864   -6.9125 C   0  0  0  0  0  0  0  0  0  0  0  0
   -7.1020   -8.6347   -9.0344 C   0  0  0  0  0  0  0  0  0  0  0  0
   -8.3085  -12.4174   -7.7100 H   0  0  0  0  0  0  0  0  0  0  0  0
   -7.6963  -11.9483   -6.1209 H   0  0  0  0  0  0  0  0  0  0  0  0
   -6.5743  -12.3842   -7.4067 H   0  0  0  0  0  0  0  0  0  0  0  0
   -6.1947  -10.5919   -9.3214 H   0  0  0  0  0  0  0  0  0  0  0  0
   -8.1982  -10.3792  -10.9316 H   0  0  0  0  0  0  0  0  0  0  0  0
   -8.1239  -11.8319   -9.9931 H   0  0  0  0  0  0  0  0  0  0  0  0
  -10.2765  -11.4658   -9.5198 H   0  0  0  0  0  0  0  0  0  0  0  0
   -9.9899   -8.5641  -10.3051 H   0  0  0  0  0  0  0  0  0  0  0  0
  -10.9715   -9.8343  -11.0514 H   0  0  0  0  0  0  0  0  0  0  0  0
  -10.8824   -8.2254   -7.5211 H   0  0  0  0  0  0  0  0  0  0  0  0
  -11.8753   -9.6280   -7.1942 H   0  0  0  0  0  0  0  0  0  0  0  0
  -10.1177  -11.0486   -7.3368 H   0  0  0  0  0  0  0  0  0  0  0  0
   -8.6497   -9.4577   -6.2271 H   0  0  0  0  0  0  0  0  0  0  0  0
   -8.9661   -7.7454   -8.4709 H   0  0  0  0  0  0  0  0  0  0  0  0
   -6.0719   -8.4665   -6.0914 H   0  0  0  0  0  0  0  0  0  0  0  0
   -5.2618   -6.7845   -4.4790 H   0  0  0  0  0  0  0  0  0  0  0  0
   -8.1405   -3.9463   -5.9499 H   0  0  0  0  0  0  0  0  0  0  0  0
   -8.9773   -5.6201   -7.5739 H   0  0  0  0  0  0  0  0  0  0  0  0
   -6.0968   -8.3175   -8.7511 H   0  0  0  0  0  0  0  0  0  0  0  0
   -7.3007   -8.2006  -10.0156 H   0  0  0  0  0  0  0  0  0  0  0  0
   -6.6331  -10.0726   -7.0959 H   0  0  0  0  0  0  0  0  0  0  0  0
  1  2  1  0
  1 20  1  0
  1 21  1  0
  1 22  1  0
  2 10  1  0
  2  3  1  0
  2 40  1  1
  3 19  1  0
  3  4  1  0
  3 23  1  6
  4  5  1  0
  4 24  1  0
  4 25  1  0
  5  9  1  0
  5  6  1  0
  5 26  1  1
  6  7  1  0
  6 27  1  0
  6 28  1  0
  7  8  1  0
  8  9  1  0
  8 29  1  0
  8 30  1  0
  9 10  1  0
  9 31  1  1
 10 11  1  0
 10 32  1  1
 11 12  1  0
 11 19  1  0
 11 33  1  6
 12 18  1  0
 12 13  2  0
 13 14  1  0
 13 34  1  0
 14 15  2  0
 14 35  1  0
 15 16  1  0
 15 17  1  0
 17 18  2  0
 17 36  1  0
 18 37  1  0
 19 38  1  0
 19 39  1  0
M  CHG  1   2   1
M  END
>  <i_m_ct_stereo_status>  (361) 
1

>  <s_m_source_file>  (361) 
/var/tmp/pbs.5076255.sched01/tmpr9sv22dd/120oksnzf6p.sdf

>  <i_m_source_file_index>  (361) 
33

>  <i_lp_mmshare_version>  (361) 
48012

>  <i_f3d_flags>  (361) 
0

>  <s_epik_input>  (361) 
W0NIMl0xT1tDSDJdW0NAQEhdKFtDSDJdMilbQ0BIXTFbQ0BASF0oTihbQ0gzXSlbQ0hdMjMpW0NASF0oW0NIMl0zKWM0W2NIXVtjSF1jKEYpW2NIXVtjSF00

>  <s_epik_cmdline>  (361) 
J2VwaWtfcHl0aG9uJywgJy1waHQnLCAnMi4wJywgJy1waCcsICc3LjAnLCAnLXRuJywgJzgnLCAnLW1hJywgJzIwMCcsICctaW1hZScsICc8aW5maWxlLm1hZT4nLCAnLW9tYWUnLCAnPG91dGZpbGUubWFlPic=

>  <r_epik_Ionization_Penalty>  (361) 
0.00281979

>  <r_epik_Ionization_Penalty_Charging>  (361) 
0.00281979

>  <r_epik_Ionization_Penalty_Neutral>  (361) 
2.24544e-12

>  <r_epik_State_Penalty>  (361) 
0.00197154

>  <r_epik_Charging_Adjusted_Penalty>  (361) 
0.00479133

>  <i_epik_Tot_Q>  (361) 
1

>  <i_epik_Tot_abs_Q>  (361) 
1

>  <s_lp_Force_Field>  (361) 
OPLS3e

>  <r_lp_Energy>  (361) 
30.9707

>  <b_lp_Chiralities_Consistent>  (361) 
1

>  <s_lp_Variant>  (361) 
114:0-1

>  <s_i_glide_gridfile>  (361) 
pfpi4k_grid

>  <i_i_glide_lignum>  (361) 
33

>  <i_i_glide_rotatable_bonds>  (361) 
1

>  <r_i_docking_score>  (361) 
-5.59193

>  <r_i_glide_ligand_efficiency>  (361) 
-0.294312

>  <r_i_glide_ligand_efficiency_sa>  (361) 
-0.785342

>  <r_i_glide_ligand_efficiency_ln>  (361) 
-1.41767

>  <r_i_glide_gscore>  (361) 
-5.59193

>  <r_i_glide_lipo>  (361) 
-2.25344

>  <r_i_glide_hbond>  (361) 
0

>  <r_i_glide_metal>  (361) 
-0

>  <r_i_glide_rewards>  (361) 
-2.61047

>  <r_i_glide_evdw>  (361) 
-21.4093

>  <r_i_glide_ecoul>  (361) 
0.564758

>  <r_i_glide_erotb>  (361) 
0.257738

>  <r_i_glide_esite>  (361) 
0

>  <r_i_glide_emodel>  (361) 
-28.0962

>  <r_i_glide_energy>  (361) 
-20.8445

>  <r_i_glide_einternal>  (361) 
0.0211269

>  <r_i_glide_intrahb_reward>  (361) 
-0

>  <i_i_glide_confnum>  (361) 
3

>  <i_i_glide_posenum>  (361) 
3

>  <r_i_glide_eff_state_penalty>  (361) 
0

>  <ligand_id>  (361) 
114

>  <original_smiles>  (361) 
CN1C2CC3COCC3C1C(c1ccc(F)cc1)C2

>  <smiles>  (361) 
[H]c1c([H])c(C2([H])C([H])([H])C3([H])C([H])([H])C4([H])C([H])([H])OC([H])([H])C4([H])C2([H])[N+]3([H])C([H])([H])[H])c([H])c([H])c1F

$$$$
114:0:1
     RDKit          3D

 40 43  0  0  1  0  0  0  0  0999 V2000
    5.5450   -5.8033    0.6295 C   0  0  0  0  0  0  0  0  0  0  0  0
    4.5984   -4.7277    0.2228 N   0  0  1  0  0  0  0  0  0  0  0  0
    3.3163   -4.6673    0.9517 C   0  0  1  0  0  0  0  0  0  0  0  0
    3.5587   -4.4475    2.4683 C   0  0  0  0  0  0  0  0  0  0  0  0
    4.6314   -3.3730    2.8172 C   0  0  2  0  0  0  0  0  0  0  0  0
    4.1179   -2.0287    3.3296 C   0  0  0  0  0  0  0  0  0  0  0  0
    5.2447   -1.1813    3.1727 O   0  0  0  0  0  0  0  0  0  0  0  0
    5.9260   -1.5118    1.9622 C   0  0  0  0  0  0  0  0  0  0  0  0
    5.6086   -2.9960    1.6943 C   0  0  2  0  0  0  0  0  0  0  0  0
    5.0668   -3.3211    0.2712 C   0  0  2  0  0  0  0  0  0  0  0  0
    3.7887   -2.5257   -0.1010 C   0  0  1  0  0  0  0  0  0  0  0  0
    3.8026   -2.0496   -1.5519 C   0  0  0  0  0  0  0  0  0  0  0  0
    3.3864   -2.8725   -2.6200 C   0  0  0  0  0  0  0  0  0  0  0  0
    3.3689   -2.3956   -3.9310 C   0  0  0  0  0  0  0  0  0  0  0  0
    3.7892   -1.0831   -4.2095 C   0  0  0  0  0  0  0  0  0  0  0  0
    3.8005   -0.6189   -5.4794 F   0  0  0  0  0  0  0  0  0  0  0  0
    4.2120   -0.2593   -3.1591 C   0  0  0  0  0  0  0  0  0  0  0  0
    4.2355   -0.7422   -1.8397 C   0  0  0  0  0  0  0  0  0  0  0  0
    2.6210   -3.4668    0.2908 C   0  0  0  0  0  0  0  0  0  0  0  0
    5.8329   -5.7457    1.6839 H   0  0  0  0  0  0  0  0  0  0  0  0
    6.4548   -5.7450    0.0298 H   0  0  0  0  0  0  0  0  0  0  0  0
    5.0807   -6.7783    0.4588 H   0  0  0  0  0  0  0  0  0  0  0  0
    2.7376   -5.5801    0.7981 H   0  0  0  0  0  0  0  0  0  0  0  0
    2.6103   -4.1876    2.9390 H   0  0  0  0  0  0  0  0  0  0  0  0
    3.8623   -5.4018    2.9169 H   0  0  0  0  0  0  0  0  0  0  0  0
    5.2324   -3.7773    3.6305 H   0  0  0  0  0  0  0  0  0  0  0  0
    3.2813   -1.6547    2.7417 H   0  0  0  0  0  0  0  0  0  0  0  0
    3.8196   -2.0716    4.3798 H   0  0  0  0  0  0  0  0  0  0  0  0
    5.6057   -0.8565    1.1541 H   0  0  0  0  0  0  0  0  0  0  0  0
    7.0005   -1.3406    2.0685 H   0  0  0  0  0  0  0  0  0  0  0  0
    6.5319   -3.5600    1.8463 H   0  0  0  0  0  0  0  0  0  0  0  0
    5.8600   -3.1590   -0.4560 H   0  0  0  0  0  0  0  0  0  0  0  0
    3.6862   -1.6307    0.5110 H   0  0  0  0  0  0  0  0  0  0  0  0
    3.0427   -3.8724   -2.4607 H   0  0  0  0  0  0  0  0  0  0  0  0
    3.0176   -3.0403   -4.7216 H   0  0  0  0  0  0  0  0  0  0  0  0
    4.5100    0.7553   -3.3637 H   0  0  0  0  0  0  0  0  0  0  0  0
    4.5547   -0.0890   -1.0399 H   0  0  0  0  0  0  0  0  0  0  0  0
    2.0763   -3.8453   -0.5717 H   0  0  0  0  0  0  0  0  0  0  0  0
    1.8710   -2.9739    0.9148 H   0  0  0  0  0  0  0  0  0  0  0  0
    4.3546   -4.9095   -0.7428 H   0  0  0  0  0  0  0  0  0  0  0  0
  1  2  1  0
  1 20  1  0
  1 21  1  0
  1 22  1  0
  2 10  1  0
  2  3  1  0
  2 40  1  6
  3 19  1  0
  3  4  1  0
  3 23  1  1
  4  5  1  0
  4 24  1  0
  4 25  1  0
  5  9  1  0
  5  6  1  0
  5 26  1  1
  6  7  1  0
  6 27  1  0
  6 28  1  0
  7  8  1  0
  8  9  1  0
  8 29  1  0
  8 30  1  0
  9 10  1  0
  9 31  1  1
 10 11  1  0
 10 32  1  6
 11 12  1  0
 11 19  1  0
 11 33  1  1
 12 18  1  0
 12 13  2  0
 13 14  1  0
 13 34  1  0
 14 15  2  0
 14 35  1  0
 15 16  1  0
 15 17  1  0
 17 18  2  0
 17 36  1  0
 18 37  1  0
 19 38  1  0
 19 39  1  0
M  CHG  1   2   1
M  END
>  <i_m_ct_stereo_status>  (362) 
1

>  <s_m_source_file>  (362) 
/var/tmp/pbs.5076255.sched01/tmpr9sv22dd/120oksnzf6p.sdf

>  <i_m_source_file_index>  (362) 
33

>  <i_lp_mmshare_version>  (362) 
48012

>  <i_f3d_flags>  (362) 
0

>  <s_epik_input>  (362) 
W0NIMl0xT1tDSDJdW0NAQEhdKFtDSDJdMilbQ0BIXTFbQ0BASF0oTihbQ0gzXSlbQ0hdMjMpW0NASF0oW0NIMl0zKWM0W2NIXVtjSF1jKEYpW2NIXVtjSF00

>  <s_epik_cmdline>  (362) 
J2VwaWtfcHl0aG9uJywgJy1waHQnLCAnMi4wJywgJy1waCcsICc3LjAnLCAnLXRuJywgJzgnLCAnLW1hJywgJzIwMCcsICctaW1hZScsICc8aW5maWxlLm1hZT4nLCAnLW9tYWUnLCAnPG91dGZpbGUubWFlPic=

>  <r_epik_Ionization_Penalty>  (362) 
0.00281979

>  <r_epik_Ionization_Penalty_Charging>  (362) 
0.00281979

>  <r_epik_Ionization_Penalty_Neutral>  (362) 
2.24544e-12

>  <r_epik_State_Penalty>  (362) 
0.00197154

>  <r_epik_Charging_Adjusted_Penalty>  (362) 
0.00479133

>  <i_epik_Tot_Q>  (362) 
1

>  <i_epik_Tot_abs_Q>  (362) 
1

>  <s_lp_Force_Field>  (362) 
OPLS3e

>  <r_lp_Energy>  (362) 
30.9707

>  <b_lp_Chiralities_Consistent>  (362) 
1

>  <s_lp_Variant>  (362) 
114:0-1

>  <s_i_glide_gridfile>  (362) 
pfpi4k_grid

>  <i_i_glide_lignum>  (362) 
33

>  <i_i_glide_rotatable_bonds>  (362) 
1

>  <r_i_docking_score>  (362) 
-3.57689

>  <r_i_glide_ligand_efficiency>  (362) 
-0.188258

>  <r_i_glide_ligand_efficiency_sa>  (362) 
-0.502347

>  <r_i_glide_ligand_efficiency_ln>  (362) 
-0.906819

>  <r_i_glide_gscore>  (362) 
-3.57689

>  <r_i_glide_lipo>  (362) 
-0.675043

>  <r_i_glide_hbond>  (362) 
0

>  <r_i_glide_metal>  (362) 
-0

>  <r_i_glide_rewards>  (362) 
-1.62039

>  <r_i_glide_evdw>  (362) 
-17.9518

>  <r_i_glide_ecoul>  (362) 
-4.24291

>  <r_i_glide_erotb>  (362) 
0.257738

>  <r_i_glide_esite>  (362) 
-0.00516717

>  <r_i_glide_emodel>  (362) 
-26.062

>  <r_i_glide_energy>  (362) 
-22.1947

>  <r_i_glide_einternal>  (362) 
1.27105

>  <r_i_glide_intrahb_reward>  (362) 
-0

>  <i_i_glide_confnum>  (362) 
6

>  <i_i_glide_posenum>  (362) 
39

>  <r_i_glide_eff_state_penalty>  (362) 
0

>  <ligand_id>  (362) 
114

>  <original_smiles>  (362) 
CN1C2CC3COCC3C1C(c1ccc(F)cc1)C2

>  <smiles>  (362) 
[H]c1c([H])c(C2([H])C([H])([H])C3([H])C([H])([H])C4([H])C([H])([H])OC([H])([H])C4([H])C2([H])[N+]3([H])C([H])([H])[H])c([H])c([H])c1F

$$$$
114:0:2
     RDKit          3D

 40 43  0  0  1  0  0  0  0  0999 V2000
    6.4748   -5.1554    1.4801 C   0  0  0  0  0  0  0  0  0  0  0  0
    5.2288   -4.6704    0.8394 N   0  0  1  0  0  0  0  0  0  0  0  0
    3.9824   -5.3765    1.1767 C   0  0  1  0  0  0  0  0  0  0  0  0
    3.6887   -5.2904    2.6965 C   0  0  0  0  0  0  0  0  0  0  0  0
    3.9208   -3.8921    3.3391 C   0  0  2  0  0  0  0  0  0  0  0  0
    2.6715   -3.0827    3.6836 C   0  0  0  0  0  0  0  0  0  0  0  0
    3.1726   -1.7662    3.8469 O   0  0  0  0  0  0  0  0  0  0  0  0
    4.2006   -1.5265    2.8882 C   0  0  0  0  0  0  0  0  0  0  0  0
    4.7825   -2.9104    2.5325 C   0  0  2  0  0  0  0  0  0  0  0  0
    4.8567   -3.2519    1.0161 C   0  0  2  0  0  0  0  0  0  0  0  0
    3.4779   -3.1581    0.2866 C   0  0  1  0  0  0  0  0  0  0  0  0
    3.5527   -2.5306   -1.1153 C   0  0  0  0  0  0  0  0  0  0  0  0
    4.3293   -1.3655   -1.3161 C   0  0  0  0  0  0  0  0  0  0  0  0
    4.3983   -0.7581   -2.5816 C   0  0  0  0  0  0  0  0  0  0  0  0
    3.6872   -1.2934   -3.6649 C   0  0  0  0  0  0  0  0  0  0  0  0
    3.7730   -0.7113   -4.8829 F   0  0  0  0  0  0  0  0  0  0  0  0
    2.8884   -2.4355   -3.4781 C   0  0  0  0  0  0  0  0  0  0  0  0
    2.8090   -3.0373   -2.2113 C   0  0  0  0  0  0  0  0  0  0  0  0
    2.9580   -4.6176    0.3323 C   0  0  0  0  0  0  0  0  0  0  0  0
    6.4360   -5.1144    2.5690 H   0  0  0  0  0  0  0  0  0  0  0  0
    7.3256   -4.5586    1.1463 H   0  0  0  0  0  0  0  0  0  0  0  0
    6.6572   -6.1927    1.1913 H   0  0  0  0  0  0  0  0  0  0  0  0
    4.0257   -6.4215    0.8639 H   0  0  0  0  0  0  0  0  0  0  0  0
    2.6732   -5.6328    2.9017 H   0  0  0  0  0  0  0  0  0  0  0  0
    4.3396   -6.0081    3.2008 H   0  0  0  0  0  0  0  0  0  0  0  0
    4.4347   -4.0576    4.2896 H   0  0  0  0  0  0  0  0  0  0  0  0
    1.9295   -3.1084    2.8860 H   0  0  0  0  0  0  0  0  0  0  0  0
    2.2002   -3.4243    4.6056 H   0  0  0  0  0  0  0  0  0  0  0  0
    3.7949   -0.9962    2.0253 H   0  0  0  0  0  0  0  0  0  0  0  0
    4.9559   -0.8736    3.3309 H   0  0  0  0  0  0  0  0  0  0  0  0
    5.7964   -2.9374    2.9332 H   0  0  0  0  0  0  0  0  0  0  0  0
    5.6285   -2.6324    0.5665 H   0  0  0  0  0  0  0  0  0  0  0  0
    2.7767   -2.5345    0.8390 H   0  0  0  0  0  0  0  0  0  0  0  0
    4.8666   -0.9034   -0.5014 H   0  0  0  0  0  0  0  0  0  0  0  0
    4.9954    0.1307   -2.7160 H   0  0  0  0  0  0  0  0  0  0  0  0
    2.3161   -2.8430   -4.2982 H   0  0  0  0  0  0  0  0  0  0  0  0
    2.1399   -3.8784   -2.1123 H   0  0  0  0  0  0  0  0  0  0  0  0
    3.0030   -5.0877   -0.6460 H   0  0  0  0  0  0  0  0  0  0  0  0
    1.9302   -4.7071    0.6873 H   0  0  0  0  0  0  0  0  0  0  0  0
    5.3498   -4.7937   -0.1564 H   0  0  0  0  0  0  0  0  0  0  0  0
  1  2  1  0
  1 20  1  0
  1 21  1  0
  1 22  1  0
  2 10  1  0
  2  3  1  0
  2 40  1  6
  3 19  1  0
  3  4  1  0
  3 23  1  6
  4  5  1  0
  4 24  1  0
  4 25  1  0
  5  9  1  0
  5  6  1  0
  5 26  1  1
  6  7  1  0
  6 27  1  0
  6 28  1  0
  7  8  1  0
  8  9  1  0
  8 29  1  0
  8 30  1  0
  9 10  1  0
  9 31  1  1
 10 11  1  0
 10 32  1  6
 11 12  1  0
 11 19  1  0
 11 33  1  1
 12 18  1  0
 12 13  2  0
 13 14  1  0
 13 34  1  0
 14 15  2  0
 14 35  1  0
 15 16  1  0
 15 17  1  0
 17 18  2  0
 17 36  1  0
 18 37  1  0
 19 38  1  0
 19 39  1  0
M  CHG  1   2   1
M  END
>  <i_m_ct_stereo_status>  (363) 
1

>  <s_m_source_file>  (363) 
/var/tmp/pbs.5076255.sched01/tmpr9sv22dd/120oksnzf6p.sdf

>  <i_m_source_file_index>  (363) 
33

>  <i_lp_mmshare_version>  (363) 
48012

>  <i_f3d_flags>  (363) 
0

>  <s_epik_input>  (363) 
W0NIMl0xT1tDSDJdW0NAQEhdKFtDSDJdMilbQ0BIXTFbQ0BASF0oTihbQ0gzXSlbQ0hdMjMpW0NASF0oW0NIMl0zKWM0W2NIXVtjSF1jKEYpW2NIXVtjSF00

>  <s_epik_cmdline>  (363) 
J2VwaWtfcHl0aG9uJywgJy1waHQnLCAnMi4wJywgJy1waCcsICc3LjAnLCAnLXRuJywgJzgnLCAnLW1hJywgJzIwMCcsICctaW1hZScsICc8aW5maWxlLm1hZT4nLCAnLW9tYWUnLCAnPG91dGZpbGUubWFlPic=

>  <r_epik_Ionization_Penalty>  (363) 
0.00281979

>  <r_epik_Ionization_Penalty_Charging>  (363) 
0.00281979

>  <r_epik_Ionization_Penalty_Neutral>  (363) 
2.24544e-12

>  <r_epik_State_Penalty>  (363) 
0.00197154

>  <r_epik_Charging_Adjusted_Penalty>  (363) 
0.00479133

>  <i_epik_Tot_Q>  (363) 
1

>  <i_epik_Tot_abs_Q>  (363) 
1

>  <s_lp_Force_Field>  (363) 
OPLS3e

>  <r_lp_Energy>  (363) 
30.9707

>  <b_lp_Chiralities_Consistent>  (363) 
1

>  <s_lp_Variant>  (363) 
114:0-1

>  <s_i_glide_gridfile>  (363) 
pfpi4k_grid

>  <i_i_glide_lignum>  (363) 
33

>  <i_i_glide_rotatable_bonds>  (363) 
1

>  <r_i_docking_score>  (363) 
-3.52639

>  <r_i_glide_ligand_efficiency>  (363) 
-0.185599

>  <r_i_glide_ligand_efficiency_sa>  (363) 
-0.495254

>  <r_i_glide_ligand_efficiency_ln>  (363) 
-0.894016

>  <r_i_glide_gscore>  (363) 
-3.52639

>  <r_i_glide_lipo>  (363) 
-0.618591

>  <r_i_glide_hbond>  (363) 
0

>  <r_i_glide_metal>  (363) 
-0

>  <r_i_glide_rewards>  (363) 
-1.74009

>  <r_i_glide_evdw>  (363) 
-18.9988

>  <r_i_glide_ecoul>  (363) 
-3.17006

>  <r_i_glide_erotb>  (363) 
0.257738

>  <r_i_glide_esite>  (363) 
0

>  <r_i_glide_emodel>  (363) 
-25.4414

>  <r_i_glide_energy>  (363) 
-22.1689

>  <r_i_glide_einternal>  (363) 
2.57156

>  <r_i_glide_intrahb_reward>  (363) 
-0

>  <i_i_glide_confnum>  (363) 
2

>  <i_i_glide_posenum>  (363) 
9

>  <r_i_glide_eff_state_penalty>  (363) 
0

>  <ligand_id>  (363) 
114

>  <original_smiles>  (363) 
CN1C2CC3COCC3C1C(c1ccc(F)cc1)C2

>  <smiles>  (363) 
[H]c1c([H])c(C2([H])C([H])([H])C3([H])C([H])([H])C4([H])C([H])([H])OC([H])([H])C4([H])C2([H])[N+]3([H])C([H])([H])[H])c([H])c([H])c1F

$$$$
116:0:0
     RDKit          3D

 64 69  0  0  1  0  0  0  0  0999 V2000
    3.0627   -2.5769    5.3698 C   0  0  0  0  0  0  0  0  0  0  0  0
    3.1057   -2.5754    4.0311 C   0  0  0  0  0  0  0  0  0  0  0  0
    2.6157   -3.8268    3.2695 C   0  0  0  0  0  0  0  0  0  0  0  0
    1.5858   -4.4436    3.5057 O   0  0  0  0  0  0  0  0  0  0  0  0
    3.4740   -4.0688    1.9989 C   0  0  2  0  0  0  0  0  0  0  0  0
    3.2286   -4.7004    0.5398 C   0  0  1  0  0  0  0  0  0  0  0  0
    2.1822   -5.8000    0.5394 C   0  0  0  0  0  0  0  0  0  0  0  0
    2.4875   -6.8689    1.6143 C   0  0  0  0  0  0  0  0  0  0  0  0
    3.9856   -7.2637    1.9190 C   0  0  2  0  0  0  0  0  0  0  0  0
    3.9260   -8.7672    2.3543 C   0  0  1  0  0  0  0  0  0  0  0  0
    5.2065   -9.6113    2.1823 C   0  0  0  0  0  0  0  0  0  0  0  0
    3.2816   -8.9199    3.7411 C   0  0  0  0  0  0  0  0  0  0  0  0
    3.9820   -8.0546    4.7886 C   0  0  0  0  0  0  0  0  0  0  0  0
    4.0984   -6.5710    4.3689 C   0  0  1  0  0  0  0  0  0  0  0  0
    4.7896   -5.9218    5.4195 O   0  0  0  0  0  0  0  0  0  0  0  0
    4.7623   -6.3047    2.9534 C   0  0  1  0  0  0  0  0  0  0  0  0
    6.2425   -6.7947    3.0506 C   0  0  0  0  0  0  0  0  0  0  0  0
    4.8497   -4.7275    2.5071 C   0  0  2  0  0  0  0  0  0  0  0  0
    5.4192   -3.9964    3.5828 O   0  0  0  0  0  0  0  0  0  0  0  0
    5.9852   -4.4441    1.4889 C   0  0  0  0  0  0  0  0  0  0  0  0
    5.9556   -3.0136    0.9806 C   0  0  0  0  0  0  0  0  0  0  0  0
    4.6056   -2.2145    0.9977 C   0  0  2  0  0  0  0  0  0  0  0  0
    4.6665   -1.1378    2.1705 C   0  0  0  0  0  0  0  0  0  0  0  0
    3.4032   -1.2877    3.1618 C   0  0  1  0  0  0  0  0  0  0  0  0
    2.4251   -1.4574    2.1050 C   0  0  1  0  0  0  0  0  0  0  0  0
    2.2350   -0.2990    1.2975 O   0  0  0  0  0  0  0  0  0  0  0  0
    3.2252   -2.6459    1.4619 C   0  0  2  0  0  0  0  0  0  0  0  0
    4.1300   -2.3204   -0.4693 C   0  0  0  0  0  0  0  0  0  0  0  0
    4.2891   -1.4288   -1.3010 O   0  0  0  0  0  0  0  0  0  0  0  0
    3.5131   -3.7649   -0.7843 C   0  0  0  0  0  0  0  0  0  0  0  0
    3.3123   -1.6874    5.9362 H   0  0  0  0  0  0  0  0  0  0  0  0
    2.7647   -3.4727    5.8940 H   0  0  0  0  0  0  0  0  0  0  0  0
    4.0523   -5.3560    0.3138 H   0  0  0  0  0  0  0  0  0  0  0  0
    1.1750   -5.4234    0.6973 H   0  0  0  0  0  0  0  0  0  0  0  0
    2.1857   -6.2470   -0.4380 H   0  0  0  0  0  0  0  0  0  0  0  0
    1.9722   -6.6213    2.5361 H   0  0  0  0  0  0  0  0  0  0  0  0
    1.9377   -7.7374    1.2510 H   0  0  0  0  0  0  0  0  0  0  0  0
    4.5331   -7.2680    0.9754 H   0  0  0  0  0  0  0  0  0  0  0  0
    3.2550   -9.2729    1.6536 H   0  0  0  0  0  0  0  0  0  0  0  0
    5.8234   -9.6388    3.0798 H   0  0  0  0  0  0  0  0  0  0  0  0
    5.8074   -9.2718    1.3363 H   0  0  0  0  0  0  0  0  0  0  0  0
    4.9255  -10.6465    1.9844 H   0  0  0  0  0  0  0  0  0  0  0  0
    2.2310   -8.6313    3.6919 H   0  0  0  0  0  0  0  0  0  0  0  0
    3.2864   -9.9665    4.0427 H   0  0  0  0  0  0  0  0  0  0  0  0
    3.4176   -8.1322    5.7193 H   0  0  0  0  0  0  0  0  0  0  0  0
    4.9515   -8.4893    5.0154 H   0  0  0  0  0  0  0  0  0  0  0  0
    3.0839   -6.1965    4.3915 H   0  0  0  0  0  0  0  0  0  0  0  0
    4.3852   -6.1620    6.2388 H   0  0  0  0  0  0  0  0  0  0  0  0
    6.8858   -6.0732    3.5594 H   0  0  0  0  0  0  0  0  0  0  0  0
    6.6660   -6.9878    2.0599 H   0  0  0  0  0  0  0  0  0  0  0  0
    6.3539   -7.7033    3.6347 H   0  0  0  0  0  0  0  0  0  0  0  0
    4.9510   -4.2428    4.3879 H   0  0  0  0  0  0  0  0  0  0  0  0
    6.9642   -4.5585    1.9535 H   0  0  0  0  0  0  0  0  0  0  0  0
    6.0293   -5.1514    0.6619 H   0  0  0  0  0  0  0  0  0  0  0  0
    6.7185   -2.4662    1.5277 H   0  0  0  0  0  0  0  0  0  0  0  0
    6.3738   -3.0377   -0.0266 H   0  0  0  0  0  0  0  0  0  0  0  0
    5.5592   -1.2357    2.7880 H   0  0  0  0  0  0  0  0  0  0  0  0
    4.7164   -0.1320    1.7508 H   0  0  0  0  0  0  0  0  0  0  0  0
    3.2210   -0.3823    3.7442 H   0  0  0  0  0  0  0  0  0  0  0  0
    1.4201   -1.7100    2.4452 H   0  0  0  0  0  0  0  0  0  0  0  0
    1.6722   -0.5249    0.5735 H   0  0  0  0  0  0  0  0  0  0  0  0
    2.3137   -2.7046    0.8399 H   0  0  0  0  0  0  0  0  0  0  0  0
    4.1968   -4.2852   -1.4656 H   0  0  0  0  0  0  0  0  0  0  0  0
    2.5746   -3.6151   -1.3228 H   0  0  0  0  0  0  0  0  0  0  0  0
  1  2  2  0
  1 31  1  0
  1 32  1  0
  2 24  1  0
  2  3  1  0
  3  4  2  0
  5  3  1  1
  5 18  1  0
  5 27  1  0
  5  6  1  0
  6 30  1  0
  6  7  1  0
  6 33  1  6
  7  8  1  0
  7 34  1  0
  7 35  1  0
  8  9  1  0
  8 36  1  0
  8 37  1  0
  9 16  1  0
  9 10  1  0
  9 38  1  6
 10 11  1  0
 10 12  1  0
 10 39  1  6
 11 40  1  0
 11 41  1  0
 11 42  1  0
 12 13  1  0
 12 43  1  0
 12 44  1  0
 13 14  1  0
 13 45  1  0
 13 46  1  0
 14 15  1  0
 14 16  1  0
 14 47  1  6
 15 48  1  0
 16 17  1  1
 16 18  1  0
 17 49  1  0
 17 50  1  0
 17 51  1  0
 18 19  1  1
 18 20  1  0
 19 52  1  0
 20 21  1  0
 20 53  1  0
 20 54  1  0
 22 21  1  6
 21 55  1  0
 21 56  1  0
 22 27  1  0
 22 23  1  0
 22 28  1  0
 23 24  1  0
 23 57  1  0
 23 58  1  0
 24 25  1  0
 24 59  1  1
 25 26  1  0
 25 27  1  0
 25 60  1  1
 26 61  1  0
 27 62  1  6
 28 29  2  0
 28 30  1  0
 30 63  1  0
 30 64  1  0
M  END
>  <i_m_ct_stereo_status>  (364) 
1

>  <s_m_source_file>  (364) 
/var/tmp/pbs.5076255.sched01/tmpr9sv22dd/120oksnzf6p.sdf

>  <i_m_source_file_index>  (364) 
35

>  <i_lp_mmshare_version>  (364) 
48012

>  <i_f3d_flags>  (364) 
0

>  <s_epik_input>  (364) 
Tz1DMUMoPVtDSDJdKVtDQEBIXShbQ0gyXTIpW0NAQEhdKFtPSF0pW0NASF0zW0NAXTIoQyg9TylbQ0gyXTQpW0NIMl1bQ0gyXVtDQF01KFtPSF0pW0NAXShbQ0gzXSkoW0NAQEhdNltDSDJdW0NIMl1bQ0BASF00W0NAXTEzNSlbQ0BIXShbT0hdKVtDSDJdW0NIMl1bQ0BASF02W0NIM10=

>  <s_epik_cmdline>  (364) 
J2VwaWtfcHl0aG9uJywgJy1waHQnLCAnMi4wJywgJy1waCcsICc3LjAnLCAnLXRuJywgJzgnLCAnLW1hJywgJzIwMCcsICctaW1hZScsICc8aW5maWxlLm1hZT4nLCAnLW9tYWUnLCAnPG91dGZpbGUubWFlPic=

>  <r_lp_tautomer_probability>  (364) 
1

>  <r_epik_Ionization_Penalty>  (364) 
2.03531e-06

>  <r_epik_Ionization_Penalty_Charging>  (364) 
0

>  <r_epik_Ionization_Penalty_Neutral>  (364) 
2.03531e-06

>  <r_epik_State_Penalty>  (364) 
-0

>  <r_epik_Charging_Adjusted_Penalty>  (364) 
0

>  <i_epik_Tot_Q>  (364) 
0

>  <i_epik_Tot_abs_Q>  (364) 
0

>  <s_lp_Force_Field>  (364) 
OPLS3e

>  <r_lp_Energy>  (364) 
255.346

>  <b_lp_Chiralities_Consistent>  (364) 
1

>  <s_lp_Variant>  (364) 
116:0-1

>  <s_i_glide_gridfile>  (364) 
pfpi4k_grid

>  <i_i_glide_lignum>  (364) 
35

>  <i_i_glide_rotatable_bonds>  (364) 
3

>  <r_i_docking_score>  (364) 
-3.20091

>  <r_i_glide_ligand_efficiency>  (364) 
-0.106697

>  <r_i_glide_ligand_efficiency_sa>  (364) 
-0.331532

>  <r_i_glide_ligand_efficiency_ln>  (364) 
-0.727281

>  <r_i_glide_gscore>  (364) 
-3.20091

>  <r_i_glide_lipo>  (364) 
-0.287525

>  <r_i_glide_hbond>  (364) 
0

>  <r_i_glide_metal>  (364) 
-0

>  <r_i_glide_rewards>  (364) 
-1.08272

>  <r_i_glide_evdw>  (364) 
-24.1059

>  <r_i_glide_ecoul>  (364) 
-4.03278

>  <r_i_glide_erotb>  (364) 
0

>  <r_i_glide_esite>  (364) 
-0.0204507

>  <r_i_glide_emodel>  (364) 
-38.4709

>  <r_i_glide_energy>  (364) 
-28.1387

>  <r_i_glide_einternal>  (364) 
0.634255

>  <r_i_glide_intrahb_reward>  (364) 
-0.5

>  <i_i_glide_confnum>  (364) 
1

>  <i_i_glide_posenum>  (364) 
10

>  <r_i_glide_eff_state_penalty>  (364) 
0

>  <ligand_id>  (364) 
116

>  <original_smiles>  (364) 
C=C1C(=O)C23C4CCC5C(C)CCC(O)C5(C)C2(O)CCC2(CC1C(O)C23)C(=O)C4

>  <smiles>  (364) 
[H]OC1([H])C2([H])C(=C([H])[H])C(=O)C34C5([H])C([H])([H])C(=O)C(C([H])([H])C([H])([H])C3(O[H])C3(C([H])([H])[H])C([H])(O[H])C([H])([H])C([H])([H])C([H])(C([H])([H])[H])C3([H])C([H])([H])C5([H])[H])(C2([H])[H])C14[H]

$$$$
116:0:1
     RDKit          3D

 64 69  0  0  1  0  0  0  0  0999 V2000
    3.8614   -2.0867    4.9087 C   0  0  0  0  0  0  0  0  0  0  0  0
    3.9631   -2.0659    3.5763 C   0  0  0  0  0  0  0  0  0  0  0  0
    3.1355   -3.0670    2.7438 C   0  0  0  0  0  0  0  0  0  0  0  0
    1.9487   -3.3341    2.9384 O   0  0  0  0  0  0  0  0  0  0  0  0
    3.9177   -3.5532    1.4965 C   0  0  2  0  0  0  0  0  0  0  0  0
    3.5701   -4.0317   -0.0044 C   0  0  1  0  0  0  0  0  0  0  0  0
    2.2179   -4.6806   -0.1170 C   0  0  0  0  0  0  0  0  0  0  0  0
    2.0779   -5.8301    0.9287 C   0  0  0  0  0  0  0  0  0  0  0  0
    3.3328   -6.7162    1.3072 C   0  0  2  0  0  0  0  0  0  0  0  0
    2.7509   -8.1266    1.6917 C   0  0  1  0  0  0  0  0  0  0  0  0
    3.6763   -9.3535    1.5368 C   0  0  0  0  0  0  0  0  0  0  0  0
    2.0278   -8.0892    3.0466 C   0  0  0  0  0  0  0  0  0  0  0  0
    2.9255   -7.5389    4.1528 C   0  0  0  0  0  0  0  0  0  0  0  0
    3.5574   -6.1719    3.7923 C   0  0  1  0  0  0  0  0  0  0  0  0
    4.3710   -5.8231    4.8970 O   0  0  0  0  0  0  0  0  0  0  0  0
    4.3375   -6.1102    2.4081 C   0  0  1  0  0  0  0  0  0  0  0  0
    5.5595   -7.0709    2.5476 C   0  0  0  0  0  0  0  0  0  0  0  0
    4.9715   -4.6499    2.0349 C   0  0  2  0  0  0  0  0  0  0  0  0
    5.6996   -4.1990    3.1618 O   0  0  0  0  0  0  0  0  0  0  0  0
    6.1859   -4.7286    1.0759 C   0  0  0  0  0  0  0  0  0  0  0  0
    6.6540   -3.3530    0.6231 C   0  0  0  0  0  0  0  0  0  0  0  0
    5.6356   -2.1598    0.6164 C   0  0  2  0  0  0  0  0  0  0  0  0
    5.9756   -1.1891    1.8234 C   0  0  0  0  0  0  0  0  0  0  0  0
    4.7089   -0.9272    2.7644 C   0  0  1  0  0  0  0  0  0  0  0  0
    3.7833   -0.7443    1.6521 C   0  0  1  0  0  0  0  0  0  0  0  0
    4.0548    0.3897    0.8668 O   0  0  0  0  0  0  0  0  0  0  0  0
    4.1762   -2.1207    1.0050 C   0  0  2  0  0  0  0  0  0  0  0  0
    5.2224   -2.0681   -0.8722 C   0  0  0  0  0  0  0  0  0  0  0  0
    5.6962   -1.2502   -1.6672 O   0  0  0  0  0  0  0  0  0  0  0  0
    4.1912   -3.2164   -1.2749 C   0  0  0  0  0  0  0  0  0  0  0  0
    4.3624   -1.3454    5.5215 H   0  0  0  0  0  0  0  0  0  0  0  0
    3.2550   -2.8415    5.3932 H   0  0  0  0  0  0  0  0  0  0  0  0
    4.1306   -4.9226   -0.2140 H   0  0  0  0  0  0  0  0  0  0  0  0
    1.4657   -3.9028   -0.0145 H   0  0  0  0  0  0  0  0  0  0  0  0
    2.0797   -5.0708   -1.1045 H   0  0  0  0  0  0  0  0  0  0  0  0
    1.6335   -5.4576    1.8455 H   0  0  0  0  0  0  0  0  0  0  0  0
    1.2925   -6.4639    0.5142 H   0  0  0  0  0  0  0  0  0  0  0  0
    3.9027   -6.8977    0.3930 H   0  0  0  0  0  0  0  0  0  0  0  0
    1.9781   -8.3685    0.9549 H   0  0  0  0  0  0  0  0  0  0  0  0
    4.2060   -9.6130    2.4522 H   0  0  0  0  0  0  0  0  0  0  0  0
    4.4011   -9.2158    0.7344 H   0  0  0  0  0  0  0  0  0  0  0  0
    3.0783  -10.2285    1.2841 H   0  0  0  0  0  0  0  0  0  0  0  0
    1.1395   -7.4620    2.9669 H   0  0  0  0  0  0  0  0  0  0  0  0
    1.6695   -9.0816    3.3068 H   0  0  0  0  0  0  0  0  0  0  0  0
    2.3248   -7.4387    5.0568 H   0  0  0  0  0  0  0  0  0  0  0  0
    3.6811   -8.2786    4.3993 H   0  0  0  0  0  0  0  0  0  0  0  0
    2.7259   -5.4759    3.7944 H   0  0  0  0  0  0  0  0  0  0  0  0
    3.8684   -5.9440    5.6952 H   0  0  0  0  0  0  0  0  0  0  0  0
    6.3831   -6.6239    3.1087 H   0  0  0  0  0  0  0  0  0  0  0  0
    5.9458   -7.3733    1.5719 H   0  0  0  0  0  0  0  0  0  0  0  0
    5.3374   -7.9765    3.1002 H   0  0  0  0  0  0  0  0  0  0  0  0
    5.1230   -4.2575    3.9168 H   0  0  0  0  0  0  0  0  0  0  0  0
    7.0492   -5.1768    1.5731 H   0  0  0  0  0  0  0  0  0  0  0  0
    6.0378   -5.3908    0.2212 H   0  0  0  0  0  0  0  0  0  0  0  0
    7.5268   -3.0991    1.2166 H   0  0  0  0  0  0  0  0  0  0  0  0
    7.0911   -3.4998   -0.3695 H   0  0  0  0  0  0  0  0  0  0  0  0
    6.7212   -1.5989    2.4816 H   0  0  0  0  0  0  0  0  0  0  0  0
    6.3874   -0.2617    1.4221 H   0  0  0  0  0  0  0  0  0  0  0  0
    4.8278   -0.0337    3.3904 H   0  0  0  0  0  0  0  0  0  0  0  0
    2.7381   -0.6342    1.9670 H   0  0  0  0  0  0  0  0  0  0  0  0
    3.9578    1.1633    1.4008 H   0  0  0  0  0  0  0  0  0  0  0  0
    3.3308   -1.8500    0.3433 H   0  0  0  0  0  0  0  0  0  0  0  0
    4.6907   -3.9156   -1.9467 H   0  0  0  0  0  0  0  0  0  0  0  0
    3.3831   -2.7495   -1.8302 H   0  0  0  0  0  0  0  0  0  0  0  0
  1  2  2  0
  1 31  1  0
  1 32  1  0
  2 24  1  0
  2  3  1  0
  3  4  2  0
  5  3  1  1
  5 18  1  0
  5 27  1  0
  5  6  1  0
  6 30  1  0
  6  7  1  0
  6 33  1  1
  7  8  1  0
  7 34  1  0
  7 35  1  0
  8  9  1  0
  8 36  1  0
  8 37  1  0
  9 16  1  0
  9 10  1  0
  9 38  1  6
 10 11  1  0
 10 12  1  0
 10 39  1  6
 11 40  1  0
 11 41  1  0
 11 42  1  0
 12 13  1  0
 12 43  1  0
 12 44  1  0
 13 14  1  0
 13 45  1  0
 13 46  1  0
 14 15  1  0
 14 16  1  0
 14 47  1  6
 15 48  1  0
 16 17  1  1
 16 18  1  0
 17 49  1  0
 17 50  1  0
 17 51  1  0
 18 19  1  1
 18 20  1  0
 19 52  1  0
 20 21  1  0
 20 53  1  0
 20 54  1  0
 22 21  1  6
 21 55  1  0
 21 56  1  0
 22 27  1  0
 22 23  1  0
 22 28  1  0
 23 24  1  0
 23 57  1  0
 23 58  1  0
 24 25  1  0
 24 59  1  1
 25 26  1  0
 25 27  1  0
 25 60  1  1
 26 61  1  0
 27 62  1  6
 28 29  2  0
 28 30  1  0
 30 63  1  0
 30 64  1  0
M  END
>  <i_m_ct_stereo_status>  (365) 
1

>  <s_m_source_file>  (365) 
/var/tmp/pbs.5076255.sched01/tmpr9sv22dd/120oksnzf6p.sdf

>  <i_m_source_file_index>  (365) 
35

>  <i_lp_mmshare_version>  (365) 
48012

>  <i_f3d_flags>  (365) 
0

>  <s_epik_input>  (365) 
Tz1DMUMoPVtDSDJdKVtDQEBIXShbQ0gyXTIpW0NAQEhdKFtPSF0pW0NASF0zW0NAXTIoQyg9TylbQ0gyXTQpW0NIMl1bQ0gyXVtDQF01KFtPSF0pW0NAXShbQ0gzXSkoW0NAQEhdNltDSDJdW0NIMl1bQ0BASF00W0NAXTEzNSlbQ0BIXShbT0hdKVtDSDJdW0NIMl1bQ0BASF02W0NIM10=

>  <s_epik_cmdline>  (365) 
J2VwaWtfcHl0aG9uJywgJy1waHQnLCAnMi4wJywgJy1waCcsICc3LjAnLCAnLXRuJywgJzgnLCAnLW1hJywgJzIwMCcsICctaW1hZScsICc8aW5maWxlLm1hZT4nLCAnLW9tYWUnLCAnPG91dGZpbGUubWFlPic=

>  <r_lp_tautomer_probability>  (365) 
1

>  <r_epik_Ionization_Penalty>  (365) 
2.03531e-06

>  <r_epik_Ionization_Penalty_Charging>  (365) 
0

>  <r_epik_Ionization_Penalty_Neutral>  (365) 
2.03531e-06

>  <r_epik_State_Penalty>  (365) 
-0

>  <r_epik_Charging_Adjusted_Penalty>  (365) 
0

>  <i_epik_Tot_Q>  (365) 
0

>  <i_epik_Tot_abs_Q>  (365) 
0

>  <s_lp_Force_Field>  (365) 
OPLS3e

>  <r_lp_Energy>  (365) 
255.346

>  <b_lp_Chiralities_Consistent>  (365) 
1

>  <s_lp_Variant>  (365) 
116:0-1

>  <s_i_glide_gridfile>  (365) 
pfpi4k_grid

>  <i_i_glide_lignum>  (365) 
35

>  <i_i_glide_rotatable_bonds>  (365) 
3

>  <r_i_docking_score>  (365) 
-3.04982

>  <r_i_glide_ligand_efficiency>  (365) 
-0.101661

>  <r_i_glide_ligand_efficiency_sa>  (365) 
-0.315884

>  <r_i_glide_ligand_efficiency_ln>  (365) 
-0.692953

>  <r_i_glide_gscore>  (365) 
-3.04982

>  <r_i_glide_lipo>  (365) 
-0.578254

>  <r_i_glide_hbond>  (365) 
-0.0542008

>  <r_i_glide_metal>  (365) 
-0

>  <r_i_glide_rewards>  (365) 
-1.08276

>  <r_i_glide_evdw>  (365) 
-20.2738

>  <r_i_glide_ecoul>  (365) 
-1.98534

>  <r_i_glide_erotb>  (365) 
0

>  <r_i_glide_esite>  (365) 
-0.0231218

>  <r_i_glide_emodel>  (365) 
-32.2662

>  <r_i_glide_energy>  (365) 
-22.2592

>  <r_i_glide_einternal>  (365) 
0.654677

>  <r_i_glide_intrahb_reward>  (365) 
-0.5

>  <i_i_glide_confnum>  (365) 
1

>  <i_i_glide_posenum>  (365) 
1

>  <r_i_glide_eff_state_penalty>  (365) 
0

>  <ligand_id>  (365) 
116

>  <original_smiles>  (365) 
C=C1C(=O)C23C4CCC5C(C)CCC(O)C5(C)C2(O)CCC2(CC1C(O)C23)C(=O)C4

>  <smiles>  (365) 
[H]OC1([H])C2([H])C(=C([H])[H])C(=O)C34C5([H])C([H])([H])C(=O)C(C([H])([H])C([H])([H])C3(O[H])C3(C([H])([H])[H])C([H])(O[H])C([H])([H])C([H])([H])C([H])(C([H])([H])[H])C3([H])C([H])([H])C5([H])[H])(C2([H])[H])C14[H]

$$$$
116:0:2
     RDKit          3D

 64 69  0  0  1  0  0  0  0  0999 V2000
    7.8609   -5.4747    2.2166 C   0  0  0  0  0  0  0  0  0  0  0  0
    6.6073   -5.3406    2.6528 C   0  0  0  0  0  0  0  0  0  0  0  0
    5.4619   -5.3319    1.6242 C   0  0  0  0  0  0  0  0  0  0  0  0
    5.3613   -6.1116    0.6842 O   0  0  0  0  0  0  0  0  0  0  0  0
    4.3508   -4.3377    2.0271 C   0  0  2  0  0  0  0  0  0  0  0  0
    2.7632   -4.2720    1.8281 C   0  0  1  0  0  0  0  0  0  0  0  0
    2.3920   -4.9952    0.5614 C   0  0  0  0  0  0  0  0  0  0  0  0
    3.0724   -4.3430   -0.6509 C   0  0  0  0  0  0  0  0  0  0  0  0
    3.4790   -2.8382   -0.7212 C   0  0  2  0  0  0  0  0  0  0  0  0
    3.4973   -2.5198   -2.2625 C   0  0  1  0  0  0  0  0  0  0  0  0
    3.3214   -1.0582   -2.6997 C   0  0  0  0  0  0  0  0  0  0  0  0
    4.6542   -3.2136   -2.9873 C   0  0  0  0  0  0  0  0  0  0  0  0
    5.9772   -2.8958   -2.3225 C   0  0  0  0  0  0  0  0  0  0  0  0
    6.0107   -3.1673   -0.8103 C   0  0  1  0  0  0  0  0  0  0  0  0
    7.2994   -2.7439   -0.4302 O   0  0  0  0  0  0  0  0  0  0  0  0
    4.8480   -2.4917    0.0305 C   0  0  1  0  0  0  0  0  0  0  0  0
    5.0540   -0.9438   -0.0452 C   0  0  0  0  0  0  0  0  0  0  0  0
    4.8712   -2.8671    1.6128 C   0  0  2  0  0  0  0  0  0  0  0  0
    6.2032   -2.6390    2.0273 O   0  0  0  0  0  0  0  0  0  0  0  0
    4.1735   -1.8033    2.5068 C   0  0  0  0  0  0  0  0  0  0  0  0
    4.0616   -2.2319    3.9667 C   0  0  0  0  0  0  0  0  0  0  0  0
    4.0693   -3.7627    4.3328 C   0  0  2  0  0  0  0  0  0  0  0  0
    5.4770   -4.1390    4.9662 C   0  0  0  0  0  0  0  0  0  0  0  0
    6.1768   -5.3675    4.1882 C   0  0  1  0  0  0  0  0  0  0  0  0
    4.9567   -6.1519    4.1048 C   0  0  1  0  0  0  0  0  0  0  0  0
    4.4463   -6.6097    5.3404 O   0  0  0  0  0  0  0  0  0  0  0  0
    4.1742   -4.9667    3.4193 C   0  0  2  0  0  0  0  0  0  0  0  0
    2.5663   -4.0818    4.5430 C   0  0  0  0  0  0  0  0  0  0  0  0
    2.0409   -4.1984    5.6447 O   0  0  0  0  0  0  0  0  0  0  0  0
    1.7822   -4.2008    3.1445 C   0  0  0  0  0  0  0  0  0  0  0  0
    8.6878   -5.5388    2.9123 H   0  0  0  0  0  0  0  0  0  0  0  0
    8.0823   -5.5195    1.1578 H   0  0  0  0  0  0  0  0  0  0  0  0
    2.4839   -3.2841    1.5072 H   0  0  0  0  0  0  0  0  0  0  0  0
    2.5726   -6.0792    0.6195 H   0  0  0  0  0  0  0  0  0  0  0  0
    1.3584   -4.9031    0.3306 H   0  0  0  0  0  0  0  0  0  0  0  0
    3.9354   -4.9482   -0.9207 H   0  0  0  0  0  0  0  0  0  0  0  0
    2.3304   -4.5723   -1.4192 H   0  0  0  0  0  0  0  0  0  0  0  0
    2.6832   -2.2194   -0.2959 H   0  0  0  0  0  0  0  0  0  0  0  0
    2.5849   -2.9401   -2.6850 H   0  0  0  0  0  0  0  0  0  0  0  0
    4.2501   -0.4927   -2.7805 H   0  0  0  0  0  0  0  0  0  0  0  0
    2.6635   -0.6040   -1.9695 H   0  0  0  0  0  0  0  0  0  0  0  0
    2.8188   -0.9836   -3.6627 H   0  0  0  0  0  0  0  0  0  0  0  0
    4.4930   -4.2921   -3.0036 H   0  0  0  0  0  0  0  0  0  0  0  0
    4.6714   -2.8944   -4.0274 H   0  0  0  0  0  0  0  0  0  0  0  0
    6.7757   -3.4695   -2.8059 H   0  0  0  0  0  0  0  0  0  0  0  0
    6.2069   -1.8594   -2.4843 H   0  0  0  0  0  0  0  0  0  0  0  0
    5.9917   -4.2524   -0.7090 H   0  0  0  0  0  0  0  0  0  0  0  0
    7.3624   -2.8890    0.5145 H   0  0  0  0  0  0  0  0  0  0  0  0
    5.8311   -0.5778    0.6304 H   0  0  0  0  0  0  0  0  0  0  0  0
    4.1302   -0.4081    0.1862 H   0  0  0  0  0  0  0  0  0  0  0  0
    5.3735   -0.6122   -1.0186 H   0  0  0  0  0  0  0  0  0  0  0  0
    6.2302   -2.7552    2.9563 H   0  0  0  0  0  0  0  0  0  0  0  0
    4.7305   -0.8663    2.5235 H   0  0  0  0  0  0  0  0  0  0  0  0
    3.1953   -1.4916    2.1357 H   0  0  0  0  0  0  0  0  0  0  0  0
    4.8358   -1.7113    4.5261 H   0  0  0  0  0  0  0  0  0  0  0  0
    3.1541   -1.7575    4.3526 H   0  0  0  0  0  0  0  0  0  0  0  0
    6.1681   -3.3013    4.9387 H   0  0  0  0  0  0  0  0  0  0  0  0
    5.3590   -4.3542    6.0267 H   0  0  0  0  0  0  0  0  0  0  0  0
    6.9558   -5.8526    4.7842 H   0  0  0  0  0  0  0  0  0  0  0  0
    5.0648   -7.0592    3.4904 H   0  0  0  0  0  0  0  0  0  0  0  0
    4.3905   -5.8616    5.9423 H   0  0  0  0  0  0  0  0  0  0  0  0
    3.4187   -5.7652    3.3177 H   0  0  0  0  0  0  0  0  0  0  0  0
    1.1086   -3.3479    3.0681 H   0  0  0  0  0  0  0  0  0  0  0  0
    1.1604   -5.0890    3.2002 H   0  0  0  0  0  0  0  0  0  0  0  0
  1  2  2  0
  1 31  1  0
  1 32  1  0
  2 24  1  0
  2  3  1  0
  3  4  2  0
  5  3  1  6
  5 18  1  0
  5 27  1  0
  5  6  1  0
  6 30  1  0
  6  7  1  0
  6 33  1  6
  7  8  1  0
  7 34  1  0
  7 35  1  0
  8  9  1  0
  8 36  1  0
  8 37  1  0
  9 16  1  0
  9 10  1  0
  9 38  1  1
 10 11  1  0
 10 12  1  0
 10 39  1  6
 11 40  1  0
 11 41  1  0
 11 42  1  0
 12 13  1  0
 12 43  1  0
 12 44  1  0
 13 14  1  0
 13 45  1  0
 13 46  1  0
 14 15  1  0
 14 16  1  0
 14 47  1  6
 15 48  1  0
 16 17  1  1
 16 18  1  0
 17 49  1  0
 17 50  1  0
 17 51  1  0
 18 19  1  1
 18 20  1  0
 19 52  1  0
 20 21  1  0
 20 53  1  0
 20 54  1  0
 22 21  1  6
 21 55  1  0
 21 56  1  0
 22 27  1  0
 22 23  1  0
 22 28  1  0
 23 24  1  0
 23 57  1  0
 23 58  1  0
 24 25  1  0
 24 59  1  1
 25 26  1  0
 25 27  1  0
 25 60  1  6
 26 61  1  0
 27 62  1  6
 28 29  2  0
 28 30  1  0
 30 63  1  0
 30 64  1  0
M  END
>  <i_m_ct_stereo_status>  (366) 
1

>  <s_m_source_file>  (366) 
/var/tmp/pbs.5076255.sched01/tmpr9sv22dd/120oksnzf6p.sdf

>  <i_m_source_file_index>  (366) 
35

>  <i_lp_mmshare_version>  (366) 
48012

>  <i_f3d_flags>  (366) 
0

>  <s_epik_input>  (366) 
Tz1DMUMoPVtDSDJdKVtDQEBIXShbQ0gyXTIpW0NAQEhdKFtPSF0pW0NASF0zW0NAXTIoQyg9TylbQ0gyXTQpW0NIMl1bQ0gyXVtDQF01KFtPSF0pW0NAXShbQ0gzXSkoW0NAQEhdNltDSDJdW0NIMl1bQ0BASF00W0NAXTEzNSlbQ0BIXShbT0hdKVtDSDJdW0NIMl1bQ0BASF02W0NIM10=

>  <s_epik_cmdline>  (366) 
J2VwaWtfcHl0aG9uJywgJy1waHQnLCAnMi4wJywgJy1waCcsICc3LjAnLCAnLXRuJywgJzgnLCAnLW1hJywgJzIwMCcsICctaW1hZScsICc8aW5maWxlLm1hZT4nLCAnLW9tYWUnLCAnPG91dGZpbGUubWFlPic=

>  <r_lp_tautomer_probability>  (366) 
1

>  <r_epik_Ionization_Penalty>  (366) 
2.03531e-06

>  <r_epik_Ionization_Penalty_Charging>  (366) 
0

>  <r_epik_Ionization_Penalty_Neutral>  (366) 
2.03531e-06

>  <r_epik_State_Penalty>  (366) 
-0

>  <r_epik_Charging_Adjusted_Penalty>  (366) 
0

>  <i_epik_Tot_Q>  (366) 
0

>  <i_epik_Tot_abs_Q>  (366) 
0

>  <s_lp_Force_Field>  (366) 
OPLS3e

>  <r_lp_Energy>  (366) 
255.346

>  <b_lp_Chiralities_Consistent>  (366) 
1

>  <s_lp_Variant>  (366) 
116:0-1

>  <s_i_glide_gridfile>  (366) 
pfpi4k_grid

>  <i_i_glide_lignum>  (366) 
35

>  <i_i_glide_rotatable_bonds>  (366) 
3

>  <r_i_docking_score>  (366) 
-2.88715

>  <r_i_glide_ligand_efficiency>  (366) 
-0.0962384

>  <r_i_glide_ligand_efficiency_sa>  (366) 
-0.299035

>  <r_i_glide_ligand_efficiency_ln>  (366) 
-0.655993

>  <r_i_glide_gscore>  (366) 
-2.88715

>  <r_i_glide_lipo>  (366) 
-0.430849

>  <r_i_glide_hbond>  (366) 
0

>  <r_i_glide_metal>  (366) 
-0

>  <r_i_glide_rewards>  (366) 
-1.14648

>  <r_i_glide_evdw>  (366) 
-20.0327

>  <r_i_glide_ecoul>  (366) 
-2.05457

>  <r_i_glide_erotb>  (366) 
0

>  <r_i_glide_esite>  (366) 
0

>  <r_i_glide_emodel>  (366) 
-31.5251

>  <r_i_glide_energy>  (366) 
-22.0873

>  <r_i_glide_einternal>  (366) 
0.347308

>  <r_i_glide_intrahb_reward>  (366) 
-0.5

>  <i_i_glide_confnum>  (366) 
2

>  <i_i_glide_posenum>  (366) 
8

>  <r_i_glide_eff_state_penalty>  (366) 
0

>  <ligand_id>  (366) 
116

>  <original_smiles>  (366) 
C=C1C(=O)C23C4CCC5C(C)CCC(O)C5(C)C2(O)CCC2(CC1C(O)C23)C(=O)C4

>  <smiles>  (366) 
[H]OC1([H])C2([H])C(=C([H])[H])C(=O)C34C5([H])C([H])([H])C(=O)C(C([H])([H])C([H])([H])C3(O[H])C3(C([H])([H])[H])C([H])(O[H])C([H])([H])C([H])([H])C([H])(C([H])([H])[H])C3([H])C([H])([H])C5([H])[H])(C2([H])[H])C14[H]

$$$$
117:0:0
     RDKit          3D

 25 27  0  0  1  0  0  0  0  0999 V2000
    7.0137   -1.6588    0.0543 O   0  0  0  0  0  0  0  0  0  0  0  0
    6.0788   -2.2362    0.6733 C   0  0  0  0  0  0  0  0  0  0  0  0
    6.2203   -3.1636    1.4863 O   0  0  0  0  0  0  0  0  0  0  0  0
    4.6528   -1.6891    0.4267 C   0  0  2  0  0  0  0  0  0  0  0  0
    3.4979   -2.7568    0.3377 C   0  0  0  0  0  0  0  0  0  0  0  0
    3.8617   -2.8743   -1.1441 C   0  0  1  0  0  0  0  0  0  0  0  0
    3.1250   -3.0443   -2.4817 C   0  0  1  0  0  0  0  0  0  0  0  0
    2.7061   -1.7842   -3.2776 C   0  0  0  0  0  0  0  0  0  0  0  0
    4.2229   -1.5844   -3.4947 C   0  0  2  0  0  0  0  0  0  0  0  0
    4.1417   -3.1219   -3.6481 C   0  0  0  0  0  0  0  0  0  0  0  0
    5.0508   -1.0481   -2.2928 C   0  0  0  0  0  0  0  0  0  0  0  0
    4.3005   -1.4321   -1.0340 C   0  0  2  0  0  0  0  0  0  0  0  0
    4.3923   -0.8696    1.1030 H   0  0  0  0  0  0  0  0  0  0  0  0
    3.6481   -3.6861    0.8869 H   0  0  0  0  0  0  0  0  0  0  0  0
    2.4965   -2.3444    0.4800 H   0  0  0  0  0  0  0  0  0  0  0  0
    4.7131   -3.5493   -1.1848 H   0  0  0  0  0  0  0  0  0  0  0  0
    2.3724   -3.8304   -2.5125 H   0  0  0  0  0  0  0  0  0  0  0  0
    2.1384   -1.9905   -4.1919 H   0  0  0  0  0  0  0  0  0  0  0  0
    2.2286   -1.0044   -2.6853 H   0  0  0  0  0  0  0  0  0  0  0  0
    4.4388   -1.1116   -4.4492 H   0  0  0  0  0  0  0  0  0  0  0  0
    5.0758   -3.6246   -3.3947 H   0  0  0  0  0  0  0  0  0  0  0  0
    3.7246   -3.4781   -4.5987 H   0  0  0  0  0  0  0  0  0  0  0  0
    6.0357   -1.5133   -2.3081 H   0  0  0  0  0  0  0  0  0  0  0  0
    5.2012    0.0274   -2.3454 H   0  0  0  0  0  0  0  0  0  0  0  0
    3.4437   -0.7701   -0.9438 H   0  0  0  0  0  0  0  0  0  0  0  0
  1  2  2  0
  2  3  1  0
  2  4  1  0
  4 12  1  0
  4  5  1  0
  4 13  1  1
  5  6  1  0
  5 14  1  0
  5 15  1  0
  6 12  1  0
  6  7  1  0
  6 16  1  1
  7 10  1  0
  7  8  1  0
  7 17  1  1
  8  9  1  0
  8 18  1  0
  8 19  1  0
  9 10  1  0
  9 11  1  0
  9 20  1  6
 10 21  1  0
 10 22  1  0
 11 12  1  0
 11 23  1  0
 11 24  1  0
 12 25  1  1
M  CHG  1   3  -1
M  END
>  <i_m_ct_stereo_status>  (367) 
1

>  <s_m_source_file>  (367) 
/var/tmp/pbs.5076255.sched01/tmpr9sv22dd/120oksnzf6p.sdf

>  <i_m_source_file_index>  (367) 
36

>  <i_lp_mmshare_version>  (367) 
48012

>  <i_f3d_flags>  (367) 
0

>  <s_epik_input>  (367) 
Tz1DKFtPSF0pW0NASF0oW0NIMl0xKVtDQEhdMltDSDJdW0NAQEhdKFtDSDJdMylbQ0gyXVtDQEBIXTNbQ0BIXTEy

>  <s_epik_cmdline>  (367) 
J2VwaWtfcHl0aG9uJywgJy1waHQnLCAnMi4wJywgJy1waCcsICc3LjAnLCAnLXRuJywgJzgnLCAnLW1hJywgJzIwMCcsICctaW1hZScsICc8aW5maWxlLm1hZT4nLCAnLW9tYWUnLCAnPG91dGZpbGUubWFlPic=

>  <r_epik_Ionization_Penalty>  (367) 
0.00406434

>  <r_epik_Ionization_Penalty_Charging>  (367) 
0.00406434

>  <r_epik_Ionization_Penalty_Neutral>  (367) 
0

>  <r_epik_State_Penalty>  (367) 
0.00291321

>  <r_epik_Charging_Adjusted_Penalty>  (367) 
0.00697755

>  <i_epik_Tot_Q>  (367) 
-1

>  <i_epik_Tot_abs_Q>  (367) 
1

>  <s_lp_Force_Field>  (367) 
OPLS3e

>  <r_lp_Energy>  (367) 
66.351

>  <b_lp_Chiralities_Consistent>  (367) 
1

>  <s_lp_Variant>  (367) 
117:0-1

>  <s_i_glide_gridfile>  (367) 
pfpi4k_grid

>  <i_i_glide_lignum>  (367) 
36

>  <i_i_glide_rotatable_bonds>  (367) 
1

>  <r_i_docking_score>  (367) 
-3.80426

>  <r_i_glide_ligand_efficiency>  (367) 
-0.317022

>  <r_i_glide_ligand_efficiency_sa>  (367) 
-0.725799

>  <r_i_glide_ligand_efficiency_ln>  (367) 
-1.09164

>  <r_i_glide_gscore>  (367) 
-3.80426

>  <r_i_glide_lipo>  (367) 
-0.427691

>  <r_i_glide_hbond>  (367) 
-0.102682

>  <r_i_glide_metal>  (367) 
-0

>  <r_i_glide_rewards>  (367) 
-2.36494

>  <r_i_glide_evdw>  (367) 
-16.6554

>  <r_i_glide_ecoul>  (367) 
-0.507824

>  <r_i_glide_erotb>  (367) 
0

>  <r_i_glide_esite>  (367) 
0

>  <r_i_glide_emodel>  (367) 
-22.3606

>  <r_i_glide_energy>  (367) 
-17.1633

>  <r_i_glide_einternal>  (367) 
0.128537

>  <r_i_glide_intrahb_reward>  (367) 
-0

>  <i_i_glide_confnum>  (367) 
1

>  <i_i_glide_posenum>  (367) 
9

>  <r_i_glide_eff_state_penalty>  (367) 
0

>  <ligand_id>  (367) 
117

>  <original_smiles>  (367) 
O=C(O)C1CC2C3CC(C3)CC12

>  <smiles>  (367) 
[H]C1([H])C2([H])C([H])([H])C1([H])C1([H])C([H])([H])C([H])(C(=O)[O-])C1([H])C2([H])[H]

$$$$
117:0:1
     RDKit          3D

 25 27  0  0  1  0  0  0  0  0999 V2000
    6.3150   -4.3915    0.2187 O   0  0  0  0  0  0  0  0  0  0  0  0
    5.6628   -3.3904    0.5881 C   0  0  0  0  0  0  0  0  0  0  0  0
    4.9419   -3.3371    1.6110 O   0  0  0  0  0  0  0  0  0  0  0  0
    5.7912   -2.1296   -0.2858 C   0  0  2  0  0  0  0  0  0  0  0  0
    4.6187   -1.0804   -0.2171 C   0  0  0  0  0  0  0  0  0  0  0  0
    3.9378   -1.9305   -1.2901 C   0  0  1  0  0  0  0  0  0  0  0  0
    3.0785   -1.6663   -2.5414 C   0  0  1  0  0  0  0  0  0  0  0  0
    3.7966   -1.5296   -3.9073 C   0  0  0  0  0  0  0  0  0  0  0  0
    4.0986   -3.0519   -3.7470 C   0  0  2  0  0  0  0  0  0  0  0  0
    2.6641   -3.0182   -3.1662 C   0  0  0  0  0  0  0  0  0  0  0  0
    5.2379   -3.4567   -2.7430 C   0  0  0  0  0  0  0  0  0  0  0  0
    5.3404   -2.3021   -1.7447 C   0  0  2  0  0  0  0  0  0  0  0  0
    6.7747   -1.6704   -0.1756 H   0  0  0  0  0  0  0  0  0  0  0  0
    4.0699   -1.0336    0.7243 H   0  0  0  0  0  0  0  0  0  0  0  0
    4.8912   -0.0897   -0.5738 H   0  0  0  0  0  0  0  0  0  0  0  0
    3.4436   -2.7466   -0.7581 H   0  0  0  0  0  0  0  0  0  0  0  0
    2.2466   -0.9763   -2.3867 H   0  0  0  0  0  0  0  0  0  0  0  0
    3.1187   -1.2782   -4.7292 H   0  0  0  0  0  0  0  0  0  0  0  0
    4.6521   -0.8571   -3.9165 H   0  0  0  0  0  0  0  0  0  0  0  0
    4.1259   -3.5861   -4.6964 H   0  0  0  0  0  0  0  0  0  0  0  0
    2.4607   -3.8133   -2.4497 H   0  0  0  0  0  0  0  0  0  0  0  0
    1.8606   -2.9532   -3.9073 H   0  0  0  0  0  0  0  0  0  0  0  0
    4.9873   -4.3948   -2.2437 H   0  0  0  0  0  0  0  0  0  0  0  0
    6.1814   -3.6210   -3.2619 H   0  0  0  0  0  0  0  0  0  0  0  0
    5.8254   -1.4702   -2.2516 H   0  0  0  0  0  0  0  0  0  0  0  0
  1  2  2  0
  2  3  1  0
  2  4  1  0
  4 12  1  0
  4  5  1  0
  4 13  1  6
  5  6  1  0
  5 14  1  0
  5 15  1  0
  6 12  1  0
  6  7  1  0
  6 16  1  1
  7 10  1  0
  7  8  1  0
  7 17  1  1
  8  9  1  0
  8 18  1  0
  8 19  1  0
  9 10  1  0
  9 11  1  0
  9 20  1  6
 10 21  1  0
 10 22  1  0
 11 12  1  0
 11 23  1  0
 11 24  1  0
 12 25  1  6
M  CHG  1   3  -1
M  END
>  <i_m_ct_stereo_status>  (368) 
1

>  <s_m_source_file>  (368) 
/var/tmp/pbs.5076255.sched01/tmpr9sv22dd/120oksnzf6p.sdf

>  <i_m_source_file_index>  (368) 
36

>  <i_lp_mmshare_version>  (368) 
48012

>  <i_f3d_flags>  (368) 
0

>  <s_epik_input>  (368) 
Tz1DKFtPSF0pW0NASF0oW0NIMl0xKVtDQEhdMltDSDJdW0NAQEhdKFtDSDJdMylbQ0gyXVtDQEBIXTNbQ0BIXTEy

>  <s_epik_cmdline>  (368) 
J2VwaWtfcHl0aG9uJywgJy1waHQnLCAnMi4wJywgJy1waCcsICc3LjAnLCAnLXRuJywgJzgnLCAnLW1hJywgJzIwMCcsICctaW1hZScsICc8aW5maWxlLm1hZT4nLCAnLW9tYWUnLCAnPG91dGZpbGUubWFlPic=

>  <r_epik_Ionization_Penalty>  (368) 
0.00406434

>  <r_epik_Ionization_Penalty_Charging>  (368) 
0.00406434

>  <r_epik_Ionization_Penalty_Neutral>  (368) 
0

>  <r_epik_State_Penalty>  (368) 
0.00291321

>  <r_epik_Charging_Adjusted_Penalty>  (368) 
0.00697755

>  <i_epik_Tot_Q>  (368) 
-1

>  <i_epik_Tot_abs_Q>  (368) 
1

>  <s_lp_Force_Field>  (368) 
OPLS3e

>  <r_lp_Energy>  (368) 
66.351

>  <b_lp_Chiralities_Consistent>  (368) 
1

>  <s_lp_Variant>  (368) 
117:0-1

>  <s_i_glide_gridfile>  (368) 
pfpi4k_grid

>  <i_i_glide_lignum>  (368) 
36

>  <i_i_glide_rotatable_bonds>  (368) 
1

>  <r_i_docking_score>  (368) 
-3.79474

>  <r_i_glide_ligand_efficiency>  (368) 
-0.316228

>  <r_i_glide_ligand_efficiency_sa>  (368) 
-0.723981

>  <r_i_glide_ligand_efficiency_ln>  (368) 
-1.08891

>  <r_i_glide_gscore>  (368) 
-3.79474

>  <r_i_glide_lipo>  (368) 
-0.561014

>  <r_i_glide_hbond>  (368) 
0

>  <r_i_glide_metal>  (368) 
-0

>  <r_i_glide_rewards>  (368) 
-2.32873

>  <r_i_glide_evdw>  (368) 
-19.5834

>  <r_i_glide_ecoul>  (368) 
0.494548

>  <r_i_glide_erotb>  (368) 
0

>  <r_i_glide_esite>  (368) 
0

>  <r_i_glide_emodel>  (368) 
-24.3961

>  <r_i_glide_energy>  (368) 
-19.0888

>  <r_i_glide_einternal>  (368) 
0.0776445

>  <r_i_glide_intrahb_reward>  (368) 
-0

>  <i_i_glide_confnum>  (368) 
2

>  <i_i_glide_posenum>  (368) 
15

>  <r_i_glide_eff_state_penalty>  (368) 
0

>  <ligand_id>  (368) 
117

>  <original_smiles>  (368) 
O=C(O)C1CC2C3CC(C3)CC12

>  <smiles>  (368) 
[H]C1([H])C2([H])C([H])([H])C1([H])C1([H])C([H])([H])C([H])(C(=O)[O-])C1([H])C2([H])[H]

$$$$
117:0:2
     RDKit          3D

 25 27  0  0  1  0  0  0  0  0999 V2000
    5.6853   -2.7478    1.5931 O   0  0  0  0  0  0  0  0  0  0  0  0
    6.3232   -2.4616    0.5550 C   0  0  0  0  0  0  0  0  0  0  0  0
    7.0363   -1.4439    0.3956 O   0  0  0  0  0  0  0  0  0  0  0  0
    6.2116   -3.4515   -0.6153 C   0  0  2  0  0  0  0  0  0  0  0  0
    6.7893   -2.9759   -1.9998 C   0  0  0  0  0  0  0  0  0  0  0  0
    5.4272   -2.3207   -2.2292 C   0  0  1  0  0  0  0  0  0  0  0  0
    4.4837   -2.1081   -3.4265 C   0  0  1  0  0  0  0  0  0  0  0  0
    3.3977   -3.1831   -3.6882 C   0  0  0  0  0  0  0  0  0  0  0  0
    2.7550   -2.6598   -2.3669 C   0  0  2  0  0  0  0  0  0  0  0  0
    3.2449   -1.3180   -2.9575 C   0  0  0  0  0  0  0  0  0  0  0  0
    3.4168   -3.0964   -1.0081 C   0  0  0  0  0  0  0  0  0  0  0  0
    4.8669   -3.4338   -1.3573 C   0  0  2  0  0  0  0  0  0  0  0  0
    6.5553   -4.4481   -0.3297 H   0  0  0  0  0  0  0  0  0  0  0  0
    7.6206   -2.2713   -1.9559 H   0  0  0  0  0  0  0  0  0  0  0  0
    6.9884   -3.7827   -2.7053 H   0  0  0  0  0  0  0  0  0  0  0  0
    5.4501   -1.3638   -1.7063 H   0  0  0  0  0  0  0  0  0  0  0  0
    4.9436   -1.6747   -4.3157 H   0  0  0  0  0  0  0  0  0  0  0  0
    2.7892   -3.0067   -4.5819 H   0  0  0  0  0  0  0  0  0  0  0  0
    3.7460   -4.2179   -3.6765 H   0  0  0  0  0  0  0  0  0  0  0  0
    1.6656   -2.7219   -2.3731 H   0  0  0  0  0  0  0  0  0  0  0  0
    3.4439   -0.5635   -2.2023 H   0  0  0  0  0  0  0  0  0  0  0  0
    2.6236   -0.9125   -3.7607 H   0  0  0  0  0  0  0  0  0  0  0  0
    3.3595   -2.2856   -0.2782 H   0  0  0  0  0  0  0  0  0  0  0  0
    2.8991   -3.9523   -0.5748 H   0  0  0  0  0  0  0  0  0  0  0  0
    4.8660   -4.3949   -1.8738 H   0  0  0  0  0  0  0  0  0  0  0  0
  1  2  2  0
  2  3  1  0
  2  4  1  0
  4 12  1  0
  4  5  1  0
  4 13  1  1
  5  6  1  0
  5 14  1  0
  5 15  1  0
  6 12  1  0
  6  7  1  0
  6 16  1  1
  7 10  1  0
  7  8  1  0
  7 17  1  6
  8  9  1  0
  8 18  1  0
  8 19  1  0
  9 10  1  0
  9 11  1  0
  9 20  1  1
 10 21  1  0
 10 22  1  0
 11 12  1  0
 11 23  1  0
 11 24  1  0
 12 25  1  6
M  CHG  1   3  -1
M  END
>  <i_m_ct_stereo_status>  (369) 
1

>  <s_m_source_file>  (369) 
/var/tmp/pbs.5076255.sched01/tmpr9sv22dd/120oksnzf6p.sdf

>  <i_m_source_file_index>  (369) 
36

>  <i_lp_mmshare_version>  (369) 
48012

>  <i_f3d_flags>  (369) 
0

>  <s_epik_input>  (369) 
Tz1DKFtPSF0pW0NASF0oW0NIMl0xKVtDQEhdMltDSDJdW0NAQEhdKFtDSDJdMylbQ0gyXVtDQEBIXTNbQ0BIXTEy

>  <s_epik_cmdline>  (369) 
J2VwaWtfcHl0aG9uJywgJy1waHQnLCAnMi4wJywgJy1waCcsICc3LjAnLCAnLXRuJywgJzgnLCAnLW1hJywgJzIwMCcsICctaW1hZScsICc8aW5maWxlLm1hZT4nLCAnLW9tYWUnLCAnPG91dGZpbGUubWFlPic=

>  <r_epik_Ionization_Penalty>  (369) 
0.00406434

>  <r_epik_Ionization_Penalty_Charging>  (369) 
0.00406434

>  <r_epik_Ionization_Penalty_Neutral>  (369) 
0

>  <r_epik_State_Penalty>  (369) 
0.00291321

>  <r_epik_Charging_Adjusted_Penalty>  (369) 
0.00697755

>  <i_epik_Tot_Q>  (369) 
-1

>  <i_epik_Tot_abs_Q>  (369) 
1

>  <s_lp_Force_Field>  (369) 
OPLS3e

>  <r_lp_Energy>  (369) 
66.351

>  <b_lp_Chiralities_Consistent>  (369) 
1

>  <s_lp_Variant>  (369) 
117:0-1

>  <s_i_glide_gridfile>  (369) 
pfpi4k_grid

>  <i_i_glide_lignum>  (369) 
36

>  <i_i_glide_rotatable_bonds>  (369) 
1

>  <r_i_docking_score>  (369) 
-3.68034

>  <r_i_glide_ligand_efficiency>  (369) 
-0.306695

>  <r_i_glide_ligand_efficiency_sa>  (369) 
-0.702157

>  <r_i_glide_ligand_efficiency_ln>  (369) 
-1.05608

>  <r_i_glide_gscore>  (369) 
-3.68034

>  <r_i_glide_lipo>  (369) 
-0.448492

>  <r_i_glide_hbond>  (369) 
-0.0261112

>  <r_i_glide_metal>  (369) 
-0

>  <r_i_glide_rewards>  (369) 
-2.35831

>  <r_i_glide_evdw>  (369) 
-18.4255

>  <r_i_glide_ecoul>  (369) 
0.492247

>  <r_i_glide_erotb>  (369) 
0

>  <r_i_glide_esite>  (369) 
0

>  <r_i_glide_emodel>  (369) 
-22.9672

>  <r_i_glide_energy>  (369) 
-17.9332

>  <r_i_glide_einternal>  (369) 
0.260755

>  <r_i_glide_intrahb_reward>  (369) 
-0

>  <i_i_glide_confnum>  (369) 
2

>  <i_i_glide_posenum>  (369) 
22

>  <r_i_glide_eff_state_penalty>  (369) 
0

>  <ligand_id>  (369) 
117

>  <original_smiles>  (369) 
O=C(O)C1CC2C3CC(C3)CC12

>  <smiles>  (369) 
[H]C1([H])C2([H])C([H])([H])C1([H])C1([H])C([H])([H])C([H])(C(=O)[O-])C1([H])C2([H])[H]

$$$$
118:0:0
     RDKit          3D

 48 50  0  0  1  0  0  0  0  0999 V2000
    1.4051   -5.0539   -0.7177 O   0  0  0  0  0  0  0  0  0  0  0  0
    1.6645   -3.9038   -1.5459 C   0  0  0  0  0  0  0  0  0  0  0  0
    2.9678   -3.1725   -1.1739 C   0  0  2  0  0  0  0  0  0  0  0  0
    2.8392   -2.7011    0.1734 O   0  0  0  0  0  0  0  0  0  0  0  0
    4.0311   -2.1796    0.7377 C   0  0  1  0  0  0  0  0  0  0  0  0
    5.1285   -3.0889    0.7936 O   0  0  0  0  0  0  0  0  0  0  0  0
    4.8848   -4.4088    1.1274 C   0  0  0  0  0  0  0  0  0  0  0  0
    3.7185   -4.8859    1.6210 C   0  0  0  0  0  0  0  0  0  0  0  0
    3.4559   -6.2875    1.7071 C   0  0  0  0  0  0  0  0  0  0  0  0
    2.2729   -6.6512    2.2308 C   0  0  0  0  0  0  0  0  0  0  0  0
    1.8302   -8.0692    2.4641 C   0  0  1  0  0  0  0  0  0  0  0  0
    0.4809   -8.2231    2.0829 O   0  0  0  0  0  0  0  0  0  0  0  0
    2.7428   -9.0683    1.7304 C   0  0  0  0  0  0  0  0  0  0  0  0
    4.2333   -8.6674    1.8134 C   0  0  1  0  0  0  0  0  0  0  0  0
    5.0360   -9.6026    1.1243 O   0  0  0  0  0  0  0  0  0  0  0  0
    4.4729   -7.2839    1.1751 C   0  0  2  0  0  0  0  0  0  0  0  0
    5.8958   -6.7201    1.4032 C   0  0  0  0  0  0  0  0  0  0  0  0
    6.0651   -5.3104    0.7881 C   0  0  0  0  0  0  0  0  0  0  0  0
    4.3988   -0.9008   -0.0413 C   0  0  1  0  0  0  0  0  0  0  0  0
    5.5429   -0.2525    0.5410 O   0  0  0  0  0  0  0  0  0  0  0  0
    4.5663   -1.2082   -1.5535 C   0  0  1  0  0  0  0  0  0  0  0  0
    5.7600   -1.9662   -1.7813 O   0  0  0  0  0  0  0  0  0  0  0  0
    3.3373   -1.9797   -2.0887 C   0  0  1  0  0  0  0  0  0  0  0  0
    3.4728   -2.3557   -3.4668 O   0  0  0  0  0  0  0  0  0  0  0  0
    2.1253   -5.7015   -0.9397 H   0  0  0  0  0  0  0  0  0  0  0  0
    1.7733   -4.2515   -2.5722 H   0  0  0  0  0  0  0  0  0  0  0  0
    0.8012   -3.2344   -1.5394 H   0  0  0  0  0  0  0  0  0  0  0  0
    3.7826   -3.8974   -1.2203 H   0  0  0  0  0  0  0  0  0  0  0  0
    3.7979   -1.9454    1.7850 H   0  0  0  0  0  0  0  0  0  0  0  0
    2.8801   -4.2637    1.9075 H   0  0  0  0  0  0  0  0  0  0  0  0
    1.5871   -5.8816    2.5413 H   0  0  0  0  0  0  0  0  0  0  0  0
    1.9137   -8.2038    3.5435 H   0  0  0  0  0  0  0  0  0  0  0  0
    0.4171   -8.9404    1.4572 H   0  0  0  0  0  0  0  0  0  0  0  0
    2.5872  -10.0598    2.1556 H   0  0  0  0  0  0  0  0  0  0  0  0
    2.4536   -9.1219    0.6812 H   0  0  0  0  0  0  0  0  0  0  0  0
    4.5238   -8.6183    2.8655 H   0  0  0  0  0  0  0  0  0  0  0  0
    4.6001  -10.4518    1.0702 H   0  0  0  0  0  0  0  0  0  0  0  0
    4.3054   -7.3617    0.0960 H   0  0  0  0  0  0  0  0  0  0  0  0
    6.0682   -6.6386    2.4762 H   0  0  0  0  0  0  0  0  0  0  0  0
    6.6581   -7.3957    1.0152 H   0  0  0  0  0  0  0  0  0  0  0  0
    6.1602   -5.3886   -0.2936 H   0  0  0  0  0  0  0  0  0  0  0  0
    6.9929   -4.8535    1.1335 H   0  0  0  0  0  0  0  0  0  0  0  0
    3.5541   -0.2316    0.0965 H   0  0  0  0  0  0  0  0  0  0  0  0
    5.7023    0.6031    0.0803 H   0  0  0  0  0  0  0  0  0  0  0  0
    4.6357   -0.2661   -2.0896 H   0  0  0  0  0  0  0  0  0  0  0  0
    5.6560   -2.8106   -1.3137 H   0  0  0  0  0  0  0  0  0  0  0  0
    2.5027   -1.3046   -2.0433 H   0  0  0  0  0  0  0  0  0  0  0  0
    3.2580   -1.5891   -4.0197 H   0  0  0  0  0  0  0  0  0  0  0  0
  1  2  1  0
  1 25  1  0
  2  3  1  0
  2 26  1  0
  2 27  1  0
  3 23  1  0
  3  4  1  0
  3 28  1  1
  4  5  1  0
  5  6  1  0
  5 19  1  0
  5 29  1  1
  6  7  1  0
  7 18  1  0
  7  8  2  0
  8  9  1  0
  8 30  1  0
  9 16  1  0
  9 10  2  0
 10 11  1  0
 10 31  1  0
 11 12  1  0
 11 13  1  0
 11 32  1  1
 12 33  1  0
 13 14  1  0
 13 34  1  0
 13 35  1  0
 14 15  1  0
 14 16  1  0
 14 36  1  1
 15 37  1  0
 16 17  1  0
 16 38  1  6
 17 18  1  0
 17 39  1  0
 17 40  1  0
 18 41  1  0
 18 42  1  0
 19 20  1  0
 19 21  1  0
 19 43  1  6
 20 44  1  0
 21 22  1  0
 21 23  1  0
 21 45  1  6
 22 46  1  0
 23 24  1  0
 23 47  1  6
 24 48  1  0
M  END
>  <i_m_ct_stereo_status>  (370) 
1

>  <s_m_source_file>  (370) 
/var/tmp/pbs.5076255.sched01/tmpr9sv22dd/120oksnzf6p.sdf

>  <i_m_source_file_index>  (370) 
37

>  <i_lp_mmshare_version>  (370) 
48012

>  <i_f3d_flags>  (370) 
0

>  <s_epik_input>  (370) 
W09IXVtDSDJdW0NAQEhdMU9bQ0BIXShbQ0BASF0oW09IXSlbQ0BASF0oW09IXSlbQ0BIXTFbT0hdKU9DKD1bQ0hdMilbQ0gyXVtDSDJdW0NASF0oQzI9MylbQ0BIXShbT0hdKVtDSDJdW0NAQEhdKFtDSF0zKVtPSF0=

>  <s_epik_cmdline>  (370) 
J2VwaWtfcHl0aG9uJywgJy1waHQnLCAnMi4wJywgJy1waCcsICc3LjAnLCAnLXRuJywgJzgnLCAnLW1hJywgJzIwMCcsICctaW1hZScsICc8aW5maWxlLm1hZT4nLCAnLW9tYWUnLCAnPG91dGZpbGUubWFlPic=

>  <r_lp_tautomer_probability>  (370) 
1

>  <r_epik_Ionization_Penalty>  (370) 
3.85531e-06

>  <r_epik_Ionization_Penalty_Charging>  (370) 
0

>  <r_epik_Ionization_Penalty_Neutral>  (370) 
3.85531e-06

>  <r_epik_State_Penalty>  (370) 
-0

>  <r_epik_Charging_Adjusted_Penalty>  (370) 
0

>  <i_epik_Tot_Q>  (370) 
0

>  <i_epik_Tot_abs_Q>  (370) 
0

>  <s_epik_Chemistry_Notes>  (370) 
This compound contains an acetal/aminal-like group ( X-CH(R)-Y where X, Y are N, S, or O) that may be acid/base labile, releasing an aldehyde.

>  <s_lp_Force_Field>  (370) 
OPLS3e

>  <r_lp_Energy>  (370) 
24.0323

>  <b_lp_Chiralities_Consistent>  (370) 
1

>  <s_lp_Variant>  (370) 
118:0-1

>  <s_i_glide_gridfile>  (370) 
pfpi4k_grid

>  <i_i_glide_lignum>  (370) 
37

>  <i_i_glide_rotatable_bonds>  (370) 
9

>  <r_i_docking_score>  (370) 
-5.63334

>  <r_i_glide_ligand_efficiency>  (370) 
-0.234722

>  <r_i_glide_ligand_efficiency_sa>  (370) 
-0.677057

>  <r_i_glide_ligand_efficiency_ln>  (370) 
-1.34832

>  <r_i_glide_gscore>  (370) 
-5.63334

>  <r_i_glide_lipo>  (370) 
-0.418314

>  <r_i_glide_hbond>  (370) 
-0.48

>  <r_i_glide_metal>  (370) 
-0

>  <r_i_glide_rewards>  (370) 
-1.5612

>  <r_i_glide_evdw>  (370) 
-21.3901

>  <r_i_glide_ecoul>  (370) 
-17.1566

>  <r_i_glide_erotb>  (370) 
0.480337

>  <r_i_glide_esite>  (370) 
-0.0111679

>  <r_i_glide_emodel>  (370) 
-54.3432

>  <r_i_glide_energy>  (370) 
-38.5467

>  <r_i_glide_einternal>  (370) 
6.21496

>  <r_i_glide_intrahb_reward>  (370) 
-0.5

>  <i_i_glide_confnum>  (370) 
3

>  <i_i_glide_posenum>  (370) 
28

>  <r_i_glide_eff_state_penalty>  (370) 
0

>  <ligand_id>  (370) 
118

>  <original_smiles>  (370) 
OCC1OC(OC2=CC3=CC(O)CC(O)C3CC2)C(O)C(O)C1O

>  <smiles>  (370) 
[H]OC([H])([H])C1([H])OC([H])(OC2=C([H])C3=C([H])C([H])(O[H])C([H])([H])C([H])(O[H])C3([H])C([H])([H])C2([H])[H])C([H])(O[H])C([H])(O[H])C1([H])O[H]

$$$$
118:0:1
     RDKit          3D

 48 50  0  0  1  0  0  0  0  0999 V2000
    1.0695   -4.3037   -1.5065 O   0  0  0  0  0  0  0  0  0  0  0  0
    1.8417   -3.4423   -2.3309 C   0  0  0  0  0  0  0  0  0  0  0  0
    3.0767   -2.8505   -1.6272 C   0  0  2  0  0  0  0  0  0  0  0  0
    2.7492   -2.5952   -0.2435 O   0  0  0  0  0  0  0  0  0  0  0  0
    3.8144   -2.1327    0.5662 C   0  0  1  0  0  0  0  0  0  0  0  0
    4.9014   -3.0551    0.6597 O   0  0  0  0  0  0  0  0  0  0  0  0
    4.5715   -4.3561    0.9623 C   0  0  0  0  0  0  0  0  0  0  0  0
    3.3932   -4.8112    1.4021 C   0  0  0  0  0  0  0  0  0  0  0  0
    3.1111   -6.1900    1.5982 C   0  0  0  0  0  0  0  0  0  0  0  0
    1.9355   -6.5287    2.1587 C   0  0  0  0  0  0  0  0  0  0  0  0
    1.4972   -7.9285    2.4599 C   0  0  1  0  0  0  0  0  0  0  0  0
    0.1445   -8.1062    2.0852 O   0  0  0  0  0  0  0  0  0  0  0  0
    2.3971   -8.9721    1.7647 C   0  0  0  0  0  0  0  0  0  0  0  0
    3.8837   -8.5661    1.8443 C   0  0  1  0  0  0  0  0  0  0  0  0
    4.6893   -9.5107    1.1799 O   0  0  0  0  0  0  0  0  0  0  0  0
    4.1419   -7.2209    1.1551 C   0  0  2  0  0  0  0  0  0  0  0  0
    5.5663   -6.6632    1.3810 C   0  0  0  0  0  0  0  0  0  0  0  0
    5.7661   -5.2866    0.7093 C   0  0  0  0  0  0  0  0  0  0  0  0
    4.2637   -0.7594    0.0485 C   0  0  1  0  0  0  0  0  0  0  0  0
    5.3053   -0.2354    0.8742 O   0  0  0  0  0  0  0  0  0  0  0  0
    4.6567   -0.8520   -1.4402 C   0  0  1  0  0  0  0  0  0  0  0  0
    5.8676   -1.5916   -1.5813 O   0  0  0  0  0  0  0  0  0  0  0  0
    3.5203   -1.5031   -2.2553 C   0  0  1  0  0  0  0  0  0  0  0  0
    3.8674   -1.6369   -3.6431 O   0  0  0  0  0  0  0  0  0  0  0  0
    0.4132   -4.6872   -2.1417 H   0  0  0  0  0  0  0  0  0  0  0  0
    2.1699   -3.9782   -3.2150 H   0  0  0  0  0  0  0  0  0  0  0  0
    1.1948   -2.6525   -2.6785 H   0  0  0  0  0  0  0  0  0  0  0  0
    3.8945   -3.5742   -1.6451 H   0  0  0  0  0  0  0  0  0  0  0  0
    3.4198   -2.0331    1.5912 H   0  0  0  0  0  0  0  0  0  0  0  0
    2.5334   -4.1656    1.6087 H   0  0  0  0  0  0  0  0  0  0  0  0
    1.2594   -5.7383    2.4503 H   0  0  0  0  0  0  0  0  0  0  0  0
    1.5756   -8.0345    3.5416 H   0  0  0  0  0  0  0  0  0  0  0  0
    0.1073   -8.7409    1.3865 H   0  0  0  0  0  0  0  0  0  0  0  0
    2.2315   -9.9490    2.2240 H   0  0  0  0  0  0  0  0  0  0  0  0
    2.1182   -9.0729    0.7160 H   0  0  0  0  0  0  0  0  0  0  0  0
    4.1740   -8.5013    2.8958 H   0  0  0  0  0  0  0  0  0  0  0  0
    4.3046  -10.3815    1.2245 H   0  0  0  0  0  0  0  0  0  0  0  0
    3.9973   -7.3348    0.0812 H   0  0  0  0  0  0  0  0  0  0  0  0
    5.7453   -6.5580    2.4495 H   0  0  0  0  0  0  0  0  0  0  0  0
    6.3175   -7.3638    1.0054 H   0  0  0  0  0  0  0  0  0  0  0  0
    5.8694   -5.4177   -0.3644 H   0  0  0  0  0  0  0  0  0  0  0  0
    6.6891   -4.8222    1.0515 H   0  0  0  0  0  0  0  0  0  0  0  0
    3.3861   -0.1165    0.1658 H   0  0  0  0  0  0  0  0  0  0  0  0
    5.5948    0.6080    0.4914 H   0  0  0  0  0  0  0  0  0  0  0  0
    4.7928    0.1458   -1.8496 H   0  0  0  0  0  0  0  0  0  0  0  0
    5.7018   -2.4860   -1.2379 H   0  0  0  0  0  0  0  0  0  0  0  0
    2.6657   -0.8273   -2.2066 H   0  0  0  0  0  0  0  0  0  0  0  0
    3.0949   -1.9702   -4.1297 H   0  0  0  0  0  0  0  0  0  0  0  0
  1  2  1  0
  1 25  1  0
  2  3  1  0
  2 26  1  0
  2 27  1  0
  3 23  1  0
  3  4  1  0
  3 28  1  1
  4  5  1  0
  5  6  1  0
  5 19  1  0
  5 29  1  1
  6  7  1  0
  7 18  1  0
  7  8  2  0
  8  9  1  0
  8 30  1  0
  9 16  1  0
  9 10  2  0
 10 11  1  0
 10 31  1  0
 11 12  1  0
 11 13  1  0
 11 32  1  1
 12 33  1  0
 13 14  1  0
 13 34  1  0
 13 35  1  0
 14 15  1  0
 14 16  1  0
 14 36  1  1
 15 37  1  0
 16 17  1  0
 16 38  1  6
 17 18  1  0
 17 39  1  0
 17 40  1  0
 18 41  1  0
 18 42  1  0
 19 20  1  0
 19 21  1  0
 19 43  1  6
 20 44  1  0
 21 22  1  0
 21 23  1  0
 21 45  1  6
 22 46  1  0
 23 24  1  0
 23 47  1  6
 24 48  1  0
M  END
>  <i_m_ct_stereo_status>  (371) 
1

>  <s_m_source_file>  (371) 
/var/tmp/pbs.5076255.sched01/tmpr9sv22dd/120oksnzf6p.sdf

>  <i_m_source_file_index>  (371) 
37

>  <i_lp_mmshare_version>  (371) 
48012

>  <i_f3d_flags>  (371) 
0

>  <s_epik_input>  (371) 
W09IXVtDSDJdW0NAQEhdMU9bQ0BIXShbQ0BASF0oW09IXSlbQ0BASF0oW09IXSlbQ0BIXTFbT0hdKU9DKD1bQ0hdMilbQ0gyXVtDSDJdW0NASF0oQzI9MylbQ0BIXShbT0hdKVtDSDJdW0NAQEhdKFtDSF0zKVtPSF0=

>  <s_epik_cmdline>  (371) 
J2VwaWtfcHl0aG9uJywgJy1waHQnLCAnMi4wJywgJy1waCcsICc3LjAnLCAnLXRuJywgJzgnLCAnLW1hJywgJzIwMCcsICctaW1hZScsICc8aW5maWxlLm1hZT4nLCAnLW9tYWUnLCAnPG91dGZpbGUubWFlPic=

>  <r_lp_tautomer_probability>  (371) 
1

>  <r_epik_Ionization_Penalty>  (371) 
3.85531e-06

>  <r_epik_Ionization_Penalty_Charging>  (371) 
0

>  <r_epik_Ionization_Penalty_Neutral>  (371) 
3.85531e-06

>  <r_epik_State_Penalty>  (371) 
-0

>  <r_epik_Charging_Adjusted_Penalty>  (371) 
0

>  <i_epik_Tot_Q>  (371) 
0

>  <i_epik_Tot_abs_Q>  (371) 
0

>  <s_epik_Chemistry_Notes>  (371) 
This compound contains an acetal/aminal-like group ( X-CH(R)-Y where X, Y are N, S, or O) that may be acid/base labile, releasing an aldehyde.

>  <s_lp_Force_Field>  (371) 
OPLS3e

>  <r_lp_Energy>  (371) 
24.0323

>  <b_lp_Chiralities_Consistent>  (371) 
1

>  <s_lp_Variant>  (371) 
118:0-1

>  <s_i_glide_gridfile>  (371) 
pfpi4k_grid

>  <i_i_glide_lignum>  (371) 
37

>  <i_i_glide_rotatable_bonds>  (371) 
9

>  <r_i_docking_score>  (371) 
-5.47979

>  <r_i_glide_ligand_efficiency>  (371) 
-0.228325

>  <r_i_glide_ligand_efficiency_sa>  (371) 
-0.658603

>  <r_i_glide_ligand_efficiency_ln>  (371) 
-1.31157

>  <r_i_glide_gscore>  (371) 
-5.47979

>  <r_i_glide_lipo>  (371) 
-0.523212

>  <r_i_glide_hbond>  (371) 
-0.46334

>  <r_i_glide_metal>  (371) 
-0

>  <r_i_glide_rewards>  (371) 
-1.5612

>  <r_i_glide_evdw>  (371) 
-20.614

>  <r_i_glide_ecoul>  (371) 
-15.7215

>  <r_i_glide_erotb>  (371) 
0.480337

>  <r_i_glide_esite>  (371) 
-0.0234494

>  <r_i_glide_emodel>  (371) 
-51.6454

>  <r_i_glide_energy>  (371) 
-36.3355

>  <r_i_glide_einternal>  (371) 
6.17286

>  <r_i_glide_intrahb_reward>  (371) 
-0.5

>  <i_i_glide_confnum>  (371) 
2

>  <i_i_glide_posenum>  (371) 
25

>  <r_i_glide_eff_state_penalty>  (371) 
0

>  <ligand_id>  (371) 
118

>  <original_smiles>  (371) 
OCC1OC(OC2=CC3=CC(O)CC(O)C3CC2)C(O)C(O)C1O

>  <smiles>  (371) 
[H]OC([H])([H])C1([H])OC([H])(OC2=C([H])C3=C([H])C([H])(O[H])C([H])([H])C([H])(O[H])C3([H])C([H])([H])C2([H])[H])C([H])(O[H])C([H])(O[H])C1([H])O[H]

$$$$
118:0:2
     RDKit          3D

 48 50  0  0  1  0  0  0  0  0999 V2000
    1.7718   -2.6673   -3.9276 O   0  0  0  0  0  0  0  0  0  0  0  0
    2.4590   -3.6209   -3.1359 C   0  0  0  0  0  0  0  0  0  0  0  0
    3.3729   -2.9903   -2.0696 C   0  0  2  0  0  0  0  0  0  0  0  0
    2.7005   -3.0487   -0.7963 O   0  0  0  0  0  0  0  0  0  0  0  0
    3.4965   -2.6175    0.3058 C   0  0  1  0  0  0  0  0  0  0  0  0
    4.6533   -3.3857    0.5009 O   0  0  0  0  0  0  0  0  0  0  0  0
    4.4878   -4.7143    0.8129 C   0  0  0  0  0  0  0  0  0  0  0  0
    3.3260   -5.2608    1.2244 C   0  0  0  0  0  0  0  0  0  0  0  0
    3.2202   -6.6734    1.5181 C   0  0  0  0  0  0  0  0  0  0  0  0
    2.1022   -7.1012    2.1130 C   0  0  0  0  0  0  0  0  0  0  0  0
    1.8115   -8.5317    2.4591 C   0  0  1  0  0  0  0  0  0  0  0  0
    0.4724   -8.8326    2.0908 O   0  0  0  0  0  0  0  0  0  0  0  0
    2.8028   -9.4965    1.7827 C   0  0  0  0  0  0  0  0  0  0  0  0
    4.2415   -8.9462    1.8470 C   0  0  1  0  0  0  0  0  0  0  0  0
    5.1439   -9.8583    1.2446 O   0  0  0  0  0  0  0  0  0  0  0  0
    4.3536   -7.5989    1.1112 C   0  0  2  0  0  0  0  0  0  0  0  0
    5.7130   -6.8945    1.3324 C   0  0  0  0  0  0  0  0  0  0  0  0
    5.7644   -5.5202    0.6317 C   0  0  0  0  0  0  0  0  0  0  0  0
    3.8440   -1.1234    0.1228 C   0  0  1  0  0  0  0  0  0  0  0  0
    4.5544   -0.6601    1.2522 O   0  0  0  0  0  0  0  0  0  0  0  0
    4.5901   -0.9145   -1.2128 C   0  0  1  0  0  0  0  0  0  0  0  0
    5.8788   -1.4794   -1.1814 O   0  0  0  0  0  0  0  0  0  0  0  0
    3.7480   -1.5124   -2.3552 C   0  0  1  0  0  0  0  0  0  0  0  0
    4.3544   -1.3461   -3.6245 O   0  0  0  0  0  0  0  0  0  0  0  0
    1.2201   -3.1443   -4.5565 H   0  0  0  0  0  0  0  0  0  0  0  0
    1.7268   -4.2596   -2.6439 H   0  0  0  0  0  0  0  0  0  0  0  0
    3.0521   -4.2520   -3.8109 H   0  0  0  0  0  0  0  0  0  0  0  0
    4.2661   -3.6114   -1.9998 H   0  0  0  0  0  0  0  0  0  0  0  0
    2.8931   -2.7013    1.2116 H   0  0  0  0  0  0  0  0  0  0  0  0
    2.4185   -4.6795    1.3604 H   0  0  0  0  0  0  0  0  0  0  0  0
    1.3450   -6.3850    2.3813 H   0  0  0  0  0  0  0  0  0  0  0  0
    1.8990   -8.5995    3.5432 H   0  0  0  0  0  0  0  0  0  0  0  0
    0.4415   -9.1518    1.2004 H   0  0  0  0  0  0  0  0  0  0  0  0
    2.7385  -10.4737    2.2644 H   0  0  0  0  0  0  0  0  0  0  0  0
    2.5310   -9.6380    0.7345 H   0  0  0  0  0  0  0  0  0  0  0  0
    4.5251   -8.8117    2.8975 H   0  0  0  0  0  0  0  0  0  0  0  0
    4.6494  -10.6006    0.9024 H   0  0  0  0  0  0  0  0  0  0  0  0
    4.2191   -7.7710    0.0394 H   0  0  0  0  0  0  0  0  0  0  0  0
    5.8775   -6.7458    2.3995 H   0  0  0  0  0  0  0  0  0  0  0  0
    6.5352   -7.5267    0.9816 H   0  0  0  0  0  0  0  0  0  0  0  0
    5.8884   -5.6742   -0.4385 H   0  0  0  0  0  0  0  0  0  0  0  0
    6.6453   -4.9536    0.9571 H   0  0  0  0  0  0  0  0  0  0  0  0
    2.8774   -0.6032    0.0867 H   0  0  0  0  0  0  0  0  0  0  0  0
    4.7029    0.2834    1.1720 H   0  0  0  0  0  0  0  0  0  0  0  0
    4.6394    0.1449   -1.4110 H   0  0  0  0  0  0  0  0  0  0  0  0
    5.7752   -2.4122   -0.9547 H   0  0  0  0  0  0  0  0  0  0  0  0
    2.8278   -0.9317   -2.3537 H   0  0  0  0  0  0  0  0  0  0  0  0
    3.7111   -1.6590   -4.2644 H   0  0  0  0  0  0  0  0  0  0  0  0
  1  2  1  0
  1 25  1  0
  2  3  1  0
  2 26  1  0
  2 27  1  0
  3 23  1  0
  3  4  1  0
  3 28  1  1
  4  5  1  0
  5  6  1  0
  5 19  1  0
  5 29  1  1
  6  7  1  0
  7 18  1  0
  7  8  2  0
  8  9  1  0
  8 30  1  0
  9 16  1  0
  9 10  2  0
 10 11  1  0
 10 31  1  0
 11 12  1  0
 11 13  1  0
 11 32  1  1
 12 33  1  0
 13 14  1  0
 13 34  1  0
 13 35  1  0
 14 15  1  0
 14 16  1  0
 14 36  1  1
 15 37  1  0
 16 17  1  0
 16 38  1  6
 17 18  1  0
 17 39  1  0
 17 40  1  0
 18 41  1  0
 18 42  1  0
 19 20  1  0
 19 21  1  0
 19 43  1  6
 20 44  1  0
 21 22  1  0
 21 23  1  0
 21 45  1  6
 22 46  1  0
 23 24  1  0
 23 47  1  6
 24 48  1  0
M  END
>  <i_m_ct_stereo_status>  (372) 
1

>  <s_m_source_file>  (372) 
/var/tmp/pbs.5076255.sched01/tmpr9sv22dd/120oksnzf6p.sdf

>  <i_m_source_file_index>  (372) 
37

>  <i_lp_mmshare_version>  (372) 
48012

>  <i_f3d_flags>  (372) 
0

>  <s_epik_input>  (372) 
W09IXVtDSDJdW0NAQEhdMU9bQ0BIXShbQ0BASF0oW09IXSlbQ0BASF0oW09IXSlbQ0BIXTFbT0hdKU9DKD1bQ0hdMilbQ0gyXVtDSDJdW0NASF0oQzI9MylbQ0BIXShbT0hdKVtDSDJdW0NAQEhdKFtDSF0zKVtPSF0=

>  <s_epik_cmdline>  (372) 
J2VwaWtfcHl0aG9uJywgJy1waHQnLCAnMi4wJywgJy1waCcsICc3LjAnLCAnLXRuJywgJzgnLCAnLW1hJywgJzIwMCcsICctaW1hZScsICc8aW5maWxlLm1hZT4nLCAnLW9tYWUnLCAnPG91dGZpbGUubWFlPic=

>  <r_lp_tautomer_probability>  (372) 
1

>  <r_epik_Ionization_Penalty>  (372) 
3.85531e-06

>  <r_epik_Ionization_Penalty_Charging>  (372) 
0

>  <r_epik_Ionization_Penalty_Neutral>  (372) 
3.85531e-06

>  <r_epik_State_Penalty>  (372) 
-0

>  <r_epik_Charging_Adjusted_Penalty>  (372) 
0

>  <i_epik_Tot_Q>  (372) 
0

>  <i_epik_Tot_abs_Q>  (372) 
0

>  <s_epik_Chemistry_Notes>  (372) 
This compound contains an acetal/aminal-like group ( X-CH(R)-Y where X, Y are N, S, or O) that may be acid/base labile, releasing an aldehyde.

>  <s_lp_Force_Field>  (372) 
OPLS3e

>  <r_lp_Energy>  (372) 
24.0323

>  <b_lp_Chiralities_Consistent>  (372) 
1

>  <s_lp_Variant>  (372) 
118:0-1

>  <s_i_glide_gridfile>  (372) 
pfpi4k_grid

>  <i_i_glide_lignum>  (372) 
37

>  <i_i_glide_rotatable_bonds>  (372) 
9

>  <r_i_docking_score>  (372) 
-5.14018

>  <r_i_glide_ligand_efficiency>  (372) 
-0.214174

>  <r_i_glide_ligand_efficiency_sa>  (372) 
-0.617785

>  <r_i_glide_ligand_efficiency_ln>  (372) 
-1.23028

>  <r_i_glide_gscore>  (372) 
-5.14018

>  <r_i_glide_lipo>  (372) 
-0.494327

>  <r_i_glide_hbond>  (372) 
-0.450117

>  <r_i_glide_metal>  (372) 
-0

>  <r_i_glide_rewards>  (372) 
-1.5612

>  <r_i_glide_evdw>  (372) 
-20.6619

>  <r_i_glide_ecoul>  (372) 
-13.6953

>  <r_i_glide_erotb>  (372) 
0.480337

>  <r_i_glide_esite>  (372) 
-0.0274727

>  <r_i_glide_emodel>  (372) 
-48.3525

>  <r_i_glide_energy>  (372) 
-34.3573

>  <r_i_glide_einternal>  (372) 
7.75473

>  <r_i_glide_intrahb_reward>  (372) 
-0.5

>  <i_i_glide_confnum>  (372) 
3

>  <i_i_glide_posenum>  (372) 
1

>  <r_i_glide_eff_state_penalty>  (372) 
0

>  <ligand_id>  (372) 
118

>  <original_smiles>  (372) 
OCC1OC(OC2=CC3=CC(O)CC(O)C3CC2)C(O)C(O)C1O

>  <smiles>  (372) 
[H]OC([H])([H])C1([H])OC([H])(OC2=C([H])C3=C([H])C([H])(O[H])C([H])([H])C([H])(O[H])C3([H])C([H])([H])C2([H])[H])C([H])(O[H])C([H])(O[H])C1([H])O[H]

$$$$
119:0:0
     RDKit          3D

 53 56  0  0  1  0  0  0  0  0999 V2000
    6.3700   -6.3360    2.0297 C   0  0  0  0  0  0  0  0  0  0  0  0
    6.1532   -5.2857    0.9310 C   0  0  2  0  0  0  0  0  0  0  0  0
    7.2849   -4.2671    0.8975 C   0  0  0  0  0  0  0  0  0  0  0  0
    8.4801   -4.5578    0.8209 O   0  0  0  0  0  0  0  0  0  0  0  0
    6.7610   -2.8431    0.9249 C   0  0  1  0  0  0  0  0  0  0  0  0
    7.0030   -2.1208   -0.4059 C   0  0  0  0  0  0  0  0  0  0  0  0
    6.4338   -2.7808   -1.6682 C   0  0  0  0  0  0  0  0  0  0  0  0
    4.8953   -2.7556   -1.8119 C   0  0  1  0  0  0  0  0  0  0  0  0
    4.5784   -2.5085   -3.3040 C   0  0  0  0  0  0  0  0  0  0  0  0
    4.2430   -4.1288   -1.4711 C   0  0  0  0  0  0  0  0  0  0  0  0
    3.8821   -4.6249   -0.0501 C   0  0  0  0  0  0  0  0  0  0  0  0
    4.8650   -4.4411    1.1126 C   0  0  2  0  0  0  0  0  0  0  0  0
    5.3057   -2.9843    1.4195 C   0  0  1  0  0  0  0  0  0  0  0  0
    5.4266   -2.9177    2.8282 O   0  0  0  0  0  0  0  0  0  0  0  0
    4.0558   -2.6636    3.3583 O   0  0  0  0  0  0  0  0  0  0  0  0
    3.4990   -1.6587    2.5356 C   0  0  1  0  0  0  0  0  0  0  0  0
    2.0337   -2.1190    2.3986 C   0  0  0  0  0  0  0  0  0  0  0  0
    3.6081   -0.2837    3.2711 C   0  0  0  0  0  0  0  0  0  0  0  0
    3.0299    0.8945    2.4639 C   0  0  0  0  0  0  0  0  0  0  0  0
    5.0304    0.0599    3.7733 C   0  0  0  0  0  0  0  0  0  0  0  0
    4.3527   -1.7695    1.2364 C   0  0  2  0  0  0  0  0  0  0  0  0
    3.5603   -1.6030   -0.0824 C   0  0  0  0  0  0  0  0  0  0  0  0
    4.3771   -1.5555   -1.2394 O   0  0  0  0  0  0  0  0  0  0  0  0
    7.2876   -6.8990    1.8590 H   0  0  0  0  0  0  0  0  0  0  0  0
    5.5488   -7.0536    2.0550 H   0  0  0  0  0  0  0  0  0  0  0  0
    6.4404   -5.8741    3.0146 H   0  0  0  0  0  0  0  0  0  0  0  0
    6.1389   -5.7882   -0.0370 H   0  0  0  0  0  0  0  0  0  0  0  0
    7.3179   -2.2978    1.6814 H   0  0  0  0  0  0  0  0  0  0  0  0
    6.6680   -1.0885   -0.3306 H   0  0  0  0  0  0  0  0  0  0  0  0
    8.0810   -2.0537   -0.5397 H   0  0  0  0  0  0  0  0  0  0  0  0
    6.8824   -2.2594   -2.5081 H   0  0  0  0  0  0  0  0  0  0  0  0
    6.8100   -3.7955   -1.7851 H   0  0  0  0  0  0  0  0  0  0  0  0
    4.9558   -3.3121   -3.9369 H   0  0  0  0  0  0  0  0  0  0  0  0
    5.0069   -1.5681   -3.6572 H   0  0  0  0  0  0  0  0  0  0  0  0
    3.5048   -2.4283   -3.4757 H   0  0  0  0  0  0  0  0  0  0  0  0
    3.2901   -4.1528   -1.9928 H   0  0  0  0  0  0  0  0  0  0  0  0
    4.8531   -4.9036   -1.9380 H   0  0  0  0  0  0  0  0  0  0  0  0
    2.9097   -4.2456    0.2475 H   0  0  0  0  0  0  0  0  0  0  0  0
    3.6939   -5.6963   -0.1403 H   0  0  0  0  0  0  0  0  0  0  0  0
    4.3351   -4.8203    1.9906 H   0  0  0  0  0  0  0  0  0  0  0  0
    1.4411   -1.4525    1.7735 H   0  0  0  0  0  0  0  0  0  0  0  0
    1.5564   -2.1650    3.3784 H   0  0  0  0  0  0  0  0  0  0  0  0
    1.9754   -3.1195    1.9728 H   0  0  0  0  0  0  0  0  0  0  0  0
    2.9922   -0.3677    4.1670 H   0  0  0  0  0  0  0  0  0  0  0  0
    3.6103    1.0832    1.5638 H   0  0  0  0  0  0  0  0  0  0  0  0
    3.0417    1.8101    3.0536 H   0  0  0  0  0  0  0  0  0  0  0  0
    1.9957    0.7312    2.1629 H   0  0  0  0  0  0  0  0  0  0  0  0
    5.7567    0.1368    2.9641 H   0  0  0  0  0  0  0  0  0  0  0  0
    5.3887   -0.6922    4.4755 H   0  0  0  0  0  0  0  0  0  0  0  0
    5.0315    1.0158    4.2986 H   0  0  0  0  0  0  0  0  0  0  0  0
    5.0195   -0.9081    1.2304 H   0  0  0  0  0  0  0  0  0  0  0  0
    2.7136   -2.2673   -0.2230 H   0  0  0  0  0  0  0  0  0  0  0  0
    3.0936   -0.6234   -0.0320 H   0  0  0  0  0  0  0  0  0  0  0  0
  1  2  1  0
  1 24  1  0
  1 25  1  0
  1 26  1  0
  2 12  1  0
  2  3  1  0
  2 27  1  6
  3  4  2  0
  3  5  1  0
  5 13  1  0
  5  6  1  0
  5 28  1  1
  6  7  1  0
  6 29  1  0
  6 30  1  0
  7  8  1  0
  7 31  1  0
  7 32  1  0
  8 23  1  0
  8  9  1  6
  8 10  1  0
  9 33  1  0
  9 34  1  0
  9 35  1  0
 10 11  1  0
 10 36  1  0
 10 37  1  0
 11 12  1  0
 11 38  1  0
 11 39  1  0
 12 13  1  0
 12 40  1  1
 13 21  1  0
 13 14  1  1
 14 15  1  0
 15 16  1  0
 16 17  1  6
 16 18  1  0
 16 21  1  0
 17 41  1  0
 17 42  1  0
 17 43  1  0
 18 19  1  0
 18 20  1  0
 18 44  1  0
 19 45  1  0
 19 46  1  0
 19 47  1  0
 20 48  1  0
 20 49  1  0
 20 50  1  0
 21 22  1  0
 21 51  1  1
 22 23  1  0
 22 52  1  0
 22 53  1  0
M  END
>  <i_m_ct_stereo_status>  (373) 
1

>  <s_m_source_file>  (373) 
/var/tmp/pbs.5076255.sched01/tmpr9sv22dd/120oksnzf6p.sdf

>  <i_m_source_file_index>  (373) 
38

>  <i_lp_mmshare_version>  (373) 
48012

>  <i_f3d_flags>  (373) 
0

>  <s_epik_input>  (373) 
W0NAXTEyM1tDQEhdNEMoPU8pW0NAQEhdKFtDSDNdKVtDQEBIXTFbQ0gyXVtDSDJdW0NAXShbQ0gzXSkoW0NIMl1bQ0gyXTQpT1tDSDJdW0NASF0zW0NAXShPTzIpKFtDSDNdKVtDSF0oW0NIM10pW0NIM10=

>  <s_epik_cmdline>  (373) 
J2VwaWtfcHl0aG9uJywgJy1waHQnLCAnMi4wJywgJy1waCcsICc3LjAnLCAnLXRuJywgJzgnLCAnLW1hJywgJzIwMCcsICctaW1hZScsICc8aW5maWxlLm1hZT4nLCAnLW9tYWUnLCAnPG91dGZpbGUubWFlPic=

>  <r_lp_tautomer_probability>  (373) 
1

>  <r_epik_Ionization_Penalty>  (373) 
1.0808e-11

>  <r_epik_Ionization_Penalty_Charging>  (373) 
0

>  <r_epik_Ionization_Penalty_Neutral>  (373) 
1.0808e-11

>  <r_epik_State_Penalty>  (373) 
-0

>  <r_epik_Charging_Adjusted_Penalty>  (373) 
0

>  <i_epik_Tot_Q>  (373) 
0

>  <i_epik_Tot_abs_Q>  (373) 
0

>  <s_lp_Force_Field>  (373) 
OPLS3e

>  <r_lp_Energy>  (373) 
36.5506

>  <b_lp_Chiralities_Consistent>  (373) 
1

>  <s_lp_Variant>  (373) 
119:0-1

>  <s_i_glide_gridfile>  (373) 
pfpi4k_grid

>  <i_i_glide_lignum>  (373) 
38

>  <i_i_glide_rotatable_bonds>  (373) 
1

>  <r_i_docking_score>  (373) 
-3.15921

>  <r_i_glide_ligand_efficiency>  (373) 
-0.137357

>  <r_i_glide_ligand_efficiency_sa>  (373) 
-0.390626

>  <r_i_glide_ligand_efficiency_ln>  (373) 
-0.763927

>  <r_i_glide_gscore>  (373) 
-3.15921

>  <r_i_glide_lipo>  (373) 
-0.569846

>  <r_i_glide_hbond>  (373) 
0

>  <r_i_glide_metal>  (373) 
-0

>  <r_i_glide_rewards>  (373) 
-1.38951

>  <r_i_glide_evdw>  (373) 
-19.4844

>  <r_i_glide_ecoul>  (373) 
-1.50424

>  <r_i_glide_erotb>  (373) 
0

>  <r_i_glide_esite>  (373) 
0

>  <r_i_glide_emodel>  (373) 
-25.0509

>  <r_i_glide_energy>  (373) 
-20.9887

>  <r_i_glide_einternal>  (373) 
0.856657

>  <r_i_glide_intrahb_reward>  (373) 
-0

>  <i_i_glide_confnum>  (373) 
2

>  <i_i_glide_posenum>  (373) 
39

>  <r_i_glide_eff_state_penalty>  (373) 
0

>  <ligand_id>  (373) 
119

>  <original_smiles>  (373) 
CC1C(=O)C2CCC3(C)CCC1C21OOC(C)(C(C)C)C1CO3

>  <smiles>  (373) 
[H]C([H])([H])C1([H])C(=O)C2([H])C([H])([H])C([H])([H])C3(C([H])([H])[H])OC([H])([H])C4([H])C(C([H])([H])[H])(C([H])(C([H])([H])[H])C([H])([H])[H])OOC24C1([H])C([H])([H])C3([H])[H]

$$$$
119:0:1
     RDKit          3D

 53 56  0  0  1  0  0  0  0  0999 V2000
    6.5132   -5.9739    2.2392 C   0  0  0  0  0  0  0  0  0  0  0  0
    6.1863   -5.0098    1.0878 C   0  0  2  0  0  0  0  0  0  0  0  0
    7.2937   -3.9885    0.8777 C   0  0  0  0  0  0  0  0  0  0  0  0
    8.4826   -4.2708    0.7243 O   0  0  0  0  0  0  0  0  0  0  0  0
    6.7524   -2.5678    0.8405 C   0  0  1  0  0  0  0  0  0  0  0  0
    6.8595   -1.9622   -0.5586 C   0  0  0  0  0  0  0  0  0  0  0  0
    6.1974   -2.7290   -1.7111 C   0  0  0  0  0  0  0  0  0  0  0  0
    4.6530   -2.7254   -1.7220 C   0  0  1  0  0  0  0  0  0  0  0  0
    4.2105   -2.5918   -3.1995 C   0  0  0  0  0  0  0  0  0  0  0  0
    4.0510   -4.0765   -1.2199 C   0  0  0  0  0  0  0  0  0  0  0  0
    3.8264   -4.4569    0.2612 C   0  0  0  0  0  0  0  0  0  0  0  0
    4.9059   -4.1674    1.3159 C   0  0  2  0  0  0  0  0  0  0  0  0
    5.3489   -2.6837    1.4720 C   0  0  1  0  0  0  0  0  0  0  0  0
    5.6004   -2.4867    2.8473 O   0  0  0  0  0  0  0  0  0  0  0  0
    4.2745   -2.2419    3.4826 O   0  0  0  0  0  0  0  0  0  0  0  0
    3.5980   -1.3152    2.6552 C   0  0  1  0  0  0  0  0  0  0  0  0
    2.1379   -1.8072    2.6597 C   0  0  0  0  0  0  0  0  0  0  0  0
    3.7596    0.1211    3.2572 C   0  0  0  0  0  0  0  0  0  0  0  0
    3.3645    0.2219    4.7424 C   0  0  0  0  0  0  0  0  0  0  0  0
    3.0174    1.2108    2.4573 C   0  0  0  0  0  0  0  0  0  0  0  0
    4.3580   -1.4980    1.2990 C   0  0  2  0  0  0  0  0  0  0  0  0
    3.4661   -1.4433    0.0366 C   0  0  0  0  0  0  0  0  0  0  0  0
    4.1778   -1.4864   -1.1902 O   0  0  0  0  0  0  0  0  0  0  0  0
    7.4229   -6.5366    2.0329 H   0  0  0  0  0  0  0  0  0  0  0  0
    5.7111   -6.6963    2.3888 H   0  0  0  0  0  0  0  0  0  0  0  0
    6.6590   -5.4375    3.1759 H   0  0  0  0  0  0  0  0  0  0  0  0
    6.0998   -5.5843    0.1656 H   0  0  0  0  0  0  0  0  0  0  0  0
    7.3730   -1.9471    1.4804 H   0  0  0  0  0  0  0  0  0  0  0  0
    6.5029   -0.9360   -0.5341 H   0  0  0  0  0  0  0  0  0  0  0  0
    7.9216   -1.8913   -0.7861 H   0  0  0  0  0  0  0  0  0  0  0  0
    6.5550   -2.2626   -2.6277 H   0  0  0  0  0  0  0  0  0  0  0  0
    6.5830   -3.7421   -1.7893 H   0  0  0  0  0  0  0  0  0  0  0  0
    4.5423   -3.4385   -3.8033 H   0  0  0  0  0  0  0  0  0  0  0  0
    4.6053   -1.6825   -3.6561 H   0  0  0  0  0  0  0  0  0  0  0  0
    3.1229   -2.5344   -3.2845 H   0  0  0  0  0  0  0  0  0  0  0  0
    3.0586   -4.1681   -1.6563 H   0  0  0  0  0  0  0  0  0  0  0  0
    4.6345   -4.8774   -1.6735 H   0  0  0  0  0  0  0  0  0  0  0  0
    2.8759   -4.0680    0.6122 H   0  0  0  0  0  0  0  0  0  0  0  0
    3.6528   -5.5341    0.2717 H   0  0  0  0  0  0  0  0  0  0  0  0
    4.4621   -4.4783    2.2656 H   0  0  0  0  0  0  0  0  0  0  0  0
    1.4923   -1.1914    2.0364 H   0  0  0  0  0  0  0  0  0  0  0  0
    1.7318   -1.7952    3.6688 H   0  0  0  0  0  0  0  0  0  0  0  0
    2.0661   -2.8331    2.3069 H   0  0  0  0  0  0  0  0  0  0  0  0
    4.8227    0.3695    3.2274 H   0  0  0  0  0  0  0  0  0  0  0  0
    2.2969    0.0695    4.8952 H   0  0  0  0  0  0  0  0  0  0  0  0
    3.6027    1.2123    5.1295 H   0  0  0  0  0  0  0  0  0  0  0  0
    3.9052   -0.4992    5.3542 H   0  0  0  0  0  0  0  0  0  0  0  0
    1.9383    1.0417    2.4219 H   0  0  0  0  0  0  0  0  0  0  0  0
    3.3807    1.2797    1.4343 H   0  0  0  0  0  0  0  0  0  0  0  0
    3.1646    2.1921    2.9072 H   0  0  0  0  0  0  0  0  0  0  0  0
    5.0078   -0.6261    1.2049 H   0  0  0  0  0  0  0  0  0  0  0  0
    2.6272   -2.1291    0.0204 H   0  0  0  0  0  0  0  0  0  0  0  0
    2.9907   -0.4681    0.0561 H   0  0  0  0  0  0  0  0  0  0  0  0
  1  2  1  0
  1 24  1  0
  1 25  1  0
  1 26  1  0
  2 12  1  0
  2  3  1  0
  2 27  1  6
  3  4  2  0
  3  5  1  0
  5 13  1  0
  5  6  1  0
  5 28  1  1
  6  7  1  0
  6 29  1  0
  6 30  1  0
  7  8  1  0
  7 31  1  0
  7 32  1  0
  8 23  1  0
  8  9  1  6
  8 10  1  0
  9 33  1  0
  9 34  1  0
  9 35  1  0
 10 11  1  0
 10 36  1  0
 10 37  1  0
 11 12  1  0
 11 38  1  0
 11 39  1  0
 12 13  1  0
 12 40  1  1
 13 21  1  0
 13 14  1  1
 14 15  1  0
 15 16  1  0
 16 17  1  6
 16 18  1  0
 16 21  1  0
 17 41  1  0
 17 42  1  0
 17 43  1  0
 18 19  1  0
 18 20  1  0
 18 44  1  0
 19 45  1  0
 19 46  1  0
 19 47  1  0
 20 48  1  0
 20 49  1  0
 20 50  1  0
 21 22  1  0
 21 51  1  6
 22 23  1  0
 22 52  1  0
 22 53  1  0
M  END
>  <i_m_ct_stereo_status>  (374) 
1

>  <s_m_source_file>  (374) 
/var/tmp/pbs.5076255.sched01/tmpr9sv22dd/120oksnzf6p.sdf

>  <i_m_source_file_index>  (374) 
38

>  <i_lp_mmshare_version>  (374) 
48012

>  <i_f3d_flags>  (374) 
0

>  <s_epik_input>  (374) 
W0NAXTEyM1tDQEhdNEMoPU8pW0NAQEhdKFtDSDNdKVtDQEBIXTFbQ0gyXVtDSDJdW0NAXShbQ0gzXSkoW0NIMl1bQ0gyXTQpT1tDSDJdW0NASF0zW0NAXShPTzIpKFtDSDNdKVtDSF0oW0NIM10pW0NIM10=

>  <s_epik_cmdline>  (374) 
J2VwaWtfcHl0aG9uJywgJy1waHQnLCAnMi4wJywgJy1waCcsICc3LjAnLCAnLXRuJywgJzgnLCAnLW1hJywgJzIwMCcsICctaW1hZScsICc8aW5maWxlLm1hZT4nLCAnLW9tYWUnLCAnPG91dGZpbGUubWFlPic=

>  <r_lp_tautomer_probability>  (374) 
1

>  <r_epik_Ionization_Penalty>  (374) 
1.0808e-11

>  <r_epik_Ionization_Penalty_Charging>  (374) 
0

>  <r_epik_Ionization_Penalty_Neutral>  (374) 
1.0808e-11

>  <r_epik_State_Penalty>  (374) 
-0

>  <r_epik_Charging_Adjusted_Penalty>  (374) 
0

>  <i_epik_Tot_Q>  (374) 
0

>  <i_epik_Tot_abs_Q>  (374) 
0

>  <s_lp_Force_Field>  (374) 
OPLS3e

>  <r_lp_Energy>  (374) 
36.5506

>  <b_lp_Chiralities_Consistent>  (374) 
1

>  <s_lp_Variant>  (374) 
119:0-1

>  <s_i_glide_gridfile>  (374) 
pfpi4k_grid

>  <i_i_glide_lignum>  (374) 
38

>  <i_i_glide_rotatable_bonds>  (374) 
1

>  <r_i_docking_score>  (374) 
-2.95323

>  <r_i_glide_ligand_efficiency>  (374) 
-0.128401

>  <r_i_glide_ligand_efficiency_sa>  (374) 
-0.365156

>  <r_i_glide_ligand_efficiency_ln>  (374) 
-0.714117

>  <r_i_glide_gscore>  (374) 
-2.95323

>  <r_i_glide_lipo>  (374) 
-0.437174

>  <r_i_glide_hbond>  (374) 
0

>  <r_i_glide_metal>  (374) 
-0

>  <r_i_glide_rewards>  (374) 
-1.37308

>  <r_i_glide_evdw>  (374) 
-18.7473

>  <r_i_glide_ecoul>  (374) 
-1.3707

>  <r_i_glide_erotb>  (374) 
0

>  <r_i_glide_esite>  (374) 
0

>  <r_i_glide_emodel>  (374) 
-24.2145

>  <r_i_glide_energy>  (374) 
-20.118

>  <r_i_glide_einternal>  (374) 
0.144014

>  <r_i_glide_intrahb_reward>  (374) 
-0

>  <i_i_glide_confnum>  (374) 
2

>  <i_i_glide_posenum>  (374) 
2

>  <r_i_glide_eff_state_penalty>  (374) 
0

>  <ligand_id>  (374) 
119

>  <original_smiles>  (374) 
CC1C(=O)C2CCC3(C)CCC1C21OOC(C)(C(C)C)C1CO3

>  <smiles>  (374) 
[H]C([H])([H])C1([H])C(=O)C2([H])C([H])([H])C([H])([H])C3(C([H])([H])[H])OC([H])([H])C4([H])C(C([H])([H])[H])(C([H])(C([H])([H])[H])C([H])([H])[H])OOC24C1([H])C([H])([H])C3([H])[H]

$$$$
119:0:2
     RDKit          3D

 53 56  0  0  1  0  0  0  0  0999 V2000
   -3.1386    2.9513    6.3131 C   0  0  0  0  0  0  0  0  0  0  0  0
   -1.9593    2.2145    5.6639 C   0  0  2  0  0  0  0  0  0  0  0  0
   -1.0122    1.6584    6.7082 C   0  0  0  0  0  0  0  0  0  0  0  0
   -1.3737    0.9397    7.6332 O   0  0  0  0  0  0  0  0  0  0  0  0
    0.4313    2.0510    6.4409 C   0  0  1  0  0  0  0  0  0  0  0  0
    1.2767    0.8415    6.0064 C   0  0  0  0  0  0  0  0  0  0  0  0
    0.7822    0.0350    4.7951 C   0  0  0  0  0  0  0  0  0  0  0  0
    0.8941    0.7216    3.4130 C   0  0  1  0  0  0  0  0  0  0  0  0
    1.3455   -0.3587    2.4039 C   0  0  0  0  0  0  0  0  0  0  0  0
   -0.4827    1.2476    2.8825 C   0  0  0  0  0  0  0  0  0  0  0  0
   -1.0985    2.6110    3.2862 C   0  0  0  0  0  0  0  0  0  0  0  0
   -1.0778    3.0984    4.7490 C   0  0  2  0  0  0  0  0  0  0  0  0
    0.3073    3.2309    5.4475 C   0  0  1  0  0  0  0  0  0  0  0  0
    0.2100    4.3546    6.2994 O   0  0  0  0  0  0  0  0  0  0  0  0
    0.4539    5.5538    5.4390 O   0  0  0  0  0  0  0  0  0  0  0  0
    1.5656    5.2389    4.6208 C   0  0  1  0  0  0  0  0  0  0  0  0
    1.1979    5.8405    3.2550 C   0  0  0  0  0  0  0  0  0  0  0  0
    2.8497    5.8857    5.2399 C   0  0  0  0  0  0  0  0  0  0  0  0
    2.7677    7.4178    5.3998 C   0  0  0  0  0  0  0  0  0  0  0  0
    4.1442    5.5268    4.4852 C   0  0  0  0  0  0  0  0  0  0  0  0
    1.5789    3.6771    4.6721 C   0  0  2  0  0  0  0  0  0  0  0  0
    1.9309    2.9784    3.3296 C   0  0  0  0  0  0  0  0  0  0  0  0
    2.0478    1.5667    3.4052 O   0  0  0  0  0  0  0  0  0  0  0  0
   -3.7180    2.2899    6.9561 H   0  0  0  0  0  0  0  0  0  0  0  0
   -3.8133    3.3410    5.5562 H   0  0  0  0  0  0  0  0  0  0  0  0
   -2.7976    3.7822    6.9268 H   0  0  0  0  0  0  0  0  0  0  0  0
   -2.3386    1.3637    5.0970 H   0  0  0  0  0  0  0  0  0  0  0  0
    0.8566    2.4267    7.3737 H   0  0  0  0  0  0  0  0  0  0  0  0
    2.3145    1.1344    5.8621 H   0  0  0  0  0  0  0  0  0  0  0  0
    1.3082    0.1595    6.8531 H   0  0  0  0  0  0  0  0  0  0  0  0
    1.4004   -0.8619    4.7891 H   0  0  0  0  0  0  0  0  0  0  0  0
   -0.2252   -0.3465    4.9539 H   0  0  0  0  0  0  0  0  0  0  0  0
    0.6156   -1.1619    2.3071 H   0  0  0  0  0  0  0  0  0  0  0  0
    2.2901   -0.8185    2.6966 H   0  0  0  0  0  0  0  0  0  0  0  0
    1.4969    0.0651    1.4090 H   0  0  0  0  0  0  0  0  0  0  0  0
   -0.4322    1.2805    1.7924 H   0  0  0  0  0  0  0  0  0  0  0  0
   -1.2282    0.4781    3.0838 H   0  0  0  0  0  0  0  0  0  0  0  0
   -0.7027    3.3929    2.6516 H   0  0  0  0  0  0  0  0  0  0  0  0
   -2.1438    2.5708    2.9745 H   0  0  0  0  0  0  0  0  0  0  0  0
   -1.5210    4.0948    4.7154 H   0  0  0  0  0  0  0  0  0  0  0  0
    1.9631    5.6664    2.4988 H   0  0  0  0  0  0  0  0  0  0  0  0
    1.0567    6.9174    3.3351 H   0  0  0  0  0  0  0  0  0  0  0  0
    0.2612    5.4313    2.8798 H   0  0  0  0  0  0  0  0  0  0  0  0
    2.9540    5.4826    6.2499 H   0  0  0  0  0  0  0  0  0  0  0  0
    2.7500    7.9320    4.4383 H   0  0  0  0  0  0  0  0  0  0  0  0
    3.6371    7.7919    5.9395 H   0  0  0  0  0  0  0  0  0  0  0  0
    1.8832    7.7138    5.9611 H   0  0  0  0  0  0  0  0  0  0  0  0
    4.1245    5.8657    3.4492 H   0  0  0  0  0  0  0  0  0  0  0  0
    4.3189    4.4532    4.4867 H   0  0  0  0  0  0  0  0  0  0  0  0
    5.0112    5.9885    4.9555 H   0  0  0  0  0  0  0  0  0  0  0  0
    2.3960    3.4115    5.3446 H   0  0  0  0  0  0  0  0  0  0  0  0
    1.3277    3.2666    2.4774 H   0  0  0  0  0  0  0  0  0  0  0  0
    2.9263    3.3172    3.0447 H   0  0  0  0  0  0  0  0  0  0  0  0
  1  2  1  0
  1 24  1  0
  1 25  1  0
  1 26  1  0
  2 12  1  0
  2  3  1  0
  2 27  1  6
  3  4  2  0
  3  5  1  0
  5 13  1  0
  5  6  1  0
  5 28  1  1
  6  7  1  0
  6 29  1  0
  6 30  1  0
  7  8  1  0
  7 31  1  0
  7 32  1  0
  8 23  1  0
  8  9  1  6
  8 10  1  0
  9 33  1  0
  9 34  1  0
  9 35  1  0
 10 11  1  0
 10 36  1  0
 10 37  1  0
 11 12  1  0
 11 38  1  0
 11 39  1  0
 12 13  1  0
 12 40  1  6
 13 21  1  0
 13 14  1  1
 14 15  1  0
 15 16  1  0
 16 17  1  6
 16 18  1  0
 16 21  1  0
 17 41  1  0
 17 42  1  0
 17 43  1  0
 18 19  1  0
 18 20  1  0
 18 44  1  0
 19 45  1  0
 19 46  1  0
 19 47  1  0
 20 48  1  0
 20 49  1  0
 20 50  1  0
 21 22  1  0
 21 51  1  1
 22 23  1  0
 22 52  1  0
 22 53  1  0
M  END
>  <i_m_ct_stereo_status>  (375) 
1

>  <s_m_source_file>  (375) 
/var/tmp/pbs.5076255.sched01/tmpr9sv22dd/120oksnzf6p.sdf

>  <i_m_source_file_index>  (375) 
38

>  <i_lp_mmshare_version>  (375) 
48012

>  <i_f3d_flags>  (375) 
0

>  <s_epik_input>  (375) 
W0NAXTEyM1tDQEhdNEMoPU8pW0NAQEhdKFtDSDNdKVtDQEBIXTFbQ0gyXVtDSDJdW0NAXShbQ0gzXSkoW0NIMl1bQ0gyXTQpT1tDSDJdW0NASF0zW0NAXShPTzIpKFtDSDNdKVtDSF0oW0NIM10pW0NIM10=

>  <s_epik_cmdline>  (375) 
J2VwaWtfcHl0aG9uJywgJy1waHQnLCAnMi4wJywgJy1waCcsICc3LjAnLCAnLXRuJywgJzgnLCAnLW1hJywgJzIwMCcsICctaW1hZScsICc8aW5maWxlLm1hZT4nLCAnLW9tYWUnLCAnPG91dGZpbGUubWFlPic=

>  <r_lp_tautomer_probability>  (375) 
1

>  <r_epik_Ionization_Penalty>  (375) 
1.0808e-11

>  <r_epik_Ionization_Penalty_Charging>  (375) 
0

>  <r_epik_Ionization_Penalty_Neutral>  (375) 
1.0808e-11

>  <r_epik_State_Penalty>  (375) 
-0

>  <r_epik_Charging_Adjusted_Penalty>  (375) 
0

>  <i_epik_Tot_Q>  (375) 
0

>  <i_epik_Tot_abs_Q>  (375) 
0

>  <s_lp_Force_Field>  (375) 
OPLS3e

>  <r_lp_Energy>  (375) 
36.5506

>  <b_lp_Chiralities_Consistent>  (375) 
1

>  <s_lp_Variant>  (375) 
119:0-1

>  <s_i_glide_gridfile>  (375) 
pfpi4k_grid

>  <i_i_glide_lignum>  (375) 
38

>  <i_i_glide_rotatable_bonds>  (375) 
1

>  <r_i_docking_score>  (375) 
-2.94638

>  <r_i_glide_ligand_efficiency>  (375) 
-0.128103

>  <r_i_glide_ligand_efficiency_sa>  (375) 
-0.364309

>  <r_i_glide_ligand_efficiency_ln>  (375) 
-0.712461

>  <r_i_glide_gscore>  (375) 
-2.94638

>  <r_i_glide_lipo>  (375) 
-0.130215

>  <r_i_glide_hbond>  (375) 
-0.127069

>  <r_i_glide_metal>  (375) 
-0

>  <r_i_glide_rewards>  (375) 
-1.21064

>  <r_i_glide_evdw>  (375) 
-16.8109

>  <r_i_glide_ecoul>  (375) 
-4.13557

>  <r_i_glide_erotb>  (375) 
0

>  <r_i_glide_esite>  (375) 
-0.0175712

>  <r_i_glide_emodel>  (375) 
-25.1542

>  <r_i_glide_energy>  (375) 
-20.9465

>  <r_i_glide_einternal>  (375) 
0.00744251

>  <r_i_glide_intrahb_reward>  (375) 
-0

>  <i_i_glide_confnum>  (375) 
1

>  <i_i_glide_posenum>  (375) 
40

>  <r_i_glide_eff_state_penalty>  (375) 
0

>  <ligand_id>  (375) 
119

>  <original_smiles>  (375) 
CC1C(=O)C2CCC3(C)CCC1C21OOC(C)(C(C)C)C1CO3

>  <smiles>  (375) 
[H]C([H])([H])C1([H])C(=O)C2([H])C([H])([H])C([H])([H])C3(C([H])([H])[H])OC([H])([H])C4([H])C(C([H])([H])[H])(C([H])(C([H])([H])[H])C([H])([H])[H])OOC24C1([H])C([H])([H])C3([H])[H]

$$$$
