1:0:0
     RDKit          3D

 68 74  0  0  1  0  0  0  0  0999 V2000
   -0.1549   -7.7284    1.7042 C   0  0  0  0  0  0  0  0  0  0  0  0
    0.6472   -8.1609    2.9561 C   0  0  0  0  0  0  0  0  0  0  0  0
    1.5043   -9.3908    2.5928 C   0  0  0  0  0  0  0  0  0  0  0  0
    1.4616   -6.9785    3.4530 C   0  0  0  0  0  0  0  0  0  0  0  0
    2.8034   -6.7973    3.3813 C   0  0  0  0  0  0  0  0  0  0  0  0
    3.5582   -5.7582    4.2206 C   0  0  0  0  0  0  0  0  0  0  0  0
    2.6624   -5.3549    5.4121 C   0  0  1  0  0  0  0  0  0  0  0  0
    3.0901   -4.3577    6.5446 C   0  0  2  0  0  0  0  0  0  0  0  0
    4.5366   -3.8330    6.4031 C   0  0  0  0  0  0  0  0  0  0  0  0
    2.9126   -5.0310    7.9359 C   0  0  0  0  0  0  0  0  0  0  0  0
    1.5084   -5.6548    8.1469 C   0  0  0  0  0  0  0  0  0  0  0  0
    0.3560   -4.8782    7.4693 C   0  0  0  0  0  0  0  0  0  0  0  0
    0.7499   -4.1239    6.1726 C   0  0  1  0  0  0  0  0  0  0  0  0
    1.9981   -3.2585    6.4893 C   0  0  2  0  0  0  0  0  0  0  0  0
    2.2160   -2.2809    5.3817 C   0  0  0  0  0  0  0  0  0  0  0  0
    1.9130   -2.5792    4.0998 C   0  0  0  0  0  0  0  0  0  0  0  0
    2.2718   -1.4182    3.3671 C   0  0  0  0  0  0  0  0  0  0  0  0
    2.6954   -0.4570    4.1724 N   0  0  0  0  0  0  0  0  0  0  0  0
    2.7285   -1.0021    5.4124 N   0  0  0  0  0  0  0  0  0  0  0  0
    3.2303   -0.2211    6.5318 C   0  0  0  0  0  0  0  0  0  0  0  0
    4.7418   -0.0052    6.5073 C   0  0  0  0  0  0  0  0  0  0  0  0
    5.5015   -0.2311    7.6742 C   0  0  0  0  0  0  0  0  0  0  0  0
    6.8955   -0.0214    7.6735 C   0  0  0  0  0  0  0  0  0  0  0  0
    7.5398    0.4150    6.4987 C   0  0  0  0  0  0  0  0  0  0  0  0
    6.7945    0.6320    5.3298 C   0  0  0  0  0  0  0  0  0  0  0  0
    5.4028    0.4486    5.3395 C   0  0  0  0  0  0  0  0  0  0  0  0
    1.3080   -3.8905    3.7136 C   0  0  0  0  0  0  0  0  0  0  0  0
    1.2663   -4.9160    4.9235 C   0  0  1  0  0  0  0  0  0  0  0  0
    0.5384   -6.1556    4.3387 C   0  0  2  0  0  0  0  0  0  0  0  0
   -0.0637   -7.2627    5.1961 C   0  0  0  0  0  0  0  0  0  0  0  0
   -0.2445   -8.4459    4.2094 C   0  0  1  0  0  0  0  0  0  0  0  0
   -1.6118   -8.6551    3.9172 O   0  0  0  0  0  0  0  0  0  0  0  0
   -0.7720   -8.5459    1.3302 H   0  0  0  0  0  0  0  0  0  0  0  0
    0.5203   -7.4268    0.9007 H   0  0  0  0  0  0  0  0  0  0  0  0
   -0.8294   -6.8965    1.9038 H   0  0  0  0  0  0  0  0  0  0  0  0
    0.8648  -10.2312    2.3247 H   0  0  0  0  0  0  0  0  0  0  0  0
    2.1315   -9.7142    3.4244 H   0  0  0  0  0  0  0  0  0  0  0  0
    2.1514   -9.2001    1.7375 H   0  0  0  0  0  0  0  0  0  0  0  0
    3.4161   -7.4622    2.7922 H   0  0  0  0  0  0  0  0  0  0  0  0
    4.4684   -6.2187    4.6026 H   0  0  0  0  0  0  0  0  0  0  0  0
    3.8586   -4.9069    3.6061 H   0  0  0  0  0  0  0  0  0  0  0  0
    2.5468   -6.3140    5.9137 H   0  0  0  0  0  0  0  0  0  0  0  0
    4.7692   -3.1153    7.1917 H   0  0  0  0  0  0  0  0  0  0  0  0
    4.7134   -3.3403    5.4459 H   0  0  0  0  0  0  0  0  0  0  0  0
    5.2534   -4.6525    6.4884 H   0  0  0  0  0  0  0  0  0  0  0  0
    3.6655   -5.8086    8.0738 H   0  0  0  0  0  0  0  0  0  0  0  0
    3.0976   -4.2964    8.7210 H   0  0  0  0  0  0  0  0  0  0  0  0
    1.5140   -6.6800    7.7815 H   0  0  0  0  0  0  0  0  0  0  0  0
    1.3064   -5.7477    9.2137 H   0  0  0  0  0  0  0  0  0  0  0  0
   -0.4976   -5.5298    7.2997 H   0  0  0  0  0  0  0  0  0  0  0  0
    0.0000   -4.1316    8.1820 H   0  0  0  0  0  0  0  0  0  0  0  0
   -0.0975   -3.4920    5.8989 H   0  0  0  0  0  0  0  0  0  0  0  0
    1.8886   -2.7271    7.4352 H   0  0  0  0  0  0  0  0  0  0  0  0
    2.2095   -1.2346    2.3044 H   0  0  0  0  0  0  0  0  0  0  0  0
    2.7222    0.7424    6.5454 H   0  0  0  0  0  0  0  0  0  0  0  0
    2.9501   -0.7240    7.4594 H   0  0  0  0  0  0  0  0  0  0  0  0
    5.0194   -0.5590    8.5837 H   0  0  0  0  0  0  0  0  0  0  0  0
    7.4732   -0.1932    8.5692 H   0  0  0  0  0  0  0  0  0  0  0  0
    8.6073    0.5788    6.4934 H   0  0  0  0  0  0  0  0  0  0  0  0
    7.2801    0.9472    4.4167 H   0  0  0  0  0  0  0  0  0  0  0  0
    4.8676    0.6637    4.4307 H   0  0  0  0  0  0  0  0  0  0  0  0
    0.2846   -3.6825    3.4038 H   0  0  0  0  0  0  0  0  0  0  0  0
    1.7962   -4.2971    2.8282 H   0  0  0  0  0  0  0  0  0  0  0  0
   -0.2862   -5.7969    3.7252 H   0  0  0  0  0  0  0  0  0  0  0  0
    0.6271   -7.5698    5.9788 H   0  0  0  0  0  0  0  0  0  0  0  0
   -0.9837   -6.9478    5.6701 H   0  0  0  0  0  0  0  0  0  0  0  0
    0.0923   -9.3526    4.7126 H   0  0  0  0  0  0  0  0  0  0  0  0
   -1.8434   -9.5209    4.2799 H   0  0  0  0  0  0  0  0  0  0  0  0
  1  2  1  0
  1 33  1  0
  1 34  1  0
  1 35  1  0
  2 31  1  0
  2  3  1  0
  2  4  1  0
  3 36  1  0
  3 37  1  0
  3 38  1  0
  4 29  1  0
  4  5  2  0
  5  6  1  0
  5 39  1  0
  6  7  1  0
  6 40  1  0
  6 41  1  0
  7 28  1  0
  7  8  1  0
  7 42  1  1
  8 14  1  0
  8  9  1  6
  8 10  1  0
  9 43  1  0
  9 44  1  0
  9 45  1  0
 10 11  1  0
 10 46  1  0
 10 47  1  0
 11 12  1  0
 11 48  1  0
 11 49  1  0
 12 13  1  0
 12 50  1  0
 12 51  1  0
 13 28  1  0
 13 14  1  0
 13 52  1  6
 14 15  1  0
 14 53  1  1
 15 19  1  0
 15 16  2  0
 16 17  1  0
 16 27  1  0
 17 18  2  0
 17 54  1  0
 18 19  1  0
 19 20  1  0
 20 21  1  0
 20 55  1  0
 20 56  1  0
 21 26  1  0
 21 22  2  0
 22 23  1  0
 22 57  1  0
 23 24  2  0
 23 58  1  0
 24 25  1  0
 24 59  1  0
 25 26  2  0
 25 60  1  0
 26 61  1  0
 28 27  1  6
 27 62  1  0
 27 63  1  0
 28 29  1  0
 29 30  1  0
 29 64  1  6
 30 31  1  0
 30 65  1  0
 30 66  1  0
 31 32  1  0
 31 67  1  1
 32 68  1  0
M  END
>  <i_m_ct_stereo_status>  (1) 
1

>  <s_m_source_file>  (1) 
/var/tmp/pbs.5076255.sched01/tmp44bw07az/09l6mph0o.sdf

>  <i_m_source_file_index>  (1) 
2

>  <i_lp_mmshare_version>  (1) 
48012

>  <i_f3d_flags>  (1) 
0

>  <s_epik_input>  (1) 
W0NIM11DMShbQ0gzXSlbQ0BIXShbT0hdKVtDSDJdW0NAQEhdMkMxPVtDSF1bQ0gyXVtDQEhdKFtDQEBdMjM0KVtDQEBdNShbQ0gzXSlbQ0BIXShbQ0BASF0zW0NIMl1bQ0gyXVtDSDJdNSljNmMoW0NIMl00KVtjSF1ubjZbQ0gyXWM3W2NIXVtjSF1bY0hdW2NIXVtjSF03

>  <s_epik_cmdline>  (1) 
J2VwaWtfcHl0aG9uJywgJy1waHQnLCAnMi4wJywgJy1waCcsICc3LjAnLCAnLXRuJywgJzgnLCAnLW1hJywgJzIwMCcsICctaW1hZScsICc8aW5maWxlLm1hZT4nLCAnLW9tYWUnLCAnPG91dGZpbGUubWFlPic=

>  <r_lp_tautomer_probability>  (1) 
1

>  <r_epik_Ionization_Penalty>  (1) 
0.00987089

>  <r_epik_Ionization_Penalty_Charging>  (1) 
0

>  <r_epik_Ionization_Penalty_Neutral>  (1) 
0.00987089

>  <r_epik_State_Penalty>  (1) 
0.00751855

>  <r_epik_Charging_Adjusted_Penalty>  (1) 
0.00751855

>  <i_epik_Tot_Q>  (1) 
0

>  <i_epik_Tot_abs_Q>  (1) 
0

>  <s_lp_Force_Field>  (1) 
OPLS3e

>  <r_lp_Energy>  (1) 
71.2688

>  <b_lp_Chiralities_Consistent>  (1) 
1

>  <s_lp_Variant>  (1) 
1:0-1

>  <s_i_glide_gridfile>  (1) 
pfpi4k_grid

>  <i_i_glide_lignum>  (1) 
2

>  <i_i_glide_rotatable_bonds>  (1) 
3

>  <r_i_docking_score>  (1) 
-2.51152

>  <r_i_glide_ligand_efficiency>  (1) 
-0.078485

>  <r_i_glide_ligand_efficiency_sa>  (1) 
-0.249174

>  <r_i_glide_ligand_efficiency_ln>  (1) 
-0.562397

>  <r_i_glide_gscore>  (1) 
-2.51152

>  <r_i_glide_lipo>  (1) 
-0.546067

>  <r_i_glide_hbond>  (1) 
-0.16

>  <r_i_glide_metal>  (1) 
-0

>  <r_i_glide_rewards>  (1) 
-0.486757

>  <r_i_glide_evdw>  (1) 
-18.8584

>  <r_i_glide_ecoul>  (1) 
-3.94696

>  <r_i_glide_erotb>  (1) 
0.216272

>  <r_i_glide_esite>  (1) 
0

>  <r_i_glide_emodel>  (1) 
-25.8521

>  <r_i_glide_energy>  (1) 
-22.8054

>  <r_i_glide_einternal>  (1) 
2.45807

>  <r_i_glide_intrahb_reward>  (1) 
-0

>  <i_i_glide_confnum>  (1) 
6

>  <i_i_glide_posenum>  (1) 
5

>  <r_i_glide_eff_state_penalty>  (1) 
0

>  <ligand_id>  (1) 
1

>  <original_smiles>  (1) 
CC1(C)C2=CCC3C4(C)CCCC5C4c4c(cnn4Cc4ccccc4)CC53C2CC1O

>  <smiles>  (1) 
[H]OC1([H])C([H])([H])C2([H])C(=C([H])C([H])([H])C3([H])C4(C([H])([H])[H])C([H])([H])C([H])([H])C([H])([H])C5([H])C4([H])c4c(c([H])nn4C([H])([H])c4c([H])c([H])c([H])c([H])c4[H])C([H])([H])C253)C1(C([H])([H])[H])C([H])([H])[H]

$$$$
1:0:1
     RDKit          3D

 68 74  0  0  1  0  0  0  0  0999 V2000
    0.8158  -11.0443    4.8770 C   0  0  0  0  0  0  0  0  0  0  0  0
    1.9019  -10.2409    4.1279 C   0  0  0  0  0  0  0  0  0  0  0  0
    1.9319  -10.7147    2.6650 C   0  0  0  0  0  0  0  0  0  0  0  0
    1.6177   -8.7598    4.2777 C   0  0  0  0  0  0  0  0  0  0  0  0
    1.1601   -7.9031    3.3317 C   0  0  0  0  0  0  0  0  0  0  0  0
    1.2511   -6.3787    3.4664 C   0  0  0  0  0  0  0  0  0  0  0  0
    2.3149   -6.0512    4.5368 C   0  0  1  0  0  0  0  0  0  0  0  0
    2.7565   -4.5993    4.9321 C   0  0  2  0  0  0  0  0  0  0  0  0
    2.0618   -3.4916    4.1091 C   0  0  0  0  0  0  0  0  0  0  0  0
    4.3002   -4.4617    4.7923 C   0  0  0  0  0  0  0  0  0  0  0  0
    5.0893   -5.5780    5.5236 C   0  0  0  0  0  0  0  0  0  0  0  0
    4.4322   -6.0681    6.8329 C   0  0  0  0  0  0  0  0  0  0  0  0
    2.8837   -5.9800    6.8641 C   0  0  1  0  0  0  0  0  0  0  0  0
    2.4799   -4.5392    6.4576 C   0  0  2  0  0  0  0  0  0  0  0  0
    1.0366   -4.3199    6.7706 C   0  0  0  0  0  0  0  0  0  0  0  0
    0.1284   -5.3164    6.6968 C   0  0  0  0  0  0  0  0  0  0  0  0
   -1.1040   -4.7047    7.0487 C   0  0  0  0  0  0  0  0  0  0  0  0
   -0.9379   -3.4293    7.3584 N   0  0  0  0  0  0  0  0  0  0  0  0
    0.3778   -3.1680    7.1402 N   0  0  0  0  0  0  0  0  0  0  0  0
    0.9159   -1.8312    7.3561 C   0  0  0  0  0  0  0  0  0  0  0  0
   -0.0210   -0.7176    6.9037 C   0  0  0  0  0  0  0  0  0  0  0  0
   -0.7147   -0.8154    5.6765 C   0  0  0  0  0  0  0  0  0  0  0  0
   -1.6063    0.1965    5.2813 C   0  0  0  0  0  0  0  0  0  0  0  0
   -1.7892    1.3250    6.1006 C   0  0  0  0  0  0  0  0  0  0  0  0
   -1.0980    1.4347    7.3209 C   0  0  0  0  0  0  0  0  0  0  0  0
   -0.2089    0.4181    7.7175 C   0  0  0  0  0  0  0  0  0  0  0  0
    0.5185   -6.7119    6.3285 C   0  0  0  0  0  0  0  0  0  0  0  0
    2.0289   -6.8108    5.8495 C   0  0  1  0  0  0  0  0  0  0  0  0
    2.2403   -8.3293    5.5987 C   0  0  2  0  0  0  0  0  0  0  0  0
    3.6134   -8.9891    5.4810 C   0  0  0  0  0  0  0  0  0  0  0  0
    3.3178  -10.3406    4.7811 C   0  0  1  0  0  0  0  0  0  0  0  0
    3.4612  -11.4255    5.6777 O   0  0  0  0  0  0  0  0  0  0  0  0
    0.9868  -12.1200    4.8063 H   0  0  0  0  0  0  0  0  0  0  0  0
   -0.1678  -10.8363    4.4523 H   0  0  0  0  0  0  0  0  0  0  0  0
    0.7666  -10.7906    5.9362 H   0  0  0  0  0  0  0  0  0  0  0  0
    2.2194  -11.7658    2.6298 H   0  0  0  0  0  0  0  0  0  0  0  0
    2.6493  -10.1662    2.0547 H   0  0  0  0  0  0  0  0  0  0  0  0
    0.9507  -10.6366    2.1967 H   0  0  0  0  0  0  0  0  0  0  0  0
    0.7995   -8.2756    2.3822 H   0  0  0  0  0  0  0  0  0  0  0  0
    1.5710   -5.9670    2.5097 H   0  0  0  0  0  0  0  0  0  0  0  0
    0.2729   -5.9528    3.6966 H   0  0  0  0  0  0  0  0  0  0  0  0
    3.1987   -6.4999    4.0870 H   0  0  0  0  0  0  0  0  0  0  0  0
    2.3732   -2.5016    4.4485 H   0  0  0  0  0  0  0  0  0  0  0  0
    0.9740   -3.5383    4.1764 H   0  0  0  0  0  0  0  0  0  0  0  0
    2.3296   -3.5699    3.0539 H   0  0  0  0  0  0  0  0  0  0  0  0
    4.5847   -4.4663    3.7396 H   0  0  0  0  0  0  0  0  0  0  0  0
    4.6160   -3.4922    5.1803 H   0  0  0  0  0  0  0  0  0  0  0  0
    5.2243   -6.4229    4.8508 H   0  0  0  0  0  0  0  0  0  0  0  0
    6.1037   -5.2351    5.7316 H   0  0  0  0  0  0  0  0  0  0  0  0
    4.7730   -7.0714    7.0792 H   0  0  0  0  0  0  0  0  0  0  0  0
    4.8068   -5.4417    7.6446 H   0  0  0  0  0  0  0  0  0  0  0  0
    2.5725   -6.1970    7.8878 H   0  0  0  0  0  0  0  0  0  0  0  0
    3.0870   -3.7893    6.9684 H   0  0  0  0  0  0  0  0  0  0  0  0
   -2.0928   -5.1383    7.1126 H   0  0  0  0  0  0  0  0  0  0  0  0
    1.1514   -1.7268    8.4149 H   0  0  0  0  0  0  0  0  0  0  0  0
    1.8535   -1.7279    6.8116 H   0  0  0  0  0  0  0  0  0  0  0  0
   -0.5809   -1.6818    5.0482 H   0  0  0  0  0  0  0  0  0  0  0  0
   -2.1528    0.1051    4.3515 H   0  0  0  0  0  0  0  0  0  0  0  0
   -2.4737    2.1028    5.7938 H   0  0  0  0  0  0  0  0  0  0  0  0
   -1.2536    2.2978    7.9536 H   0  0  0  0  0  0  0  0  0  0  0  0
    0.3097    0.5074    8.6614 H   0  0  0  0  0  0  0  0  0  0  0  0
    0.3990   -7.3324    7.2171 H   0  0  0  0  0  0  0  0  0  0  0  0
   -0.1803   -7.1291    5.6036 H   0  0  0  0  0  0  0  0  0  0  0  0
    1.7392   -8.8717    6.4003 H   0  0  0  0  0  0  0  0  0  0  0  0
    4.2650   -8.4033    4.8342 H   0  0  0  0  0  0  0  0  0  0  0  0
    4.1160   -9.1163    6.4386 H   0  0  0  0  0  0  0  0  0  0  0  0
    4.0732  -10.4807    4.0101 H   0  0  0  0  0  0  0  0  0  0  0  0
    2.6972  -11.4893    6.2393 H   0  0  0  0  0  0  0  0  0  0  0  0
  1  2  1  0
  1 33  1  0
  1 34  1  0
  1 35  1  0
  2 31  1  0
  2  3  1  0
  2  4  1  0
  3 36  1  0
  3 37  1  0
  3 38  1  0
  4 29  1  0
  4  5  2  0
  5  6  1  0
  5 39  1  0
  6  7  1  0
  6 40  1  0
  6 41  1  0
  7 28  1  0
  7  8  1  0
  7 42  1  6
  8 14  1  0
  8  9  1  6
  8 10  1  0
  9 43  1  0
  9 44  1  0
  9 45  1  0
 10 11  1  0
 10 46  1  0
 10 47  1  0
 11 12  1  0
 11 48  1  0
 11 49  1  0
 12 13  1  0
 12 50  1  0
 12 51  1  0
 13 28  1  0
 13 14  1  0
 13 52  1  1
 14 15  1  0
 14 53  1  1
 15 19  1  0
 15 16  2  0
 16 17  1  0
 16 27  1  0
 17 18  2  0
 17 54  1  0
 18 19  1  0
 19 20  1  0
 20 21  1  0
 20 55  1  0
 20 56  1  0
 21 26  1  0
 21 22  2  0
 22 23  1  0
 22 57  1  0
 23 24  2  0
 23 58  1  0
 24 25  1  0
 24 59  1  0
 25 26  2  0
 25 60  1  0
 26 61  1  0
 28 27  1  1
 27 62  1  0
 27 63  1  0
 28 29  1  0
 29 30  1  0
 29 64  1  1
 30 31  1  0
 30 65  1  0
 30 66  1  0
 31 32  1  0
 31 67  1  6
 32 68  1  0
M  END
>  <i_m_ct_stereo_status>  (2) 
1

>  <s_m_source_file>  (2) 
/var/tmp/pbs.5076255.sched01/tmp44bw07az/09l6mph0o.sdf

>  <i_m_source_file_index>  (2) 
2

>  <i_lp_mmshare_version>  (2) 
48012

>  <i_f3d_flags>  (2) 
0

>  <s_epik_input>  (2) 
W0NIM11DMShbQ0gzXSlbQ0BIXShbT0hdKVtDSDJdW0NAQEhdMkMxPVtDSF1bQ0gyXVtDQEhdKFtDQEBdMjM0KVtDQEBdNShbQ0gzXSlbQ0BIXShbQ0BASF0zW0NIMl1bQ0gyXVtDSDJdNSljNmMoW0NIMl00KVtjSF1ubjZbQ0gyXWM3W2NIXVtjSF1bY0hdW2NIXVtjSF03

>  <s_epik_cmdline>  (2) 
J2VwaWtfcHl0aG9uJywgJy1waHQnLCAnMi4wJywgJy1waCcsICc3LjAnLCAnLXRuJywgJzgnLCAnLW1hJywgJzIwMCcsICctaW1hZScsICc8aW5maWxlLm1hZT4nLCAnLW9tYWUnLCAnPG91dGZpbGUubWFlPic=

>  <r_lp_tautomer_probability>  (2) 
1

>  <r_epik_Ionization_Penalty>  (2) 
0.00987089

>  <r_epik_Ionization_Penalty_Charging>  (2) 
0

>  <r_epik_Ionization_Penalty_Neutral>  (2) 
0.00987089

>  <r_epik_State_Penalty>  (2) 
0.00751855

>  <r_epik_Charging_Adjusted_Penalty>  (2) 
0.00751855

>  <i_epik_Tot_Q>  (2) 
0

>  <i_epik_Tot_abs_Q>  (2) 
0

>  <s_lp_Force_Field>  (2) 
OPLS3e

>  <r_lp_Energy>  (2) 
71.2688

>  <b_lp_Chiralities_Consistent>  (2) 
1

>  <s_lp_Variant>  (2) 
1:0-1

>  <s_i_glide_gridfile>  (2) 
pfpi4k_grid

>  <i_i_glide_lignum>  (2) 
2

>  <i_i_glide_rotatable_bonds>  (2) 
3

>  <r_i_docking_score>  (2) 
-2.34908

>  <r_i_glide_ligand_efficiency>  (2) 
-0.0734087

>  <r_i_glide_ligand_efficiency_sa>  (2) 
-0.233058

>  <r_i_glide_ligand_efficiency_ln>  (2) 
-0.526022

>  <r_i_glide_gscore>  (2) 
-2.34908

>  <r_i_glide_lipo>  (2) 
-0.0957519

>  <r_i_glide_hbond>  (2) 
-0.124715

>  <r_i_glide_metal>  (2) 
-0

>  <r_i_glide_rewards>  (2) 
-0.486757

>  <r_i_glide_evdw>  (2) 
-19.8907

>  <r_i_glide_ecoul>  (2) 
-5.63713

>  <r_i_glide_erotb>  (2) 
0.216272

>  <r_i_glide_esite>  (2) 
-0.0180229

>  <r_i_glide_emodel>  (2) 
-28.7556

>  <r_i_glide_energy>  (2) 
-25.5278

>  <r_i_glide_einternal>  (2) 
1.69382

>  <r_i_glide_intrahb_reward>  (2) 
-0

>  <i_i_glide_confnum>  (2) 
4

>  <i_i_glide_posenum>  (2) 
33

>  <r_i_glide_eff_state_penalty>  (2) 
0

>  <ligand_id>  (2) 
1

>  <original_smiles>  (2) 
CC1(C)C2=CCC3C4(C)CCCC5C4c4c(cnn4Cc4ccccc4)CC53C2CC1O

>  <smiles>  (2) 
[H]OC1([H])C([H])([H])C2([H])C(=C([H])C([H])([H])C3([H])C4(C([H])([H])[H])C([H])([H])C([H])([H])C([H])([H])C5([H])C4([H])c4c(c([H])nn4C([H])([H])c4c([H])c([H])c([H])c([H])c4[H])C([H])([H])C253)C1(C([H])([H])[H])C([H])([H])[H]

$$$$
1:0:2
     RDKit          3D

 68 74  0  0  1  0  0  0  0  0999 V2000
    3.2779   -9.1971    1.3386 C   0  0  0  0  0  0  0  0  0  0  0  0
    3.5797   -8.7700    2.7939 C   0  0  0  0  0  0  0  0  0  0  0  0
    4.6974   -9.6763    3.3502 C   0  0  0  0  0  0  0  0  0  0  0  0
    3.9255   -7.2925    2.8141 C   0  0  0  0  0  0  0  0  0  0  0  0
    5.1387   -6.7244    3.0216 C   0  0  0  0  0  0  0  0  0  0  0  0
    5.3262   -5.2460    3.3842 C   0  0  0  0  0  0  0  0  0  0  0  0
    3.9817   -4.7102    3.9160 C   0  0  1  0  0  0  0  0  0  0  0  0
    3.7609   -3.2538    4.4522 C   0  0  2  0  0  0  0  0  0  0  0  0
    5.0368   -2.3851    4.4568 C   0  0  0  0  0  0  0  0  0  0  0  0
    3.1593   -3.3011    5.8869 C   0  0  0  0  0  0  0  0  0  0  0  0
    1.9055   -4.2063    6.0039 C   0  0  0  0  0  0  0  0  0  0  0  0
    1.0085   -4.2161    4.7450 C   0  0  0  0  0  0  0  0  0  0  0  0
    1.7606   -3.9898    3.4058 C   0  0  1  0  0  0  0  0  0  0  0  0
    2.6195   -2.7149    3.5567 C   0  0  2  0  0  0  0  0  0  0  0  0
    3.0914   -2.2566    2.2151 C   0  0  0  0  0  0  0  0  0  0  0  0
    3.3688   -3.1378    1.2291 C   0  0  0  0  0  0  0  0  0  0  0  0
    3.8222   -2.3285    0.1495 C   0  0  0  0  0  0  0  0  0  0  0  0
    3.8284   -1.0419    0.4728 N   0  0  0  0  0  0  0  0  0  0  0  0
    3.3534   -0.9843    1.7412 N   0  0  0  0  0  0  0  0  0  0  0  0
    3.2411    0.3069    2.3984 C   0  0  0  0  0  0  0  0  0  0  0  0
    1.8357    0.5852    2.9054 C   0  0  0  0  0  0  0  0  0  0  0  0
    1.5480    0.5181    4.2840 C   0  0  0  0  0  0  0  0  0  0  0  0
    0.2394    0.7392    4.7520 C   0  0  0  0  0  0  0  0  0  0  0  0
   -0.7843    1.0685    3.8426 C   0  0  0  0  0  0  0  0  0  0  0  0
   -0.4991    1.1582    2.4679 C   0  0  0  0  0  0  0  0  0  0  0  0
    0.8054    0.9116    2.0007 C   0  0  0  0  0  0  0  0  0  0  0  0
    3.1818   -4.6149    1.4133 C   0  0  0  0  0  0  0  0  0  0  0  0
    2.8411   -5.0029    2.9172 C   0  0  1  0  0  0  0  0  0  0  0  0
    2.6041   -6.5375    2.8719 C   0  0  2  0  0  0  0  0  0  0  0  0
    1.8909   -7.3204    3.9741 C   0  0  0  0  0  0  0  0  0  0  0  0
    2.3252   -8.7888    3.7273 C   0  0  1  0  0  0  0  0  0  0  0  0
    1.2538   -9.5511    3.2106 O   0  0  0  0  0  0  0  0  0  0  0  0
    3.0200  -10.2526    1.2882 H   0  0  0  0  0  0  0  0  0  0  0  0
    4.1503   -9.0444    0.7013 H   0  0  0  0  0  0  0  0  0  0  0  0
    2.4512   -8.6435    0.8937 H   0  0  0  0  0  0  0  0  0  0  0  0
    4.3572  -10.7113    3.3847 H   0  0  0  0  0  0  0  0  0  0  0  0
    4.9891   -9.3976    4.3625 H   0  0  0  0  0  0  0  0  0  0  0  0
    5.5875   -9.6564    2.7223 H   0  0  0  0  0  0  0  0  0  0  0  0
    6.0336   -7.3280    3.0403 H   0  0  0  0  0  0  0  0  0  0  0  0
    6.0742   -5.1727    4.1736 H   0  0  0  0  0  0  0  0  0  0  0  0
    5.7004   -4.6807    2.5287 H   0  0  0  0  0  0  0  0  0  0  0  0
    3.8326   -5.3509    4.7831 H   0  0  0  0  0  0  0  0  0  0  0  0
    4.8179   -1.3727    4.8022 H   0  0  0  0  0  0  0  0  0  0  0  0
    5.4916   -2.3065    3.4678 H   0  0  0  0  0  0  0  0  0  0  0  0
    5.7850   -2.8029    5.1331 H   0  0  0  0  0  0  0  0  0  0  0  0
    3.9092   -3.6492    6.5978 H   0  0  0  0  0  0  0  0  0  0  0  0
    2.8973   -2.2907    6.2053 H   0  0  0  0  0  0  0  0  0  0  0  0
    2.2196   -5.2240    6.2270 H   0  0  0  0  0  0  0  0  0  0  0  0
    1.3164   -3.9090    6.8723 H   0  0  0  0  0  0  0  0  0  0  0  0
    0.4053   -5.1203    4.7128 H   0  0  0  0  0  0  0  0  0  0  0  0
    0.2846   -3.4058    4.8506 H   0  0  0  0  0  0  0  0  0  0  0  0
    1.0151   -3.8393    2.6314 H   0  0  0  0  0  0  0  0  0  0  0  0
    2.0444   -1.9377    4.0456 H   0  0  0  0  0  0  0  0  0  0  0  0
    4.1433   -2.6297   -0.8383 H   0  0  0  0  0  0  0  0  0  0  0  0
    3.9567    0.3342    3.2185 H   0  0  0  0  0  0  0  0  0  0  0  0
    3.5276    1.0963    1.7007 H   0  0  0  0  0  0  0  0  0  0  0  0
    2.3276    0.2539    4.9814 H   0  0  0  0  0  0  0  0  0  0  0  0
    0.0268    0.6541    5.8074 H   0  0  0  0  0  0  0  0  0  0  0  0
   -1.7893    1.2509    4.1965 H   0  0  0  0  0  0  0  0  0  0  0  0
   -1.2777    1.4122    1.7617 H   0  0  0  0  0  0  0  0  0  0  0  0
    1.0084    0.9539    0.9405 H   0  0  0  0  0  0  0  0  0  0  0  0
    2.3509   -4.9247    0.7784 H   0  0  0  0  0  0  0  0  0  0  0  0
    4.0404   -5.1638    1.0272 H   0  0  0  0  0  0  0  0  0  0  0  0
    2.0444   -6.7586    1.9636 H   0  0  0  0  0  0  0  0  0  0  0  0
    2.2541   -7.0197    4.9555 H   0  0  0  0  0  0  0  0  0  0  0  0
    0.8083   -7.1953    3.9668 H   0  0  0  0  0  0  0  0  0  0  0  0
    2.5750   -9.2298    4.6908 H   0  0  0  0  0  0  0  0  0  0  0  0
    1.0916   -9.2845    2.3181 H   0  0  0  0  0  0  0  0  0  0  0  0
  1  2  1  0
  1 33  1  0
  1 34  1  0
  1 35  1  0
  2 31  1  0
  2  3  1  0
  2  4  1  0
  3 36  1  0
  3 37  1  0
  3 38  1  0
  4 29  1  0
  4  5  2  0
  5  6  1  0
  5 39  1  0
  6  7  1  0
  6 40  1  0
  6 41  1  0
  7 28  1  0
  7  8  1  0
  7 42  1  1
  8 14  1  0
  8  9  1  1
  8 10  1  0
  9 43  1  0
  9 44  1  0
  9 45  1  0
 10 11  1  0
 10 46  1  0
 10 47  1  0
 11 12  1  0
 11 48  1  0
 11 49  1  0
 12 13  1  0
 12 50  1  0
 12 51  1  0
 13 28  1  0
 13 14  1  0
 13 52  1  6
 14 15  1  0
 14 53  1  1
 15 19  1  0
 15 16  2  0
 16 17  1  0
 16 27  1  0
 17 18  2  0
 17 54  1  0
 18 19  1  0
 19 20  1  0
 20 21  1  0
 20 55  1  0
 20 56  1  0
 21 26  1  0
 21 22  2  0
 22 23  1  0
 22 57  1  0
 23 24  2  0
 23 58  1  0
 24 25  1  0
 24 59  1  0
 25 26  2  0
 25 60  1  0
 26 61  1  0
 28 27  1  6
 27 62  1  0
 27 63  1  0
 28 29  1  0
 29 30  1  0
 29 64  1  6
 30 31  1  0
 30 65  1  0
 30 66  1  0
 31 32  1  0
 31 67  1  1
 32 68  1  0
M  END
>  <i_m_ct_stereo_status>  (3) 
1

>  <s_m_source_file>  (3) 
/var/tmp/pbs.5076255.sched01/tmp44bw07az/09l6mph0o.sdf

>  <i_m_source_file_index>  (3) 
2

>  <i_lp_mmshare_version>  (3) 
48012

>  <i_f3d_flags>  (3) 
0

>  <s_epik_input>  (3) 
W0NIM11DMShbQ0gzXSlbQ0BIXShbT0hdKVtDSDJdW0NAQEhdMkMxPVtDSF1bQ0gyXVtDQEhdKFtDQEBdMjM0KVtDQEBdNShbQ0gzXSlbQ0BIXShbQ0BASF0zW0NIMl1bQ0gyXVtDSDJdNSljNmMoW0NIMl00KVtjSF1ubjZbQ0gyXWM3W2NIXVtjSF1bY0hdW2NIXVtjSF03

>  <s_epik_cmdline>  (3) 
J2VwaWtfcHl0aG9uJywgJy1waHQnLCAnMi4wJywgJy1waCcsICc3LjAnLCAnLXRuJywgJzgnLCAnLW1hJywgJzIwMCcsICctaW1hZScsICc8aW5maWxlLm1hZT4nLCAnLW9tYWUnLCAnPG91dGZpbGUubWFlPic=

>  <r_lp_tautomer_probability>  (3) 
1

>  <r_epik_Ionization_Penalty>  (3) 
0.00987089

>  <r_epik_Ionization_Penalty_Charging>  (3) 
0

>  <r_epik_Ionization_Penalty_Neutral>  (3) 
0.00987089

>  <r_epik_State_Penalty>  (3) 
0.00751855

>  <r_epik_Charging_Adjusted_Penalty>  (3) 
0.00751855

>  <i_epik_Tot_Q>  (3) 
0

>  <i_epik_Tot_abs_Q>  (3) 
0

>  <s_lp_Force_Field>  (3) 
OPLS3e

>  <r_lp_Energy>  (3) 
71.2688

>  <b_lp_Chiralities_Consistent>  (3) 
1

>  <s_lp_Variant>  (3) 
1:0-1

>  <s_i_glide_gridfile>  (3) 
pfpi4k_grid

>  <i_i_glide_lignum>  (3) 
2

>  <i_i_glide_rotatable_bonds>  (3) 
3

>  <r_i_docking_score>  (3) 
-1.542

>  <r_i_glide_ligand_efficiency>  (3) 
-0.0481876

>  <r_i_glide_ligand_efficiency_sa>  (3) 
-0.152986

>  <r_i_glide_ligand_efficiency_ln>  (3) 
-0.345297

>  <r_i_glide_gscore>  (3) 
-1.542

>  <r_i_glide_lipo>  (3) 
-0.0986502

>  <r_i_glide_hbond>  (3) 
0

>  <r_i_glide_metal>  (3) 
-0

>  <r_i_glide_rewards>  (3) 
-0.486757

>  <r_i_glide_evdw>  (3) 
-24.4524

>  <r_i_glide_ecoul>  (3) 
0.447361

>  <r_i_glide_erotb>  (3) 
0.216272

>  <r_i_glide_esite>  (3) 
-0.0173499

>  <r_i_glide_emodel>  (3) 
-26.2927

>  <r_i_glide_energy>  (3) 
-24.0051

>  <r_i_glide_einternal>  (3) 
0.58001

>  <r_i_glide_intrahb_reward>  (3) 
-0

>  <i_i_glide_confnum>  (3) 
2

>  <i_i_glide_posenum>  (3) 
22

>  <r_i_glide_eff_state_penalty>  (3) 
0

>  <ligand_id>  (3) 
1

>  <original_smiles>  (3) 
CC1(C)C2=CCC3C4(C)CCCC5C4c4c(cnn4Cc4ccccc4)CC53C2CC1O

>  <smiles>  (3) 
[H]OC1([H])C([H])([H])C2([H])C(=C([H])C([H])([H])C3([H])C4(C([H])([H])[H])C([H])([H])C([H])([H])C([H])([H])C5([H])C4([H])c4c(c([H])nn4C([H])([H])c4c([H])c([H])c([H])c([H])c4[H])C([H])([H])C253)C1(C([H])([H])[H])C([H])([H])[H]

$$$$
2:0:0
     RDKit          3D

 99105  0  0  1  0  0  0  0  0999 V2000
    7.4264   -6.3761    8.4993 C   0  0  0  0  0  0  0  0  0  0  0  0
    6.5974   -7.6408    8.2606 C   0  0  0  0  0  0  0  0  0  0  0  0
    6.3408   -7.7788    6.8650 O   0  0  0  0  0  0  0  0  0  0  0  0
    5.2426   -7.2498    6.3047 C   0  0  0  0  0  0  0  0  0  0  0  0
    4.4136   -6.5816    6.9173 O   0  0  0  0  0  0  0  0  0  0  0  0
    5.0957   -7.5149    4.7932 C   0  0  1  0  0  0  0  0  0  0  0  0
    3.8348   -6.7602    4.2363 C   0  0  0  0  0  0  0  0  0  0  0  0
    4.0259   -5.2502    3.8769 C   0  0  1  0  0  0  0  0  0  0  0  0
    5.4643   -5.0197    3.4045 C   0  0  0  0  0  0  0  0  0  0  0  0
    5.8469   -5.9659    2.2651 C   0  0  1  0  0  0  0  0  0  0  0  0
    5.8627   -5.2529    0.8801 C   0  0  2  0  0  0  0  0  0  0  0  0
    6.9813   -4.2148    0.6230 C   0  0  0  0  0  0  0  0  0  0  0  0
    6.6160   -2.8036    1.0038 C   0  0  0  0  0  0  0  0  0  0  0  0
    5.3579   -2.3464    1.2017 C   0  0  0  0  0  0  0  0  0  0  0  0
    5.1265   -0.9110    1.6709 C   0  0  0  0  0  0  0  0  0  0  0  0
    3.9853   -0.7803    2.7042 C   0  0  1  0  0  0  0  0  0  0  0  0
    2.8500   -0.1871    2.0627 O   0  0  0  0  0  0  0  0  0  0  0  0
    1.8834    0.4051    2.9028 C   0  0  2  0  0  0  0  0  0  0  0  0
    1.0576   -0.6168    3.4139 O   0  0  0  0  0  0  0  0  0  0  0  0
    0.0708   -0.1826    4.3361 C   0  0  1  0  0  0  0  0  0  0  0  0
    0.7107    0.3974    5.6128 C   0  0  0  0  0  0  0  0  0  0  0  0
   -0.8898    0.7578    3.6089 C   0  0  1  0  0  0  0  0  0  0  0  0
   -1.9411    1.1684    4.4705 O   0  0  0  0  0  0  0  0  0  0  0  0
   -0.1555    1.9279    2.9435 C   0  0  1  0  0  0  0  0  0  0  0  0
    0.3045    2.8503    3.9256 O   0  0  0  0  0  0  0  0  0  0  0  0
    1.0421    1.4142    2.0988 C   0  0  1  0  0  0  0  0  0  0  0  0
    1.8053    2.5429    1.7375 O   0  0  0  0  0  0  0  0  0  0  0  0
    3.6517   -2.1239    3.3767 C   0  0  0  0  0  0  0  0  0  0  0  0
    3.2347   -3.2115    2.3484 C   0  0  2  0  0  0  0  0  0  0  0  0
    2.8856   -4.6138    2.9794 C   0  0  2  0  0  0  0  0  0  0  0  0
    1.6433   -4.4272    3.8934 C   0  0  0  0  0  0  0  0  0  0  0  0
    2.3630   -5.4756    1.7889 C   0  0  0  0  0  0  0  0  0  0  0  0
    3.3010   -5.6677    0.5885 C   0  0  0  0  0  0  0  0  0  0  0  0
    4.4708   -4.6630    0.4740 C   0  0  1  0  0  0  0  0  0  0  0  0
    4.1050   -3.2202    1.0113 C   0  0  2  0  0  0  0  0  0  0  0  0
    3.2886   -2.5605   -0.1352 C   0  0  0  0  0  0  0  0  0  0  0  0
    6.9034   -7.0309    2.7056 C   0  0  0  0  0  0  0  0  0  0  0  0
    7.1740   -8.0570    1.5871 C   0  0  0  0  0  0  0  0  0  0  0  0
    8.2844   -6.3834    3.0073 C   0  0  0  0  0  0  0  0  0  0  0  0
    6.4380   -7.7851    4.0143 C   0  0  2  0  0  0  0  0  0  0  0  0
    5.4252   -8.8990    4.1711 C   0  0  0  0  0  0  0  0  0  0  0  0
    5.7992  -10.1129    5.0383 C   0  0  0  0  0  0  0  0  0  0  0  0
    4.6580   -9.4720    2.9783 C   0  0  0  0  0  0  0  0  0  0  0  0
    7.6587   -6.2444    9.5560 H   0  0  0  0  0  0  0  0  0  0  0  0
    6.8869   -5.4953    8.1573 H   0  0  0  0  0  0  0  0  0  0  0  0
    8.3664   -6.4318    7.9527 H   0  0  0  0  0  0  0  0  0  0  0  0
    7.1605   -8.5109    8.6004 H   0  0  0  0  0  0  0  0  0  0  0  0
    5.6781   -7.6292    8.8538 H   0  0  0  0  0  0  0  0  0  0  0  0
    3.4502   -7.2932    3.3876 H   0  0  0  0  0  0  0  0  0  0  0  0
    3.0232   -6.8663    4.9537 H   0  0  0  0  0  0  0  0  0  0  0  0
    3.9840   -4.7073    4.8256 H   0  0  0  0  0  0  0  0  0  0  0  0
    5.6657   -3.9946    3.1461 H   0  0  0  0  0  0  0  0  0  0  0  0
    6.1196   -5.1617    4.2611 H   0  0  0  0  0  0  0  0  0  0  0  0
    5.0232   -6.6411    2.1078 H   0  0  0  0  0  0  0  0  0  0  0  0
    6.0529   -6.0461    0.1554 H   0  0  0  0  0  0  0  0  0  0  0  0
    7.8983   -4.4636    1.1396 H   0  0  0  0  0  0  0  0  0  0  0  0
    7.2266   -4.1886   -0.4367 H   0  0  0  0  0  0  0  0  0  0  0  0
    7.4388   -2.1247    1.1380 H   0  0  0  0  0  0  0  0  0  0  0  0
    6.0501   -0.5532    2.1182 H   0  0  0  0  0  0  0  0  0  0  0  0
    4.9299   -0.2733    0.8084 H   0  0  0  0  0  0  0  0  0  0  0  0
    4.3356   -0.0870    3.4655 H   0  0  0  0  0  0  0  0  0  0  0  0
    2.3771    0.9122    3.7328 H   0  0  0  0  0  0  0  0  0  0  0  0
   -0.4882   -1.0711    4.5948 H   0  0  0  0  0  0  0  0  0  0  0  0
   -0.0493    0.7681    6.3048 H   0  0  0  0  0  0  0  0  0  0  0  0
    1.3923    1.2246    5.3776 H   0  0  0  0  0  0  0  0  0  0  0  0
    1.2693   -0.3652    6.1711 H   0  0  0  0  0  0  0  0  0  0  0  0
   -1.3674    0.1933    2.8130 H   0  0  0  0  0  0  0  0  0  0  0  0
   -2.6691    1.4577    3.9397 H   0  0  0  0  0  0  0  0  0  0  0  0
   -0.8396    2.4718    2.2806 H   0  0  0  0  0  0  0  0  0  0  0  0
    0.8353    3.4839    3.4772 H   0  0  0  0  0  0  0  0  0  0  0  0
    0.6695    0.9014    1.2033 H   0  0  0  0  0  0  0  0  0  0  0  0
    1.2243    3.1647    1.3122 H   0  0  0  0  0  0  0  0  0  0  0  0
    4.5092   -2.4429    3.9719 H   0  0  0  0  0  0  0  0  0  0  0  0
    2.8635   -1.9849    4.1037 H   0  0  0  0  0  0  0  0  0  0  0  0
    2.2653   -2.8286    2.0109 H   0  0  0  0  0  0  0  0  0  0  0  0
    0.8308   -3.9010    3.3916 H   0  0  0  0  0  0  0  0  0  0  0  0
    1.8745   -3.8606    4.7972 H   0  0  0  0  0  0  0  0  0  0  0  0
    1.2468   -5.3890    4.2197 H   0  0  0  0  0  0  0  0  0  0  0  0
    1.9627   -6.4386    2.1170 H   0  0  0  0  0  0  0  0  0  0  0  0
    1.4957   -4.9613    1.3894 H   0  0  0  0  0  0  0  0  0  0  0  0
    3.6597   -6.6866    0.5413 H   0  0  0  0  0  0  0  0  0  0  0  0
    2.6861   -5.5811   -0.3155 H   0  0  0  0  0  0  0  0  0  0  0  0
    4.6166   -4.5414   -0.5902 H   0  0  0  0  0  0  0  0  0  0  0  0
    2.4073   -3.1441   -0.3883 H   0  0  0  0  0  0  0  0  0  0  0  0
    3.8838   -2.4422   -1.0380 H   0  0  0  0  0  0  0  0  0  0  0  0
    2.9350   -1.5703    0.1219 H   0  0  0  0  0  0  0  0  0  0  0  0
    7.6986   -8.9233    1.9877 H   0  0  0  0  0  0  0  0  0  0  0  0
    7.7941   -7.6344    0.7976 H   0  0  0  0  0  0  0  0  0  0  0  0
    6.2661   -8.4101    1.1056 H   0  0  0  0  0  0  0  0  0  0  0  0
    8.9603   -7.0956    3.4807 H   0  0  0  0  0  0  0  0  0  0  0  0
    8.2235   -5.5171    3.6623 H   0  0  0  0  0  0  0  0  0  0  0  0
    8.8039   -6.0813    2.1026 H   0  0  0  0  0  0  0  0  0  0  0  0
    7.3126   -7.9728    4.6297 H   0  0  0  0  0  0  0  0  0  0  0  0
    6.2789  -10.8812    4.4279 H   0  0  0  0  0  0  0  0  0  0  0  0
    4.9035  -10.5473    5.4890 H   0  0  0  0  0  0  0  0  0  0  0  0
    6.5062   -9.8755    5.8263 H   0  0  0  0  0  0  0  0  0  0  0  0
    5.2443  -10.2535    2.4934 H   0  0  0  0  0  0  0  0  0  0  0  0
    4.4391   -8.7272    2.2283 H   0  0  0  0  0  0  0  0  0  0  0  0
    3.7164   -9.9123    3.3113 H   0  0  0  0  0  0  0  0  0  0  0  0
  1  2  1  0
  1 44  1  0
  1 45  1  0
  1 46  1  0
  2  3  1  0
  2 47  1  0
  2 48  1  0
  3  4  1  0
  4  5  2  0
  6  4  1  1
  6 40  1  0
  6 41  1  0
  6  7  1  0
  7  8  1  0
  7 49  1  0
  7 50  1  0
  8 30  1  0
  8  9  1  0
  8 51  1  1
  9 10  1  0
  9 52  1  0
  9 53  1  0
 10 11  1  0
 10 37  1  0
 10 54  1  6
 11 34  1  0
 11 12  1  0
 11 55  1  6
 12 13  1  0
 12 56  1  0
 12 57  1  0
 13 14  2  0
 13 58  1  0
 14 35  1  0
 14 15  1  0
 15 16  1  0
 15 59  1  0
 15 60  1  0
 16 17  1  0
 16 28  1  0
 16 61  1  1
 17 18  1  0
 18 26  1  0
 18 19  1  0
 18 62  1  1
 19 20  1  0
 20 21  1  0
 20 22  1  0
 20 63  1  1
 21 64  1  0
 21 65  1  0
 21 66  1  0
 22 23  1  0
 22 24  1  0
 22 67  1  6
 23 68  1  0
 24 25  1  0
 24 26  1  0
 24 69  1  6
 25 70  1  0
 26 27  1  0
 26 71  1  6
 27 72  1  0
 28 29  1  0
 28 73  1  0
 28 74  1  0
 29 35  1  0
 29 30  1  0
 29 75  1  6
 30 31  1  1
 30 32  1  0
 31 76  1  0
 31 77  1  0
 31 78  1  0
 32 33  1  0
 32 79  1  0
 32 80  1  0
 33 34  1  0
 33 81  1  0
 33 82  1  0
 34 35  1  0
 34 83  1  6
 35 36  1  6
 36 84  1  0
 36 85  1  0
 36 86  1  0
 37 38  1  0
 37 39  1  0
 37 40  1  0
 38 87  1  0
 38 88  1  0
 38 89  1  0
 39 90  1  0
 39 91  1  0
 39 92  1  0
 40 41  1  0
 40 93  1  1
 41 42  1  0
 41 43  1  0
 42 94  1  0
 42 95  1  0
 42 96  1  0
 43 97  1  0
 43 98  1  0
 43 99  1  0
M  END
>  <i_m_ct_stereo_status>  (4) 
1

>  <s_m_source_file>  (4) 
/var/tmp/pbs.5076255.sched01/tmp44bw07az/09l6mph0o.sdf

>  <i_m_source_file_index>  (4) 
4

>  <i_lp_mmshare_version>  (4) 
48012

>  <i_f3d_flags>  (4) 
0

>  <s_epik_input>  (4) 
W0NIM11bQ0gyXU9DKD1PKVtDQF0xMltDQEBIXShDMihbQ0gzXSlbQ0gzXSlDKFtDSDNdKShbQ0gzXSlbQ0BASF0zW0NASF00W0NAQEhdNVtDQF02KFtDSDNdKUMoPVtDSF1bQ0gyXTQpW0NIMl1bQ0BIXShbQ0gyXVtDQEBIXTZbQ0BdKFtDSDNdKShbQ0BASF0oW0NIMl0xKVtDSDJdMylbQ0gyXVtDSDJdNSlPW0NAQEhdN09bQ0BASF0oW0NIM10pW0NAQEhdKFtPSF0pW0NAQEhdKFtPSF0pW0NASF03W09IXQ==

>  <s_epik_cmdline>  (4) 
J2VwaWtfcHl0aG9uJywgJy1waHQnLCAnMi4wJywgJy1waCcsICc3LjAnLCAnLXRuJywgJzgnLCAnLW1hJywgJzIwMCcsICctaW1hZScsICc8aW5maWxlLm1hZT4nLCAnLW9tYWUnLCAnPG91dGZpbGUubWFlPic=

>  <r_lp_tautomer_probability>  (4) 
1

>  <r_epik_Ionization_Penalty>  (4) 
1.6196e-06

>  <r_epik_Ionization_Penalty_Charging>  (4) 
0

>  <r_epik_Ionization_Penalty_Neutral>  (4) 
1.6196e-06

>  <r_epik_State_Penalty>  (4) 
-0

>  <r_epik_Charging_Adjusted_Penalty>  (4) 
0

>  <i_epik_Tot_Q>  (4) 
0

>  <i_epik_Tot_abs_Q>  (4) 
0

>  <s_epik_Chemistry_Notes>  (4) 
This compound has an ester and may undergo hydrolysis at high or low pH. This compound contains an acetal/aminal-like group ( X-CH(R)-Y where X, Y are N, S, or O) that may be acid/base labile, releasing an aldehyde.

>  <s_lp_Force_Field>  (4) 
OPLS3e

>  <r_lp_Energy>  (4) 
132.157

>  <b_lp_Chiralities_Consistent>  (4) 
1

>  <s_lp_Variant>  (4) 
2:0-1

>  <s_i_glide_gridfile>  (4) 
pfpi4k_grid

>  <i_i_glide_lignum>  (4) 
4

>  <i_i_glide_rotatable_bonds>  (4) 
8

>  <r_i_docking_score>  (4) 
-3.2818

>  <r_i_glide_ligand_efficiency>  (4) 
-0.0763209

>  <r_i_glide_ligand_efficiency_sa>  (4) 
-0.267382

>  <r_i_glide_ligand_efficiency_ln>  (4) 
-0.68928

>  <r_i_glide_gscore>  (4) 
-3.2818

>  <r_i_glide_lipo>  (4) 
-0.731636

>  <r_i_glide_hbond>  (4) 
0

>  <r_i_glide_metal>  (4) 
-0

>  <r_i_glide_rewards>  (4) 
0

>  <r_i_glide_evdw>  (4) 
-32.0986

>  <r_i_glide_ecoul>  (4) 
-6.97796

>  <r_i_glide_erotb>  (4) 
0.115408

>  <r_i_glide_esite>  (4) 
-0.0139467

>  <r_i_glide_emodel>  (4) 
-45.5422

>  <r_i_glide_energy>  (4) 
-39.0766

>  <r_i_glide_einternal>  (4) 
3.31235

>  <r_i_glide_intrahb_reward>  (4) 
-0

>  <i_i_glide_confnum>  (4) 
2

>  <i_i_glide_posenum>  (4) 
32

>  <r_i_glide_eff_state_penalty>  (4) 
0

>  <ligand_id>  (4) 
2

>  <original_smiles>  (4) 
CCOC(=O)C12CC3CC(C4CC=C5CC(OC6OC(C)C(O)C(O)C6O)CC6C3(C)CCC4C56C)C(C)(C)C1C2(C)C

>  <smiles>  (4) 
[H]OC1([H])C([H])(OC2([H])C([H])([H])C3=C([H])C([H])([H])C4([H])C5([H])C([H])([H])C([H])([H])C(C([H])([H])[H])(C6([H])C([H])([H])C4([H])C(C([H])([H])[H])(C([H])([H])[H])C4([H])C(C(=O)OC([H])([H])C([H])([H])[H])(C6([H])[H])C4(C([H])([H])[H])C([H])([H])[H])C([H])(C2([H])[H])C35C([H])([H])[H])OC([H])(C([H])([H])[H])C([H])(O[H])C1([H])O[H]

$$$$
2:0:1
     RDKit          3D

 99105  0  0  1  0  0  0  0  0999 V2000
    3.6911   -2.6272    7.7902 C   0  0  0  0  0  0  0  0  0  0  0  0
    2.5357   -3.4794    8.3339 C   0  0  0  0  0  0  0  0  0  0  0  0
    2.5367   -4.7666    7.7218 O   0  0  0  0  0  0  0  0  0  0  0  0
    1.4489   -5.5647    7.8187 C   0  0  0  0  0  0  0  0  0  0  0  0
    0.3990   -5.2670    8.3812 O   0  0  0  0  0  0  0  0  0  0  0  0
    1.5996   -6.8955    7.0896 C   0  0  1  0  0  0  0  0  0  0  0  0
    1.3982   -6.6616    5.5633 C   0  0  0  0  0  0  0  0  0  0  0  0
    2.6647   -6.2392    4.7496 C   0  0  1  0  0  0  0  0  0  0  0  0
    3.9168   -6.8362    5.4037 C   0  0  0  0  0  0  0  0  0  0  0  0
    3.7978   -8.3508    5.5825 C   0  0  1  0  0  0  0  0  0  0  0  0
    4.6472   -9.1366    4.5430 C   0  0  2  0  0  0  0  0  0  0  0  0
    6.1864   -9.0634    4.6733 C   0  0  0  0  0  0  0  0  0  0  0  0
    6.8270   -7.9321    3.9015 C   0  0  0  0  0  0  0  0  0  0  0  0
    6.2381   -7.2675    2.8873 C   0  0  0  0  0  0  0  0  0  0  0  0
    6.9667   -6.0950    2.2226 C   0  0  0  0  0  0  0  0  0  0  0  0
    6.0282   -4.9254    1.8636 C   0  0  1  0  0  0  0  0  0  0  0  0
    5.8635   -4.8839    0.4446 O   0  0  0  0  0  0  0  0  0  0  0  0
    5.3261   -3.6957   -0.0766 C   0  0  2  0  0  0  0  0  0  0  0  0
    3.9308   -3.8246   -0.0992 O   0  0  0  0  0  0  0  0  0  0  0  0
    3.2278   -2.6885   -0.5659 C   0  0  1  0  0  0  0  0  0  0  0  0
    3.3794   -1.5004    0.4111 C   0  0  0  0  0  0  0  0  0  0  0  0
    3.6262   -2.4409   -2.0364 C   0  0  1  0  0  0  0  0  0  0  0  0
    2.9726   -1.3113   -2.5819 O   0  0  0  0  0  0  0  0  0  0  0  0
    5.1460   -2.2954   -2.1872 C   0  0  1  0  0  0  0  0  0  0  0  0
    5.5765   -1.0738   -1.6331 O   0  0  0  0  0  0  0  0  0  0  0  0
    5.8577   -3.4819   -1.5100 C   0  0  1  0  0  0  0  0  0  0  0  0
    7.2523   -3.1744   -1.5205 O   0  0  0  0  0  0  0  0  0  0  0  0
    4.6990   -4.9736    2.6384 C   0  0  0  0  0  0  0  0  0  0  0  0
    3.9184   -6.2925    2.3983 C   0  0  2  0  0  0  0  0  0  0  0  0
    2.5596   -6.4141    3.1755 C   0  0  2  0  0  0  0  0  0  0  0  0
    1.6236   -5.2844    2.6774 C   0  0  0  0  0  0  0  0  0  0  0  0
    1.9018   -7.7277    2.6401 C   0  0  0  0  0  0  0  0  0  0  0  0
    2.7035   -9.0336    2.7862 C   0  0  0  0  0  0  0  0  0  0  0  0
    4.2131   -8.8586    3.0662 C   0  0  1  0  0  0  0  0  0  0  0  0
    4.8359   -7.5917    2.3561 C   0  0  2  0  0  0  0  0  0  0  0  0
    5.0044   -8.0216    0.8824 C   0  0  0  0  0  0  0  0  0  0  0  0
    3.6715   -8.7592    7.0882 C   0  0  0  0  0  0  0  0  0  0  0  0
    3.4228  -10.2761    7.2296 C   0  0  0  0  0  0  0  0  0  0  0  0
    4.9754   -8.4849    7.8784 C   0  0  0  0  0  0  0  0  0  0  0  0
    2.5151   -7.9565    7.7829 C   0  0  2  0  0  0  0  0  0  0  0  0
    1.0198   -8.1847    7.7118 C   0  0  0  0  0  0  0  0  0  0  0  0
    0.2486   -8.1609    9.0229 C   0  0  0  0  0  0  0  0  0  0  0  0
    0.3904   -9.3000    6.8752 C   0  0  0  0  0  0  0  0  0  0  0  0
    3.7043   -1.6412    8.2578 H   0  0  0  0  0  0  0  0  0  0  0  0
    3.5967   -2.4792    6.7142 H   0  0  0  0  0  0  0  0  0  0  0  0
    4.6533   -3.0984    7.9896 H   0  0  0  0  0  0  0  0  0  0  0  0
    2.6311   -3.5854    9.4170 H   0  0  0  0  0  0  0  0  0  0  0  0
    1.5923   -2.9591    8.1495 H   0  0  0  0  0  0  0  0  0  0  0  0
    0.9726   -7.5497    5.1297 H   0  0  0  0  0  0  0  0  0  0  0  0
    0.6107   -5.9142    5.4350 H   0  0  0  0  0  0  0  0  0  0  0  0
    2.7853   -5.1655    4.9155 H   0  0  0  0  0  0  0  0  0  0  0  0
    4.8275   -6.5690    4.8962 H   0  0  0  0  0  0  0  0  0  0  0  0
    4.0598   -6.3501    6.3649 H   0  0  0  0  0  0  0  0  0  0  0  0
    2.8112   -8.6428    5.2656 H   0  0  0  0  0  0  0  0  0  0  0  0
    4.4068  -10.1878    4.7116 H   0  0  0  0  0  0  0  0  0  0  0  0
    6.5109   -8.9712    5.7013 H   0  0  0  0  0  0  0  0  0  0  0  0
    6.6346   -9.9793    4.2917 H   0  0  0  0  0  0  0  0  0  0  0  0
    7.8215   -7.6652    4.2082 H   0  0  0  0  0  0  0  0  0  0  0  0
    7.7252   -5.7342    2.9133 H   0  0  0  0  0  0  0  0  0  0  0  0
    7.4897   -6.4440    1.3331 H   0  0  0  0  0  0  0  0  0  0  0  0
    6.5558   -4.0169    2.1388 H   0  0  0  0  0  0  0  0  0  0  0  0
    5.5892   -2.8502    0.5599 H   0  0  0  0  0  0  0  0  0  0  0  0
    2.1888   -3.0012   -0.5966 H   0  0  0  0  0  0  0  0  0  0  0  0
    2.8616   -0.6225    0.0313 H   0  0  0  0  0  0  0  0  0  0  0  0
    4.4233   -1.2226    0.6184 H   0  0  0  0  0  0  0  0  0  0  0  0
    2.8898   -1.7099    1.3656 H   0  0  0  0  0  0  0  0  0  0  0  0
    3.3001   -3.2926   -2.6393 H   0  0  0  0  0  0  0  0  0  0  0  0
    2.1611   -1.1676   -2.0985 H   0  0  0  0  0  0  0  0  0  0  0  0
    5.4088   -2.2784   -3.2539 H   0  0  0  0  0  0  0  0  0  0  0  0
    5.0828   -0.9098   -0.8228 H   0  0  0  0  0  0  0  0  0  0  0  0
    5.6588   -4.3903   -2.0831 H   0  0  0  0  0  0  0  0  0  0  0  0
    7.5851   -3.2166   -2.3944 H   0  0  0  0  0  0  0  0  0  0  0  0
    4.9014   -4.8180    3.6988 H   0  0  0  0  0  0  0  0  0  0  0  0
    4.0827   -4.1288    2.3558 H   0  0  0  0  0  0  0  0  0  0  0  0
    3.6083   -6.1596    1.3574 H   0  0  0  0  0  0  0  0  0  0  0  0
    1.5690   -5.2569    1.5895 H   0  0  0  0  0  0  0  0  0  0  0  0
    1.9506   -4.2956    3.0044 H   0  0  0  0  0  0  0  0  0  0  0  0
    0.6110   -5.4252    3.0530 H   0  0  0  0  0  0  0  0  0  0  0  0
    0.8845   -7.8642    3.0112 H   0  0  0  0  0  0  0  0  0  0  0  0
    1.7740   -7.5994    1.5676 H   0  0  0  0  0  0  0  0  0  0  0  0
    2.2485   -9.6644    3.5397 H   0  0  0  0  0  0  0  0  0  0  0  0
    2.5812   -9.6193    1.8628 H   0  0  0  0  0  0  0  0  0  0  0  0
    4.6693   -9.7090    2.5751 H   0  0  0  0  0  0  0  0  0  0  0  0
    4.0653   -8.3470    0.4413 H   0  0  0  0  0  0  0  0  0  0  0  0
    5.7226   -8.8336    0.7869 H   0  0  0  0  0  0  0  0  0  0  0  0
    5.3647   -7.2022    0.2726 H   0  0  0  0  0  0  0  0  0  0  0  0
    3.0857  -10.5397    8.2338 H   0  0  0  0  0  0  0  0  0  0  0  0
    4.3264  -10.8519    7.0313 H   0  0  0  0  0  0  0  0  0  0  0  0
    2.6806  -10.6459    6.5276 H   0  0  0  0  0  0  0  0  0  0  0  0
    4.8181   -8.6081    8.9502 H   0  0  0  0  0  0  0  0  0  0  0  0
    5.3722   -7.4843    7.7242 H   0  0  0  0  0  0  0  0  0  0  0  0
    5.7580   -9.1951    7.6325 H   0  0  0  0  0  0  0  0  0  0  0  0
    2.8091   -7.6885    8.7965 H   0  0  0  0  0  0  0  0  0  0  0  0
    0.2199   -9.1514    9.4806 H   0  0  0  0  0  0  0  0  0  0  0  0
   -0.7724   -7.8449    8.8260 H   0  0  0  0  0  0  0  0  0  0  0  0
    0.6979   -7.4771    9.7400 H   0  0  0  0  0  0  0  0  0  0  0  0
    0.3633  -10.2296    7.4479 H   0  0  0  0  0  0  0  0  0  0  0  0
    0.9441   -9.4944    5.9693 H   0  0  0  0  0  0  0  0  0  0  0  0
   -0.6351   -9.0445    6.6023 H   0  0  0  0  0  0  0  0  0  0  0  0
  1  2  1  0
  1 44  1  0
  1 45  1  0
  1 46  1  0
  2  3  1  0
  2 47  1  0
  2 48  1  0
  3  4  1  0
  4  5  2  0
  6  4  1  1
  6 40  1  0
  6 41  1  0
  6  7  1  0
  7  8  1  0
  7 49  1  0
  7 50  1  0
  8 30  1  0
  8  9  1  0
  8 51  1  6
  9 10  1  0
  9 52  1  0
  9 53  1  0
 10 11  1  0
 10 37  1  0
 10 54  1  6
 11 34  1  0
 11 12  1  0
 11 55  1  1
 12 13  1  0
 12 56  1  0
 12 57  1  0
 13 14  2  0
 13 58  1  0
 14 35  1  0
 14 15  1  0
 15 16  1  0
 15 59  1  0
 15 60  1  0
 16 17  1  0
 16 28  1  0
 16 61  1  1
 17 18  1  0
 18 26  1  0
 18 19  1  0
 18 62  1  1
 19 20  1  0
 20 21  1  0
 20 22  1  0
 20 63  1  6
 21 64  1  0
 21 65  1  0
 21 66  1  0
 22 23  1  0
 22 24  1  0
 22 67  1  6
 23 68  1  0
 24 25  1  0
 24 26  1  0
 24 69  1  6
 25 70  1  0
 26 27  1  0
 26 71  1  6
 27 72  1  0
 28 29  1  0
 28 73  1  0
 28 74  1  0
 29 35  1  0
 29 30  1  0
 29 75  1  6
 30 31  1  6
 30 32  1  0
 31 76  1  0
 31 77  1  0
 31 78  1  0
 32 33  1  0
 32 79  1  0
 32 80  1  0
 33 34  1  0
 33 81  1  0
 33 82  1  0
 34 35  1  0
 34 83  1  6
 35 36  1  6
 36 84  1  0
 36 85  1  0
 36 86  1  0
 37 38  1  0
 37 39  1  0
 37 40  1  0
 38 87  1  0
 38 88  1  0
 38 89  1  0
 39 90  1  0
 39 91  1  0
 39 92  1  0
 40 41  1  0
 40 93  1  1
 41 42  1  0
 41 43  1  0
 42 94  1  0
 42 95  1  0
 42 96  1  0
 43 97  1  0
 43 98  1  0
 43 99  1  0
M  END
>  <i_m_ct_stereo_status>  (5) 
1

>  <s_m_source_file>  (5) 
/var/tmp/pbs.5076255.sched01/tmp44bw07az/09l6mph0o.sdf

>  <i_m_source_file_index>  (5) 
4

>  <i_lp_mmshare_version>  (5) 
48012

>  <i_f3d_flags>  (5) 
0

>  <s_epik_input>  (5) 
W0NIM11bQ0gyXU9DKD1PKVtDQF0xMltDQEBIXShDMihbQ0gzXSlbQ0gzXSlDKFtDSDNdKShbQ0gzXSlbQ0BASF0zW0NASF00W0NAQEhdNVtDQF02KFtDSDNdKUMoPVtDSF1bQ0gyXTQpW0NIMl1bQ0BIXShbQ0gyXVtDQEBIXTZbQ0BdKFtDSDNdKShbQ0BASF0oW0NIMl0xKVtDSDJdMylbQ0gyXVtDSDJdNSlPW0NAQEhdN09bQ0BASF0oW0NIM10pW0NAQEhdKFtPSF0pW0NAQEhdKFtPSF0pW0NASF03W09IXQ==

>  <s_epik_cmdline>  (5) 
J2VwaWtfcHl0aG9uJywgJy1waHQnLCAnMi4wJywgJy1waCcsICc3LjAnLCAnLXRuJywgJzgnLCAnLW1hJywgJzIwMCcsICctaW1hZScsICc8aW5maWxlLm1hZT4nLCAnLW9tYWUnLCAnPG91dGZpbGUubWFlPic=

>  <r_lp_tautomer_probability>  (5) 
1

>  <r_epik_Ionization_Penalty>  (5) 
1.6196e-06

>  <r_epik_Ionization_Penalty_Charging>  (5) 
0

>  <r_epik_Ionization_Penalty_Neutral>  (5) 
1.6196e-06

>  <r_epik_State_Penalty>  (5) 
-0

>  <r_epik_Charging_Adjusted_Penalty>  (5) 
0

>  <i_epik_Tot_Q>  (5) 
0

>  <i_epik_Tot_abs_Q>  (5) 
0

>  <s_epik_Chemistry_Notes>  (5) 
This compound has an ester and may undergo hydrolysis at high or low pH. This compound contains an acetal/aminal-like group ( X-CH(R)-Y where X, Y are N, S, or O) that may be acid/base labile, releasing an aldehyde.

>  <s_lp_Force_Field>  (5) 
OPLS3e

>  <r_lp_Energy>  (5) 
132.157

>  <b_lp_Chiralities_Consistent>  (5) 
1

>  <s_lp_Variant>  (5) 
2:0-1

>  <s_i_glide_gridfile>  (5) 
pfpi4k_grid

>  <i_i_glide_lignum>  (5) 
4

>  <i_i_glide_rotatable_bonds>  (5) 
8

>  <r_i_docking_score>  (5) 
-3.04103

>  <r_i_glide_ligand_efficiency>  (5) 
-0.0707215

>  <r_i_glide_ligand_efficiency_sa>  (5) 
-0.247766

>  <r_i_glide_ligand_efficiency_ln>  (5) 
-0.63871

>  <r_i_glide_gscore>  (5) 
-3.04103

>  <r_i_glide_lipo>  (5) 
-0.311694

>  <r_i_glide_hbond>  (5) 
0

>  <r_i_glide_metal>  (5) 
-0

>  <r_i_glide_rewards>  (5) 
-0.0730902

>  <r_i_glide_evdw>  (5) 
-32.5195

>  <r_i_glide_ecoul>  (5) 
-7.63784

>  <r_i_glide_erotb>  (5) 
0.115408

>  <r_i_glide_esite>  (5) 
0

>  <r_i_glide_emodel>  (5) 
-45.3712

>  <r_i_glide_energy>  (5) 
-40.1573

>  <r_i_glide_einternal>  (5) 
4.87859

>  <r_i_glide_intrahb_reward>  (5) 
-0

>  <i_i_glide_confnum>  (5) 
3

>  <i_i_glide_posenum>  (5) 
2

>  <r_i_glide_eff_state_penalty>  (5) 
0

>  <ligand_id>  (5) 
2

>  <original_smiles>  (5) 
CCOC(=O)C12CC3CC(C4CC=C5CC(OC6OC(C)C(O)C(O)C6O)CC6C3(C)CCC4C56C)C(C)(C)C1C2(C)C

>  <smiles>  (5) 
[H]OC1([H])C([H])(OC2([H])C([H])([H])C3=C([H])C([H])([H])C4([H])C5([H])C([H])([H])C([H])([H])C(C([H])([H])[H])(C6([H])C([H])([H])C4([H])C(C([H])([H])[H])(C([H])([H])[H])C4([H])C(C(=O)OC([H])([H])C([H])([H])[H])(C6([H])[H])C4(C([H])([H])[H])C([H])([H])[H])C([H])(C2([H])[H])C35C([H])([H])[H])OC([H])(C([H])([H])[H])C([H])(O[H])C1([H])O[H]

$$$$
2:0:2
     RDKit          3D

 99105  0  0  1  0  0  0  0  0999 V2000
    0.2271   -8.9973    7.8607 C   0  0  0  0  0  0  0  0  0  0  0  0
    0.2090   -9.5399    6.4257 C   0  0  0  0  0  0  0  0  0  0  0  0
    1.4509   -9.2621    5.7871 O   0  0  0  0  0  0  0  0  0  0  0  0
    1.9371  -10.1014    4.8454 C   0  0  0  0  0  0  0  0  0  0  0  0
    1.3814  -11.1119    4.4161 O   0  0  0  0  0  0  0  0  0  0  0  0
    3.2694   -9.6483    4.2715 C   0  0  1  0  0  0  0  0  0  0  0  0
    2.9930   -8.6696    3.0957 C   0  0  0  0  0  0  0  0  0  0  0  0
    2.8173   -7.1601    3.4731 C   0  0  1  0  0  0  0  0  0  0  0  0
    3.6404   -6.8496    4.7313 C   0  0  0  0  0  0  0  0  0  0  0  0
    5.1042   -7.2640    4.5655 C   0  0  1  0  0  0  0  0  0  0  0  0
    6.0320   -6.0338    4.3283 C   0  0  2  0  0  0  0  0  0  0  0  0
    6.2457   -5.0702    5.5203 C   0  0  0  0  0  0  0  0  0  0  0  0
    5.2622   -3.9238    5.5714 C   0  0  0  0  0  0  0  0  0  0  0  0
    4.4965   -3.5095    4.5459 C   0  0  0  0  0  0  0  0  0  0  0  0
    3.4861   -2.3809    4.7365 C   0  0  0  0  0  0  0  0  0  0  0  0
    2.1364   -2.6160    4.0067 C   0  0  1  0  0  0  0  0  0  0  0  0
    1.9715   -1.7648    2.8681 O   0  0  0  0  0  0  0  0  0  0  0  0
    1.6274   -0.4462    3.1656 C   0  0  2  0  0  0  0  0  0  0  0  0
    0.2548   -0.4112    3.4503 O   0  0  0  0  0  0  0  0  0  0  0  0
   -0.2947    0.8449    3.7867 C   0  0  1  0  0  0  0  0  0  0  0  0
    0.2221    1.3500    5.1474 C   0  0  0  0  0  0  0  0  0  0  0  0
   -0.0898    1.7921    2.6157 C   0  0  1  0  0  0  0  0  0  0  0  0
   -0.6590    3.0654    2.8956 O   0  0  0  0  0  0  0  0  0  0  0  0
    1.3949    1.8787    2.2029 C   0  0  1  0  0  0  0  0  0  0  0  0
    2.1737    2.5830    3.1801 O   0  0  0  0  0  0  0  0  0  0  0  0
    1.9457    0.4517    1.9542 C   0  0  1  0  0  0  0  0  0  0  0  0
    3.3301    0.5854    1.7152 O   0  0  0  0  0  0  0  0  0  0  0  0
    1.9505   -4.0846    3.5973 C   0  0  0  0  0  0  0  0  0  0  0  0
    3.1098   -4.6149    2.7002 C   0  0  2  0  0  0  0  0  0  0  0  0
    2.9714   -6.1293    2.2713 C   0  0  2  0  0  0  0  0  0  0  0  0
    1.6860   -6.2689    1.4184 C   0  0  0  0  0  0  0  0  0  0  0  0
    4.1351   -6.3743    1.2628 C   0  0  0  0  0  0  0  0  0  0  0  0
    5.5658   -6.0956    1.7549 C   0  0  0  0  0  0  0  0  0  0  0  0
    5.6809   -5.2306    3.0330 C   0  0  1  0  0  0  0  0  0  0  0  0
    4.5583   -4.1254    3.1359 C   0  0  2  0  0  0  0  0  0  0  0  0
    5.0110   -2.9902    2.1768 C   0  0  0  0  0  0  0  0  0  0  0  0
    5.4897   -8.4805    5.4739 C   0  0  0  0  0  0  0  0  0  0  0  0
    6.9354   -8.9578    5.1973 C   0  0  0  0  0  0  0  0  0  0  0  0
    5.4613   -8.1159    6.9795 C   0  0  0  0  0  0  0  0  0  0  0  0
    4.4790   -9.6672    5.2626 C   0  0  2  0  0  0  0  0  0  0  0  0
    4.4145  -10.6690    4.1230 C   0  0  0  0  0  0  0  0  0  0  0  0
    4.2223  -12.1371    4.4973 C   0  0  0  0  0  0  0  0  0  0  0  0
    5.3958  -10.6532    2.9584 C   0  0  0  0  0  0  0  0  0  0  0  0
   -0.7294   -9.1795    8.3442 H   0  0  0  0  0  0  0  0  0  0  0  0
    0.3958   -7.9212    7.8785 H   0  0  0  0  0  0  0  0  0  0  0  0
    1.0013   -9.4922    8.4495 H   0  0  0  0  0  0  0  0  0  0  0  0
   -0.0022  -10.6153    6.4548 H   0  0  0  0  0  0  0  0  0  0  0  0
   -0.6054   -9.0749    5.8615 H   0  0  0  0  0  0  0  0  0  0  0  0
    3.7772   -8.7705    2.3646 H   0  0  0  0  0  0  0  0  0  0  0  0
    2.1041   -9.0186    2.5666 H   0  0  0  0  0  0  0  0  0  0  0  0
    1.7818   -7.0488    3.8221 H   0  0  0  0  0  0  0  0  0  0  0  0
    3.5537   -5.8230    5.0516 H   0  0  0  0  0  0  0  0  0  0  0  0
    3.1895   -7.3761    5.5694 H   0  0  0  0  0  0  0  0  0  0  0  0
    5.2029   -7.7523    3.6102 H   0  0  0  0  0  0  0  0  0  0  0  0
    7.0170   -6.4613    4.1356 H   0  0  0  0  0  0  0  0  0  0  0  0
    6.2140   -5.5754    6.4781 H   0  0  0  0  0  0  0  0  0  0  0  0
    7.2389   -4.6312    5.4500 H   0  0  0  0  0  0  0  0  0  0  0  0
    5.1960   -3.4344    6.5317 H   0  0  0  0  0  0  0  0  0  0  0  0
    3.2925   -2.3028    5.8020 H   0  0  0  0  0  0  0  0  0  0  0  0
    3.9589   -1.4449    4.4413 H   0  0  0  0  0  0  0  0  0  0  0  0
    1.3160   -2.3903    4.6844 H   0  0  0  0  0  0  0  0  0  0  0  0
    2.1397   -0.0858    4.0512 H   0  0  0  0  0  0  0  0  0  0  0  0
   -1.3593    0.6768    3.8320 H   0  0  0  0  0  0  0  0  0  0  0  0
   -0.2055    2.3176    5.4047 H   0  0  0  0  0  0  0  0  0  0  0  0
    1.3180    1.3982    5.1492 H   0  0  0  0  0  0  0  0  0  0  0  0
   -0.1145    0.7043    5.9531 H   0  0  0  0  0  0  0  0  0  0  0  0
   -0.6392    1.4238    1.7464 H   0  0  0  0  0  0  0  0  0  0  0  0
   -0.4066    3.6691    2.2230 H   0  0  0  0  0  0  0  0  0  0  0  0
    1.4438    2.4729    1.2840 H   0  0  0  0  0  0  0  0  0  0  0  0
    2.9542    2.8908    2.7369 H   0  0  0  0  0  0  0  0  0  0  0  0
    1.4918    0.0222    1.0661 H   0  0  0  0  0  0  0  0  0  0  0  0
    3.6911    1.1900    2.3573 H   0  0  0  0  0  0  0  0  0  0  0  0
    1.8333   -4.6899    4.5014 H   0  0  0  0  0  0  0  0  0  0  0  0
    1.0146   -4.1444    3.0455 H   0  0  0  0  0  0  0  0  0  0  0  0
    2.9224   -4.0627    1.7748 H   0  0  0  0  0  0  0  0  0  0  0  0
    1.6549   -5.5343    0.6120 H   0  0  0  0  0  0  0  0  0  0  0  0
    0.7804   -6.1477    2.0165 H   0  0  0  0  0  0  0  0  0  0  0  0
    1.6352   -7.2550    0.9553 H   0  0  0  0  0  0  0  0  0  0  0  0
    4.0767   -7.3607    0.7979 H   0  0  0  0  0  0  0  0  0  0  0  0
    3.9824   -5.6838    0.4344 H   0  0  0  0  0  0  0  0  0  0  0  0
    6.1011   -7.0304    1.8762 H   0  0  0  0  0  0  0  0  0  0  0  0
    6.1167   -5.5989    0.9486 H   0  0  0  0  0  0  0  0  0  0  0  0
    6.6041   -4.6796    2.8946 H   0  0  0  0  0  0  0  0  0  0  0  0
    5.1478   -3.3613    1.1641 H   0  0  0  0  0  0  0  0  0  0  0  0
    5.9525   -2.5488    2.4965 H   0  0  0  0  0  0  0  0  0  0  0  0
    4.2895   -2.1813    2.1198 H   0  0  0  0  0  0  0  0  0  0  0  0
    7.1244   -9.9402    5.6353 H   0  0  0  0  0  0  0  0  0  0  0  0
    7.6680   -8.2681    5.6184 H   0  0  0  0  0  0  0  0  0  0  0  0
    7.1641   -9.0155    4.1347 H   0  0  0  0  0  0  0  0  0  0  0  0
    5.5485   -9.0050    7.6013 H   0  0  0  0  0  0  0  0  0  0  0  0
    4.5533   -7.6023    7.2825 H   0  0  0  0  0  0  0  0  0  0  0  0
    6.3045   -7.4959    7.2647 H   0  0  0  0  0  0  0  0  0  0  0  0
    4.2526  -10.1405    6.2140 H   0  0  0  0  0  0  0  0  0  0  0  0
    5.1862  -12.6205    4.6599 H   0  0  0  0  0  0  0  0  0  0  0  0
    3.7097  -12.6617    3.6911 H   0  0  0  0  0  0  0  0  0  0  0  0
    3.6394  -12.2414    5.4091 H   0  0  0  0  0  0  0  0  0  0  0  0
    6.3002  -11.2002    3.2309 H   0  0  0  0  0  0  0  0  0  0  0  0
    5.6863   -9.6462    2.6906 H   0  0  0  0  0  0  0  0  0  0  0  0
    4.9470  -11.1267    2.0794 H   0  0  0  0  0  0  0  0  0  0  0  0
  1  2  1  0
  1 44  1  0
  1 45  1  0
  1 46  1  0
  2  3  1  0
  2 47  1  0
  2 48  1  0
  3  4  1  0
  4  5  2  0
  6  4  1  1
  6 40  1  0
  6 41  1  0
  6  7  1  0
  7  8  1  0
  7 49  1  0
  7 50  1  0
  8 30  1  0
  8  9  1  0
  8 51  1  1
  9 10  1  0
  9 52  1  0
  9 53  1  0
 10 11  1  0
 10 37  1  0
 10 54  1  6
 11 34  1  0
 11 12  1  0
 11 55  1  6
 12 13  1  0
 12 56  1  0
 12 57  1  0
 13 14  2  0
 13 58  1  0
 14 35  1  0
 14 15  1  0
 15 16  1  0
 15 59  1  0
 15 60  1  0
 16 17  1  0
 16 28  1  0
 16 61  1  1
 17 18  1  0
 18 26  1  0
 18 19  1  0
 18 62  1  1
 19 20  1  0
 20 21  1  0
 20 22  1  0
 20 63  1  1
 21 64  1  0
 21 65  1  0
 21 66  1  0
 22 23  1  0
 22 24  1  0
 22 67  1  6
 23 68  1  0
 24 25  1  0
 24 26  1  0
 24 69  1  6
 25 70  1  0
 26 27  1  0
 26 71  1  6
 27 72  1  0
 28 29  1  0
 28 73  1  0
 28 74  1  0
 29 35  1  0
 29 30  1  0
 29 75  1  6
 30 31  1  6
 30 32  1  0
 31 76  1  0
 31 77  1  0
 31 78  1  0
 32 33  1  0
 32 79  1  0
 32 80  1  0
 33 34  1  0
 33 81  1  0
 33 82  1  0
 34 35  1  0
 34 83  1  6
 35 36  1  6
 36 84  1  0
 36 85  1  0
 36 86  1  0
 37 38  1  0
 37 39  1  0
 37 40  1  0
 38 87  1  0
 38 88  1  0
 38 89  1  0
 39 90  1  0
 39 91  1  0
 39 92  1  0
 40 41  1  0
 40 93  1  1
 41 42  1  0
 41 43  1  0
 42 94  1  0
 42 95  1  0
 42 96  1  0
 43 97  1  0
 43 98  1  0
 43 99  1  0
M  END
>  <i_m_ct_stereo_status>  (6) 
1

>  <s_m_source_file>  (6) 
/var/tmp/pbs.5076255.sched01/tmp44bw07az/09l6mph0o.sdf

>  <i_m_source_file_index>  (6) 
4

>  <i_lp_mmshare_version>  (6) 
48012

>  <i_f3d_flags>  (6) 
0

>  <s_epik_input>  (6) 
W0NIM11bQ0gyXU9DKD1PKVtDQF0xMltDQEBIXShDMihbQ0gzXSlbQ0gzXSlDKFtDSDNdKShbQ0gzXSlbQ0BASF0zW0NASF00W0NAQEhdNVtDQF02KFtDSDNdKUMoPVtDSF1bQ0gyXTQpW0NIMl1bQ0BIXShbQ0gyXVtDQEBIXTZbQ0BdKFtDSDNdKShbQ0BASF0oW0NIMl0xKVtDSDJdMylbQ0gyXVtDSDJdNSlPW0NAQEhdN09bQ0BASF0oW0NIM10pW0NAQEhdKFtPSF0pW0NAQEhdKFtPSF0pW0NASF03W09IXQ==

>  <s_epik_cmdline>  (6) 
J2VwaWtfcHl0aG9uJywgJy1waHQnLCAnMi4wJywgJy1waCcsICc3LjAnLCAnLXRuJywgJzgnLCAnLW1hJywgJzIwMCcsICctaW1hZScsICc8aW5maWxlLm1hZT4nLCAnLW9tYWUnLCAnPG91dGZpbGUubWFlPic=

>  <r_lp_tautomer_probability>  (6) 
1

>  <r_epik_Ionization_Penalty>  (6) 
1.6196e-06

>  <r_epik_Ionization_Penalty_Charging>  (6) 
0

>  <r_epik_Ionization_Penalty_Neutral>  (6) 
1.6196e-06

>  <r_epik_State_Penalty>  (6) 
-0

>  <r_epik_Charging_Adjusted_Penalty>  (6) 
0

>  <i_epik_Tot_Q>  (6) 
0

>  <i_epik_Tot_abs_Q>  (6) 
0

>  <s_epik_Chemistry_Notes>  (6) 
This compound has an ester and may undergo hydrolysis at high or low pH. This compound contains an acetal/aminal-like group ( X-CH(R)-Y where X, Y are N, S, or O) that may be acid/base labile, releasing an aldehyde.

>  <s_lp_Force_Field>  (6) 
OPLS3e

>  <r_lp_Energy>  (6) 
132.157

>  <b_lp_Chiralities_Consistent>  (6) 
1

>  <s_lp_Variant>  (6) 
2:0-1

>  <s_i_glide_gridfile>  (6) 
pfpi4k_grid

>  <i_i_glide_lignum>  (6) 
4

>  <i_i_glide_rotatable_bonds>  (6) 
8

>  <r_i_docking_score>  (6) 
-2.68744

>  <r_i_glide_ligand_efficiency>  (6) 
-0.0624986

>  <r_i_glide_ligand_efficiency_sa>  (6) 
-0.218957

>  <r_i_glide_ligand_efficiency_ln>  (6) 
-0.564446

>  <r_i_glide_gscore>  (6) 
-2.68744

>  <r_i_glide_lipo>  (6) 
-0.219937

>  <r_i_glide_hbond>  (6) 
0

>  <r_i_glide_metal>  (6) 
-0

>  <r_i_glide_rewards>  (6) 
0

>  <r_i_glide_evdw>  (6) 
-34.7205

>  <r_i_glide_ecoul>  (6) 
-5.32338

>  <r_i_glide_erotb>  (6) 
0.115408

>  <r_i_glide_esite>  (6) 
-0.0483796

>  <r_i_glide_emodel>  (6) 
-45.674

>  <r_i_glide_energy>  (6) 
-40.0439

>  <r_i_glide_einternal>  (6) 
2.67675

>  <r_i_glide_intrahb_reward>  (6) 
-0

>  <i_i_glide_confnum>  (6) 
3

>  <i_i_glide_posenum>  (6) 
38

>  <r_i_glide_eff_state_penalty>  (6) 
0

>  <ligand_id>  (6) 
2

>  <original_smiles>  (6) 
CCOC(=O)C12CC3CC(C4CC=C5CC(OC6OC(C)C(O)C(O)C6O)CC6C3(C)CCC4C56C)C(C)(C)C1C2(C)C

>  <smiles>  (6) 
[H]OC1([H])C([H])(OC2([H])C([H])([H])C3=C([H])C([H])([H])C4([H])C5([H])C([H])([H])C([H])([H])C(C([H])([H])[H])(C6([H])C([H])([H])C4([H])C(C([H])([H])[H])(C([H])([H])[H])C4([H])C(C(=O)OC([H])([H])C([H])([H])[H])(C6([H])[H])C4(C([H])([H])[H])C([H])([H])[H])C([H])(C2([H])[H])C35C([H])([H])[H])OC([H])(C([H])([H])[H])C([H])(O[H])C1([H])O[H]

$$$$
3:0:0
     RDKit          3D

 61 65  0  0  1  0  0  0  0  0999 V2000
    3.7216   -3.0438   -2.5553 C   0  0  0  0  0  0  0  0  0  0  0  0
    4.5302   -2.8550   -1.2682 C   0  0  2  0  0  0  0  0  0  0  0  0
    5.3219   -4.1203   -0.9509 C   0  0  0  0  0  0  0  0  0  0  0  0
    5.8746   -4.1886    0.4851 C   0  0  1  0  0  0  0  0  0  0  0  0
    6.7756   -5.4507    0.6228 C   0  0  0  0  0  0  0  0  0  0  0  0
    6.9249   -3.0049    0.6742 C   0  0  1  0  0  0  0  0  0  0  0  0
    7.9430   -3.0039   -0.3102 O   0  0  0  0  0  0  0  0  0  0  0  0
    6.3035   -1.7624    0.6717 O   0  0  0  0  0  0  0  0  0  0  0  0
    5.3408   -1.5976    1.6731 C   0  0  1  0  0  0  0  0  0  0  0  0
    4.9616   -0.2458    1.7260 O   0  0  0  0  0  0  0  0  0  0  0  0
    4.1300   -2.5861    1.3836 C   0  0  2  0  0  0  0  0  0  0  0  0
    3.6373   -2.3477   -0.1083 C   0  0  1  0  0  0  0  0  0  0  0  0
    3.4040   -1.0002   -0.3846 O   0  0  0  0  0  0  0  0  0  0  0  0
    2.9971   -2.3293    2.4102 C   0  0  2  0  0  0  0  0  0  0  0  0
    2.0504   -1.1652    2.1746 C   0  0  0  0  0  0  0  0  0  0  0  0
    3.4005   -2.5467    3.7696 O   0  0  0  0  0  0  0  0  0  0  0  0
    2.3896   -3.4190    3.2746 C   0  0  2  0  0  0  0  0  0  0  0  0
    2.7547   -4.8847    3.1322 C   0  0  2  0  0  0  0  0  0  0  0  0
    1.4801   -5.5272    3.1344 O   0  0  0  0  0  0  0  0  0  0  0  0
    3.4327   -5.4025    4.4424 C   0  0  1  0  0  0  0  0  0  0  0  0
    2.5330   -5.3184    5.5295 O   0  0  0  0  0  0  0  0  0  0  0  0
    3.9553   -6.8432    4.3686 C   0  0  0  0  0  0  0  0  0  0  0  0
    4.8137   -7.0738    3.1206 C   0  0  0  0  0  0  0  0  0  0  0  0
    4.0620   -6.6650    1.8378 C   0  0  1  0  0  0  0  0  0  0  0  0
    3.0334   -7.6372    1.7153 O   0  0  0  0  0  0  0  0  0  0  0  0
    3.5471   -5.1746    1.7935 C   0  0  1  0  0  0  0  0  0  0  0  0
    2.4941   -5.1168    0.6425 C   0  0  0  0  0  0  0  0  0  0  0  0
    4.7110   -4.0569    1.5877 C   0  0  1  0  0  0  0  0  0  0  0  0
    5.4683   -4.1041    2.7866 O   0  0  0  0  0  0  0  0  0  0  0  0
    2.9517   -3.8058   -2.4127 H   0  0  0  0  0  0  0  0  0  0  0  0
    4.3674   -3.3791   -3.3731 H   0  0  0  0  0  0  0  0  0  0  0  0
    3.2343   -2.1150   -2.8756 H   0  0  0  0  0  0  0  0  0  0  0  0
    5.2648   -2.0758   -1.4889 H   0  0  0  0  0  0  0  0  0  0  0  0
    4.7584   -5.0225   -1.1827 H   0  0  0  0  0  0  0  0  0  0  0  0
    6.1562   -4.1662   -1.6411 H   0  0  0  0  0  0  0  0  0  0  0  0
    7.0197   -5.7163    1.6503 H   0  0  0  0  0  0  0  0  0  0  0  0
    7.7385   -5.3309    0.1321 H   0  0  0  0  0  0  0  0  0  0  0  0
    6.3428   -6.2844    0.0955 H   0  0  0  0  0  0  0  0  0  0  0  0
    7.4261   -3.1348    1.6257 H   0  0  0  0  0  0  0  0  0  0  0  0
    7.5504   -3.0563   -1.1641 H   0  0  0  0  0  0  0  0  0  0  0  0
    5.7910   -1.7705    2.6528 H   0  0  0  0  0  0  0  0  0  0  0  0
    4.4262   -0.0844    0.9643 H   0  0  0  0  0  0  0  0  0  0  0  0
    2.6576   -2.7691   -0.2562 H   0  0  0  0  0  0  0  0  0  0  0  0
    2.4773   -0.9134   -0.6287 H   0  0  0  0  0  0  0  0  0  0  0  0
    1.4318   -1.3509    1.2845 H   0  0  0  0  0  0  0  0  0  0  0  0
    2.5599   -0.2190    2.0388 H   0  0  0  0  0  0  0  0  0  0  0  0
    1.3672   -1.0410    3.0076 H   0  0  0  0  0  0  0  0  0  0  0  0
    1.4246   -3.2266    3.7154 H   0  0  0  0  0  0  0  0  0  0  0  0
    1.1754   -5.4622    4.0342 H   0  0  0  0  0  0  0  0  0  0  0  0
    4.2671   -4.7739    4.7316 H   0  0  0  0  0  0  0  0  0  0  0  0
    3.0068   -5.5451    6.3183 H   0  0  0  0  0  0  0  0  0  0  0  0
    4.5458   -7.0688    5.2559 H   0  0  0  0  0  0  0  0  0  0  0  0
    3.1088   -7.5352    4.3721 H   0  0  0  0  0  0  0  0  0  0  0  0
    5.7500   -6.5366    3.2213 H   0  0  0  0  0  0  0  0  0  0  0  0
    5.0959   -8.1306    3.0670 H   0  0  0  0  0  0  0  0  0  0  0  0
    4.6611   -6.8746    0.9649 H   0  0  0  0  0  0  0  0  0  0  0  0
    3.4224   -8.4987    1.6920 H   0  0  0  0  0  0  0  0  0  0  0  0
    2.9222   -5.0618   -0.3458 H   0  0  0  0  0  0  0  0  0  0  0  0
    1.8120   -4.2855    0.7807 H   0  0  0  0  0  0  0  0  0  0  0  0
    1.8125   -5.9623    0.6054 H   0  0  0  0  0  0  0  0  0  0  0  0
    4.9001   -3.8277    3.4930 H   0  0  0  0  0  0  0  0  0  0  0  0
  1  2  1  0
  1 30  1  0
  1 31  1  0
  1 32  1  0
  2 12  1  0
  2  3  1  0
  2 33  1  6
  3  4  1  0
  3 34  1  0
  3 35  1  0
  4 28  1  0
  4  5  1  6
  4  6  1  0
  5 36  1  0
  5 37  1  0
  5 38  1  0
  6  7  1  0
  6  8  1  0
  6 39  1  1
  7 40  1  0
  8  9  1  0
  9 10  1  0
  9 11  1  0
  9 41  1  1
 10 42  1  0
 11 28  1  0
 11 12  1  0
 11 14  1  1
 12 13  1  0
 12 43  1  1
 13 44  1  0
 14 17  1  0
 14 15  1  1
 14 16  1  0
 15 45  1  0
 15 46  1  0
 15 47  1  0
 16 17  1  0
 17 18  1  0
 17 48  1  1
 18 26  1  0
 18 19  1  6
 18 20  1  0
 19 49  1  0
 20 21  1  0
 20 22  1  0
 20 50  1  1
 21 51  1  0
 22 23  1  0
 22 52  1  0
 22 53  1  0
 23 24  1  0
 23 54  1  0
 23 55  1  0
 24 25  1  0
 24 26  1  0
 24 56  1  6
 25 57  1  0
 26 27  1  6
 26 28  1  0
 27 58  1  0
 27 59  1  0
 27 60  1  0
 28 29  1  1
 29 61  1  0
M  END
>  <i_m_ct_stereo_status>  (7) 
1

>  <s_m_source_file>  (7) 
/var/tmp/pbs.5076255.sched01/tmp44bw07az/09l6mph0o.sdf

>  <i_m_source_file_index>  (7) 
5

>  <i_lp_mmshare_version>  (7) 
48012

>  <i_f3d_flags>  (7) 
0

>  <s_epik_input>  (7) 
W09IXVtDQEBIXTFPW0NASF0oW09IXSlbQ0BdKFtDSDNdKShbQ0gyXVtDQEBIXShbQ0gzXSlbQ0BASF0yW09IXSlbQ0BdMyhbT0hdKVtDQF0oW0NIM10pKFtDQF00KFtPSF0pW0NAQEhdKE81KVtDQEBdNShbQ0BdMTIzKVtDSDNdKVtDQEhdKFtPSF0pW0NIMl1bQ0gyXVtDQEBIXTRbT0hd

>  <s_epik_cmdline>  (7) 
J2VwaWtfcHl0aG9uJywgJy1waHQnLCAnMi4wJywgJy1waCcsICc3LjAnLCAnLXRuJywgJzgnLCAnLW1hJywgJzIwMCcsICctaW1hZScsICc8aW5maWxlLm1hZT4nLCAnLW9tYWUnLCAnPG91dGZpbGUubWFlPic=

>  <r_lp_tautomer_probability>  (7) 
1

>  <r_epik_Ionization_Penalty>  (7) 
6.16987e-07

>  <r_epik_Ionization_Penalty_Charging>  (7) 
0

>  <r_epik_Ionization_Penalty_Neutral>  (7) 
6.16987e-07

>  <r_epik_State_Penalty>  (7) 
-0

>  <r_epik_Charging_Adjusted_Penalty>  (7) 
0

>  <i_epik_Tot_Q>  (7) 
0

>  <i_epik_Tot_abs_Q>  (7) 
0

>  <s_epik_Chemistry_Notes>  (7) 
This compound contains an acetal/aminal-like group ( X-CH(R)-Y where X, Y are N, S, or O) that may be acid/base labile, releasing an aldehyde.

>  <s_lp_Force_Field>  (7) 
OPLS3e

>  <r_lp_Energy>  (7) 
89.9823

>  <b_lp_Chiralities_Consistent>  (7) 
1

>  <s_lp_Variant>  (7) 
3:0-1

>  <s_i_glide_gridfile>  (7) 
pfpi4k_grid

>  <i_i_glide_lignum>  (7) 
5

>  <i_i_glide_rotatable_bonds>  (7) 
7

>  <r_i_docking_score>  (7) 
-4.36191

>  <r_i_glide_ligand_efficiency>  (7) 
-0.150411

>  <r_i_glide_ligand_efficiency_sa>  (7) 
-0.462109

>  <r_i_glide_ligand_efficiency_ln>  (7) 
-0.998767

>  <r_i_glide_gscore>  (7) 
-4.36191

>  <r_i_glide_lipo>  (7) 
-0.278955

>  <r_i_glide_hbond>  (7) 
0

>  <r_i_glide_metal>  (7) 
-0

>  <r_i_glide_rewards>  (7) 
-1.83926

>  <r_i_glide_evdw>  (7) 
-24.8891

>  <r_i_glide_ecoul>  (7) 
-6.66163

>  <r_i_glide_erotb>  (7) 
0

>  <r_i_glide_esite>  (7) 
0

>  <r_i_glide_emodel>  (7) 
-49.6606

>  <r_i_glide_energy>  (7) 
-31.5507

>  <r_i_glide_einternal>  (7) 
2.22661

>  <r_i_glide_intrahb_reward>  (7) 
-1

>  <i_i_glide_confnum>  (7) 
2

>  <i_i_glide_posenum>  (7) 
34

>  <r_i_glide_eff_state_penalty>  (7) 
0

>  <ligand_id>  (7) 
3

>  <original_smiles>  (7) 
CC1CC2(C)C(O)OC(O)C3(C1O)C1(C)OC1C1(O)C(O)CCC(O)C1(C)C23O

>  <smiles>  (7) 
[H]OC1([H])OC([H])(O[H])C23C([H])(O[H])C([H])(C([H])([H])[H])C([H])([H])C1(C([H])([H])[H])C2(O[H])C1(C([H])([H])[H])C([H])(O[H])C([H])([H])C([H])([H])C([H])(O[H])C1(O[H])C1([H])OC13C([H])([H])[H]

$$$$
3:0:1
     RDKit          3D

 61 65  0  0  1  0  0  0  0  0999 V2000
    3.7106   -3.0590   -2.5525 C   0  0  0  0  0  0  0  0  0  0  0  0
    4.5240   -2.8617   -1.2590 C   0  0  2  0  0  0  0  0  0  0  0  0
    5.3333   -4.1266   -0.9432 C   0  0  0  0  0  0  0  0  0  0  0  0
    5.8901   -4.1915    0.4912 C   0  0  1  0  0  0  0  0  0  0  0  0
    6.7790   -5.4670    0.6086 C   0  0  0  0  0  0  0  0  0  0  0  0
    6.9343   -3.0048    0.6889 C   0  0  1  0  0  0  0  0  0  0  0  0
    7.9530   -3.0014   -0.2940 O   0  0  0  0  0  0  0  0  0  0  0  0
    6.3146   -1.7641    0.6965 O   0  0  0  0  0  0  0  0  0  0  0  0
    5.3521   -1.6009    1.6936 C   0  0  1  0  0  0  0  0  0  0  0  0
    4.9726   -0.2571    1.7521 O   0  0  0  0  0  0  0  0  0  0  0  0
    4.1357   -2.5813    1.3990 C   0  0  2  0  0  0  0  0  0  0  0  0
    3.6432   -2.3354   -0.0927 C   0  0  1  0  0  0  0  0  0  0  0  0
    3.4152   -0.9816   -0.3769 O   0  0  0  0  0  0  0  0  0  0  0  0
    2.9833   -2.3320    2.4320 C   0  0  2  0  0  0  0  0  0  0  0  0
    2.0318   -1.1633    2.1737 C   0  0  0  0  0  0  0  0  0  0  0  0
    3.3630   -2.5277    3.7955 O   0  0  0  0  0  0  0  0  0  0  0  0
    2.3716   -3.4298    3.2810 C   0  0  2  0  0  0  0  0  0  0  0  0
    2.7558   -4.8961    3.1442 C   0  0  2  0  0  0  0  0  0  0  0  0
    1.5066   -5.5864    3.1060 O   0  0  0  0  0  0  0  0  0  0  0  0
    3.4459   -5.4096    4.4575 C   0  0  1  0  0  0  0  0  0  0  0  0
    2.5842   -5.3329    5.5773 O   0  0  0  0  0  0  0  0  0  0  0  0
    3.9645   -6.8540    4.3716 C   0  0  0  0  0  0  0  0  0  0  0  0
    4.8125   -7.0931    3.1156 C   0  0  0  0  0  0  0  0  0  0  0  0
    4.0526   -6.6789    1.8386 C   0  0  1  0  0  0  0  0  0  0  0  0
    3.0069   -7.6373    1.7535 O   0  0  0  0  0  0  0  0  0  0  0  0
    3.5530   -5.1778    1.7918 C   0  0  1  0  0  0  0  0  0  0  0  0
    2.4957   -5.1134    0.6378 C   0  0  0  0  0  0  0  0  0  0  0  0
    4.7229   -4.0556    1.5816 C   0  0  1  0  0  0  0  0  0  0  0  0
    5.4707   -4.1237    2.7817 O   0  0  0  0  0  0  0  0  0  0  0  0
    2.9458   -3.8288   -2.4196 H   0  0  0  0  0  0  0  0  0  0  0  0
    4.3532   -3.3887   -3.3729 H   0  0  0  0  0  0  0  0  0  0  0  0
    3.2097   -2.1412   -2.8672 H   0  0  0  0  0  0  0  0  0  0  0  0
    5.2632   -2.0952   -1.4929 H   0  0  0  0  0  0  0  0  0  0  0  0
    4.7703   -5.0315   -1.1593 H   0  0  0  0  0  0  0  0  0  0  0  0
    6.1573   -4.1750   -1.6511 H   0  0  0  0  0  0  0  0  0  0  0  0
    7.0376   -5.7504    1.6281 H   0  0  0  0  0  0  0  0  0  0  0  0
    7.7328   -5.3592    0.0926 H   0  0  0  0  0  0  0  0  0  0  0  0
    6.3333   -6.3035    0.0913 H   0  0  0  0  0  0  0  0  0  0  0  0
    7.4439   -3.1302    1.6454 H   0  0  0  0  0  0  0  0  0  0  0  0
    8.6452   -2.4223   -0.0009 H   0  0  0  0  0  0  0  0  0  0  0  0
    5.8047   -1.7802    2.6727 H   0  0  0  0  0  0  0  0  0  0  0  0
    4.4249   -0.0982    0.9897 H   0  0  0  0  0  0  0  0  0  0  0  0
    2.6552   -2.7486   -0.2298 H   0  0  0  0  0  0  0  0  0  0  0  0
    2.4858   -0.8988   -0.6107 H   0  0  0  0  0  0  0  0  0  0  0  0
    1.4185   -1.3506    1.2925 H   0  0  0  0  0  0  0  0  0  0  0  0
    2.5446   -0.2118    2.0472 H   0  0  0  0  0  0  0  0  0  0  0  0
    1.3455   -1.0357    3.0144 H   0  0  0  0  0  0  0  0  0  0  0  0
    1.3965   -3.2533    3.7320 H   0  0  0  0  0  0  0  0  0  0  0  0
    1.7012   -6.5156    3.0828 H   0  0  0  0  0  0  0  0  0  0  0  0
    4.2800   -4.7698    4.7253 H   0  0  0  0  0  0  0  0  0  0  0  0
    3.0733   -5.5799    6.3477 H   0  0  0  0  0  0  0  0  0  0  0  0
    4.5633   -7.0851    5.2533 H   0  0  0  0  0  0  0  0  0  0  0  0
    3.1245   -7.5501    4.3865 H   0  0  0  0  0  0  0  0  0  0  0  0
    5.7606   -6.5727    3.2127 H   0  0  0  0  0  0  0  0  0  0  0  0
    5.0839   -8.1514    3.0604 H   0  0  0  0  0  0  0  0  0  0  0  0
    4.6337   -6.9027    0.9572 H   0  0  0  0  0  0  0  0  0  0  0  0
    3.3901   -8.5005    1.6766 H   0  0  0  0  0  0  0  0  0  0  0  0
    2.9137   -5.0522   -0.3544 H   0  0  0  0  0  0  0  0  0  0  0  0
    1.8134   -4.2800    0.7755 H   0  0  0  0  0  0  0  0  0  0  0  0
    1.8143   -5.9603    0.5900 H   0  0  0  0  0  0  0  0  0  0  0  0
    5.8552   -4.9844    2.8417 H   0  0  0  0  0  0  0  0  0  0  0  0
  1  2  1  0
  1 30  1  0
  1 31  1  0
  1 32  1  0
  2 12  1  0
  2  3  1  0
  2 33  1  6
  3  4  1  0
  3 34  1  0
  3 35  1  0
  4 28  1  0
  4  5  1  6
  4  6  1  0
  5 36  1  0
  5 37  1  0
  5 38  1  0
  6  7  1  0
  6  8  1  0
  6 39  1  1
  7 40  1  0
  8  9  1  0
  9 10  1  0
  9 11  1  0
  9 41  1  1
 10 42  1  0
 11 28  1  0
 11 12  1  0
 11 14  1  1
 12 13  1  0
 12 43  1  1
 13 44  1  0
 14 17  1  0
 14 15  1  1
 14 16  1  0
 15 45  1  0
 15 46  1  0
 15 47  1  0
 16 17  1  0
 17 18  1  0
 17 48  1  1
 18 26  1  0
 18 19  1  6
 18 20  1  0
 19 49  1  0
 20 21  1  0
 20 22  1  0
 20 50  1  1
 21 51  1  0
 22 23  1  0
 22 52  1  0
 22 53  1  0
 23 24  1  0
 23 54  1  0
 23 55  1  0
 24 25  1  0
 24 26  1  0
 24 56  1  6
 25 57  1  0
 26 27  1  6
 26 28  1  0
 27 58  1  0
 27 59  1  0
 27 60  1  0
 28 29  1  1
 29 61  1  0
M  END
>  <i_m_ct_stereo_status>  (8) 
1

>  <s_m_source_file>  (8) 
/var/tmp/pbs.5076255.sched01/tmp44bw07az/09l6mph0o.sdf

>  <i_m_source_file_index>  (8) 
5

>  <i_lp_mmshare_version>  (8) 
48012

>  <i_f3d_flags>  (8) 
0

>  <s_epik_input>  (8) 
W09IXVtDQEBIXTFPW0NASF0oW09IXSlbQ0BdKFtDSDNdKShbQ0gyXVtDQEBIXShbQ0gzXSlbQ0BASF0yW09IXSlbQ0BdMyhbT0hdKVtDQF0oW0NIM10pKFtDQF00KFtPSF0pW0NAQEhdKE81KVtDQEBdNShbQ0BdMTIzKVtDSDNdKVtDQEhdKFtPSF0pW0NIMl1bQ0gyXVtDQEBIXTRbT0hd

>  <s_epik_cmdline>  (8) 
J2VwaWtfcHl0aG9uJywgJy1waHQnLCAnMi4wJywgJy1waCcsICc3LjAnLCAnLXRuJywgJzgnLCAnLW1hJywgJzIwMCcsICctaW1hZScsICc8aW5maWxlLm1hZT4nLCAnLW9tYWUnLCAnPG91dGZpbGUubWFlPic=

>  <r_lp_tautomer_probability>  (8) 
1

>  <r_epik_Ionization_Penalty>  (8) 
6.16987e-07

>  <r_epik_Ionization_Penalty_Charging>  (8) 
0

>  <r_epik_Ionization_Penalty_Neutral>  (8) 
6.16987e-07

>  <r_epik_State_Penalty>  (8) 
-0

>  <r_epik_Charging_Adjusted_Penalty>  (8) 
0

>  <i_epik_Tot_Q>  (8) 
0

>  <i_epik_Tot_abs_Q>  (8) 
0

>  <s_epik_Chemistry_Notes>  (8) 
This compound contains an acetal/aminal-like group ( X-CH(R)-Y where X, Y are N, S, or O) that may be acid/base labile, releasing an aldehyde.

>  <s_lp_Force_Field>  (8) 
OPLS3e

>  <r_lp_Energy>  (8) 
89.9823

>  <b_lp_Chiralities_Consistent>  (8) 
1

>  <s_lp_Variant>  (8) 
3:0-1

>  <s_i_glide_gridfile>  (8) 
pfpi4k_grid

>  <i_i_glide_lignum>  (8) 
5

>  <i_i_glide_rotatable_bonds>  (8) 
7

>  <r_i_docking_score>  (8) 
-4.26855

>  <r_i_glide_ligand_efficiency>  (8) 
-0.147191

>  <r_i_glide_ligand_efficiency_sa>  (8) 
-0.452219

>  <r_i_glide_ligand_efficiency_ln>  (8) 
-0.97739

>  <r_i_glide_gscore>  (8) 
-4.26855

>  <r_i_glide_lipo>  (8) 
-0.279458

>  <r_i_glide_hbond>  (8) 
0

>  <r_i_glide_metal>  (8) 
-0

>  <r_i_glide_rewards>  (8) 
-1.83869

>  <r_i_glide_evdw>  (8) 
-24.7525

>  <r_i_glide_ecoul>  (8) 
-6.08518

>  <r_i_glide_erotb>  (8) 
0

>  <r_i_glide_esite>  (8) 
0

>  <r_i_glide_emodel>  (8) 
-48.7189

>  <r_i_glide_energy>  (8) 
-30.8377

>  <r_i_glide_einternal>  (8) 
2.55011

>  <r_i_glide_intrahb_reward>  (8) 
-1

>  <i_i_glide_confnum>  (8) 
2

>  <i_i_glide_posenum>  (8) 
29

>  <r_i_glide_eff_state_penalty>  (8) 
0

>  <ligand_id>  (8) 
3

>  <original_smiles>  (8) 
CC1CC2(C)C(O)OC(O)C3(C1O)C1(C)OC1C1(O)C(O)CCC(O)C1(C)C23O

>  <smiles>  (8) 
[H]OC1([H])OC([H])(O[H])C23C([H])(O[H])C([H])(C([H])([H])[H])C([H])([H])C1(C([H])([H])[H])C2(O[H])C1(C([H])([H])[H])C([H])(O[H])C([H])([H])C([H])([H])C([H])(O[H])C1(O[H])C1([H])OC13C([H])([H])[H]

$$$$
3:0:2
     RDKit          3D

 61 65  0  0  1  0  0  0  0  0999 V2000
    3.7085   -3.0534   -2.5520 C   0  0  0  0  0  0  0  0  0  0  0  0
    4.5213   -2.8569   -1.2598 C   0  0  2  0  0  0  0  0  0  0  0  0
    5.3272   -4.1262   -0.9423 C   0  0  0  0  0  0  0  0  0  0  0  0
    5.8859   -4.1929    0.4910 C   0  0  1  0  0  0  0  0  0  0  0  0
    6.7808   -5.4610    0.6123 C   0  0  0  0  0  0  0  0  0  0  0  0
    6.9260   -3.0060    0.6788 C   0  0  1  0  0  0  0  0  0  0  0  0
    7.9302   -2.9967   -0.3171 O   0  0  0  0  0  0  0  0  0  0  0  0
    6.3050   -1.7633    0.7004 O   0  0  0  0  0  0  0  0  0  0  0  0
    5.3451   -1.6038    1.6932 C   0  0  1  0  0  0  0  0  0  0  0  0
    4.9626   -0.2533    1.7456 O   0  0  0  0  0  0  0  0  0  0  0  0
    4.1329   -2.5809    1.3981 C   0  0  2  0  0  0  0  0  0  0  0  0
    3.6404   -2.3387   -0.0924 C   0  0  1  0  0  0  0  0  0  0  0  0
    3.4159   -0.9813   -0.3781 O   0  0  0  0  0  0  0  0  0  0  0  0
    2.9861   -2.3326    2.4310 C   0  0  2  0  0  0  0  0  0  0  0  0
    2.0339   -1.1645    2.1749 C   0  0  0  0  0  0  0  0  0  0  0  0
    3.3713   -2.5245    3.7931 O   0  0  0  0  0  0  0  0  0  0  0  0
    2.3783   -3.4273    3.2794 C   0  0  2  0  0  0  0  0  0  0  0  0
    2.7572   -4.8966    3.1415 C   0  0  2  0  0  0  0  0  0  0  0  0
    1.5026   -5.5737    3.1212 O   0  0  0  0  0  0  0  0  0  0  0  0
    3.4346   -5.4056    4.4578 C   0  0  1  0  0  0  0  0  0  0  0  0
    2.5490   -5.2853    5.5591 O   0  0  0  0  0  0  0  0  0  0  0  0
    3.9581   -6.8513    4.3767 C   0  0  0  0  0  0  0  0  0  0  0  0
    4.8105   -7.0900    3.1202 C   0  0  0  0  0  0  0  0  0  0  0  0
    4.0594   -6.6800    1.8362 C   0  0  1  0  0  0  0  0  0  0  0  0
    3.0313   -7.6507    1.7052 O   0  0  0  0  0  0  0  0  0  0  0  0
    3.5526   -5.1820    1.7918 C   0  0  1  0  0  0  0  0  0  0  0  0
    2.4945   -5.1138    0.6410 C   0  0  0  0  0  0  0  0  0  0  0  0
    4.7226   -4.0581    1.5844 C   0  0  1  0  0  0  0  0  0  0  0  0
    5.4590   -4.1380    2.7937 O   0  0  0  0  0  0  0  0  0  0  0  0
    2.9393   -3.8120   -2.4131 H   0  0  0  0  0  0  0  0  0  0  0  0
    4.3497   -3.3853   -3.3707 H   0  0  0  0  0  0  0  0  0  0  0  0
    3.2171   -2.1255   -2.8670 H   0  0  0  0  0  0  0  0  0  0  0  0
    5.2599   -2.0899   -1.4888 H   0  0  0  0  0  0  0  0  0  0  0  0
    4.7606   -5.0298   -1.1582 H   0  0  0  0  0  0  0  0  0  0  0  0
    6.1462   -4.1844   -1.6548 H   0  0  0  0  0  0  0  0  0  0  0  0
    7.0276   -5.7419    1.6360 H   0  0  0  0  0  0  0  0  0  0  0  0
    7.7364   -5.3515    0.1019 H   0  0  0  0  0  0  0  0  0  0  0  0
    6.3375   -6.2972    0.0909 H   0  0  0  0  0  0  0  0  0  0  0  0
    7.4595   -3.1280    1.6187 H   0  0  0  0  0  0  0  0  0  0  0  0
    7.5120   -3.0582   -1.1634 H   0  0  0  0  0  0  0  0  0  0  0  0
    5.7945   -1.7687    2.6740 H   0  0  0  0  0  0  0  0  0  0  0  0
    4.4254   -0.0922    0.9781 H   0  0  0  0  0  0  0  0  0  0  0  0
    2.6531   -2.7526   -0.2322 H   0  0  0  0  0  0  0  0  0  0  0  0
    2.4822   -0.8999   -0.6153 H   0  0  0  0  0  0  0  0  0  0  0  0
    1.4202   -1.3510    1.2934 H   0  0  0  0  0  0  0  0  0  0  0  0
    2.5469   -0.2123    2.0486 H   0  0  0  0  0  0  0  0  0  0  0  0
    1.3487   -1.0375    3.0173 H   0  0  0  0  0  0  0  0  0  0  0  0
    1.4054   -3.2484    3.7298 H   0  0  0  0  0  0  0  0  0  0  0  0
    1.1262   -5.4735    3.9820 H   0  0  0  0  0  0  0  0  0  0  0  0
    4.2738   -4.7739    4.7303 H   0  0  0  0  0  0  0  0  0  0  0  0
    1.9634   -6.0292    5.5636 H   0  0  0  0  0  0  0  0  0  0  0  0
    4.5590   -7.0784    5.2588 H   0  0  0  0  0  0  0  0  0  0  0  0
    3.1232   -7.5526    4.3824 H   0  0  0  0  0  0  0  0  0  0  0  0
    5.7531   -6.5577    3.2144 H   0  0  0  0  0  0  0  0  0  0  0  0
    5.0935   -8.1446    3.0626 H   0  0  0  0  0  0  0  0  0  0  0  0
    4.6539   -6.8897    0.9610 H   0  0  0  0  0  0  0  0  0  0  0  0
    3.4202   -8.5122    1.6802 H   0  0  0  0  0  0  0  0  0  0  0  0
    2.9122   -5.0556   -0.3524 H   0  0  0  0  0  0  0  0  0  0  0  0
    1.8261   -4.2804    0.7811 H   0  0  0  0  0  0  0  0  0  0  0  0
    1.8131   -5.9602    0.6009 H   0  0  0  0  0  0  0  0  0  0  0  0
    6.1567   -3.5030    2.7959 H   0  0  0  0  0  0  0  0  0  0  0  0
  1  2  1  0
  1 30  1  0
  1 31  1  0
  1 32  1  0
  2 12  1  0
  2  3  1  0
  2 33  1  6
  3  4  1  0
  3 34  1  0
  3 35  1  0
  4 28  1  0
  4  5  1  6
  4  6  1  0
  5 36  1  0
  5 37  1  0
  5 38  1  0
  6  7  1  0
  6  8  1  0
  6 39  1  1
  7 40  1  0
  8  9  1  0
  9 10  1  0
  9 11  1  0
  9 41  1  1
 10 42  1  0
 11 28  1  0
 11 12  1  0
 11 14  1  1
 12 13  1  0
 12 43  1  1
 13 44  1  0
 14 17  1  0
 14 15  1  1
 14 16  1  0
 15 45  1  0
 15 46  1  0
 15 47  1  0
 16 17  1  0
 17 18  1  0
 17 48  1  1
 18 26  1  0
 18 19  1  6
 18 20  1  0
 19 49  1  0
 20 21  1  0
 20 22  1  0
 20 50  1  1
 21 51  1  0
 22 23  1  0
 22 52  1  0
 22 53  1  0
 23 24  1  0
 23 54  1  0
 23 55  1  0
 24 25  1  0
 24 26  1  0
 24 56  1  6
 25 57  1  0
 26 27  1  6
 26 28  1  0
 27 58  1  0
 27 59  1  0
 27 60  1  0
 28 29  1  1
 29 61  1  0
M  END
>  <i_m_ct_stereo_status>  (9) 
1

>  <s_m_source_file>  (9) 
/var/tmp/pbs.5076255.sched01/tmp44bw07az/09l6mph0o.sdf

>  <i_m_source_file_index>  (9) 
5

>  <i_lp_mmshare_version>  (9) 
48012

>  <i_f3d_flags>  (9) 
0

>  <s_epik_input>  (9) 
W09IXVtDQEBIXTFPW0NASF0oW09IXSlbQ0BdKFtDSDNdKShbQ0gyXVtDQEBIXShbQ0gzXSlbQ0BASF0yW09IXSlbQ0BdMyhbT0hdKVtDQF0oW0NIM10pKFtDQF00KFtPSF0pW0NAQEhdKE81KVtDQEBdNShbQ0BdMTIzKVtDSDNdKVtDQEhdKFtPSF0pW0NIMl1bQ0gyXVtDQEBIXTRbT0hd

>  <s_epik_cmdline>  (9) 
J2VwaWtfcHl0aG9uJywgJy1waHQnLCAnMi4wJywgJy1waCcsICc3LjAnLCAnLXRuJywgJzgnLCAnLW1hJywgJzIwMCcsICctaW1hZScsICc8aW5maWxlLm1hZT4nLCAnLW9tYWUnLCAnPG91dGZpbGUubWFlPic=

>  <r_lp_tautomer_probability>  (9) 
1

>  <r_epik_Ionization_Penalty>  (9) 
6.16987e-07

>  <r_epik_Ionization_Penalty_Charging>  (9) 
0

>  <r_epik_Ionization_Penalty_Neutral>  (9) 
6.16987e-07

>  <r_epik_State_Penalty>  (9) 
-0

>  <r_epik_Charging_Adjusted_Penalty>  (9) 
0

>  <i_epik_Tot_Q>  (9) 
0

>  <i_epik_Tot_abs_Q>  (9) 
0

>  <s_epik_Chemistry_Notes>  (9) 
This compound contains an acetal/aminal-like group ( X-CH(R)-Y where X, Y are N, S, or O) that may be acid/base labile, releasing an aldehyde.

>  <s_lp_Force_Field>  (9) 
OPLS3e

>  <r_lp_Energy>  (9) 
89.9823

>  <b_lp_Chiralities_Consistent>  (9) 
1

>  <s_lp_Variant>  (9) 
3:0-1

>  <s_i_glide_gridfile>  (9) 
pfpi4k_grid

>  <i_i_glide_lignum>  (9) 
5

>  <i_i_glide_rotatable_bonds>  (9) 
7

>  <r_i_docking_score>  (9) 
-3.82292

>  <r_i_glide_ligand_efficiency>  (9) 
-0.131825

>  <r_i_glide_ligand_efficiency_sa>  (9) 
-0.405007

>  <r_i_glide_ligand_efficiency_ln>  (9) 
-0.875351

>  <r_i_glide_gscore>  (9) 
-3.82292

>  <r_i_glide_lipo>  (9) 
-0.279919

>  <r_i_glide_hbond>  (9) 
0

>  <r_i_glide_metal>  (9) 
-0

>  <r_i_glide_rewards>  (9) 
-1.3386

>  <r_i_glide_evdw>  (9) 
-24.8388

>  <r_i_glide_ecoul>  (9) 
-6.41637

>  <r_i_glide_erotb>  (9) 
0

>  <r_i_glide_esite>  (9) 
0

>  <r_i_glide_emodel>  (9) 
-43.3555

>  <r_i_glide_energy>  (9) 
-31.2552

>  <r_i_glide_einternal>  (9) 
2.02439

>  <r_i_glide_intrahb_reward>  (9) 
-0.5

>  <i_i_glide_confnum>  (9) 
2

>  <i_i_glide_posenum>  (9) 
26

>  <r_i_glide_eff_state_penalty>  (9) 
0

>  <ligand_id>  (9) 
3

>  <original_smiles>  (9) 
CC1CC2(C)C(O)OC(O)C3(C1O)C1(C)OC1C1(O)C(O)CCC(O)C1(C)C23O

>  <smiles>  (9) 
[H]OC1([H])OC([H])(O[H])C23C([H])(O[H])C([H])(C([H])([H])[H])C([H])([H])C1(C([H])([H])[H])C2(O[H])C1(C([H])([H])[H])C([H])(O[H])C([H])([H])C([H])([H])C([H])(O[H])C1(O[H])C1([H])OC13C([H])([H])[H]

$$$$
4:0:0
     RDKit          3D

 45 49  0  0  1  0  0  0  0  0999 V2000
    2.2737   -5.1084    5.8526 C   0  0  0  0  0  0  0  0  0  0  0  0
    3.0615   -5.4381    4.5865 C   0  0  0  0  0  0  0  0  0  0  0  0
    4.4116   -5.4547    4.5751 C   0  0  0  0  0  0  0  0  0  0  0  0
    5.2890   -5.7702    3.3760 C   0  0  0  0  0  0  0  0  0  0  0  0
    4.5104   -5.9533    2.0679 C   0  0  2  0  0  0  0  0  0  0  0  0
    4.0222   -4.7394    1.2696 C   0  0  1  0  0  0  0  0  0  0  0  0
    4.6939   -4.4619   -0.0743 C   0  0  0  0  0  0  0  0  0  0  0  0
    4.1254   -3.2740   -0.6084 O   0  0  0  0  0  0  0  0  0  0  0  0
    5.0270   -2.4527   -1.2823 C   0  0  2  0  0  0  0  0  0  0  0  0
    4.3404   -1.1110   -1.6342 C   0  0  0  0  0  0  0  0  0  0  0  0
    3.2658   -1.3292   -2.7064 C   0  0  0  0  0  0  0  0  0  0  0  0
    3.8681   -2.0656   -3.9109 C   0  0  0  0  0  0  0  0  0  0  0  0
    4.5645   -3.3449   -3.4329 C   0  0  0  0  0  0  0  0  0  0  0  0
    5.5420   -3.0188   -2.4506 O   0  0  0  0  0  0  0  0  0  0  0  0
    2.5605   -5.2503    1.3511 C   0  0  2  0  0  0  0  0  0  0  0  0
    1.8611   -5.4819    0.1387 O   0  0  0  0  0  0  0  0  0  0  0  0
    1.6617   -4.7742    2.4796 C   0  0  2  0  0  0  0  0  0  0  0  0
    0.8814   -5.6641    3.3127 O   0  0  0  0  0  0  0  0  0  0  0  0
    2.2941   -5.8457    3.3708 C   0  0  2  0  0  0  0  0  0  0  0  0
    3.0548   -6.4180    2.2096 C   0  0  2  0  0  0  0  0  0  0  0  0
    2.6643   -7.8527    1.8965 C   0  0  0  0  0  0  0  0  0  0  0  0
    1.6285   -5.9483    6.1222 H   0  0  0  0  0  0  0  0  0  0  0  0
    1.6623   -4.2168    5.7027 H   0  0  0  0  0  0  0  0  0  0  0  0
    2.9599   -4.9233    6.6819 H   0  0  0  0  0  0  0  0  0  0  0  0
    4.9459   -5.2217    5.4782 H   0  0  0  0  0  0  0  0  0  0  0  0
    6.0456   -4.9894    3.2812 H   0  0  0  0  0  0  0  0  0  0  0  0
    5.8464   -6.6788    3.6087 H   0  0  0  0  0  0  0  0  0  0  0  0
    5.0347   -6.6156    1.3818 H   0  0  0  0  0  0  0  0  0  0  0  0
    4.1173   -3.8433    1.8989 H   0  0  0  0  0  0  0  0  0  0  0  0
    5.7710   -4.3618    0.0550 H   0  0  0  0  0  0  0  0  0  0  0  0
    4.5646   -5.2724   -0.7876 H   0  0  0  0  0  0  0  0  0  0  0  0
    5.8571   -2.2413   -0.6082 H   0  0  0  0  0  0  0  0  0  0  0  0
    3.9089   -0.6804   -0.7249 H   0  0  0  0  0  0  0  0  0  0  0  0
    5.1062   -0.4249   -1.9956 H   0  0  0  0  0  0  0  0  0  0  0  0
    2.4333   -1.9086   -2.2988 H   0  0  0  0  0  0  0  0  0  0  0  0
    2.8537   -0.3698   -3.0216 H   0  0  0  0  0  0  0  0  0  0  0  0
    3.0834   -2.3063   -4.6273 H   0  0  0  0  0  0  0  0  0  0  0  0
    4.5859   -1.4190   -4.4145 H   0  0  0  0  0  0  0  0  0  0  0  0
    3.8350   -4.0460   -3.0268 H   0  0  0  0  0  0  0  0  0  0  0  0
    5.0565   -3.8512   -4.2655 H   0  0  0  0  0  0  0  0  0  0  0  0
    2.5168   -5.7035   -0.5023 H   0  0  0  0  0  0  0  0  0  0  0  0
    1.6584   -3.7117    2.7380 H   0  0  0  0  0  0  0  0  0  0  0  0
    1.5768   -7.9494    1.8656 H   0  0  0  0  0  0  0  0  0  0  0  0
    3.0553   -8.5259    2.6643 H   0  0  0  0  0  0  0  0  0  0  0  0
    3.0713   -8.1663    0.9285 H   0  0  0  0  0  0  0  0  0  0  0  0
  1  2  1  0
  1 22  1  0
  1 23  1  0
  1 24  1  0
  2 19  1  0
  2  3  2  0
  3  4  1  0
  3 25  1  0
  4  5  1  0
  4 26  1  0
  4 27  1  0
  5 20  1  0
  5  6  1  0
  5 28  1  6
  6  7  1  0
  6 15  1  0
  6 29  1  1
  7  8  1  0
  7 30  1  0
  7 31  1  0
  8  9  1  0
  9 14  1  0
  9 10  1  0
  9 32  1  1
 10 11  1  0
 10 33  1  0
 10 34  1  0
 11 12  1  0
 11 35  1  0
 11 36  1  0
 12 13  1  0
 12 37  1  0
 12 38  1  0
 13 14  1  0
 13 39  1  0
 13 40  1  0
 15 20  1  0
 15 16  1  6
 15 17  1  0
 16 41  1  0
 17 19  1  0
 17 18  1  0
 17 42  1  1
 19 18  1  1
 19 20  1  0
 20 21  1  6
 21 43  1  0
 21 44  1  0
 21 45  1  0
M  END
>  <i_m_ct_stereo_status>  (10) 
1

>  <s_m_source_file>  (10) 
/var/tmp/pbs.5076255.sched01/tmp44bw07az/09l6mph0o.sdf

>  <i_m_source_file_index>  (10) 
6

>  <i_lp_mmshare_version>  (10) 
48012

>  <i_f3d_flags>  (10) 
0

>  <s_epik_input>  (10) 
W0NIM11DMT1bQ0hdW0NIMl1bQ0BASF0oW0NAXTIoW0NIM10pW0NAQF0zKFtPSF0pW0NAQEhdKE80KVtDQF0xMjQpW0NASF0zW0NIMl1PW0NAQEhdNVtDSDJdW0NIMl1bQ0gyXVtDSDJdTzU=

>  <s_epik_cmdline>  (10) 
J2VwaWtfcHl0aG9uJywgJy1waHQnLCAnMi4wJywgJy1waCcsICc3LjAnLCAnLXRuJywgJzgnLCAnLW1hJywgJzIwMCcsICctaW1hZScsICc8aW5maWxlLm1hZT4nLCAnLW9tYWUnLCAnPG91dGZpbGUubWFlPic=

>  <r_lp_tautomer_probability>  (10) 
1

>  <r_epik_Ionization_Penalty>  (10) 
3.08862e-08

>  <r_epik_Ionization_Penalty_Charging>  (10) 
0

>  <r_epik_Ionization_Penalty_Neutral>  (10) 
3.08862e-08

>  <r_epik_State_Penalty>  (10) 
-0

>  <r_epik_Charging_Adjusted_Penalty>  (10) 
0

>  <i_epik_Tot_Q>  (10) 
0

>  <i_epik_Tot_abs_Q>  (10) 
0

>  <s_epik_Chemistry_Notes>  (10) 
This compound contains an acetal/aminal-like group ( X-CH(R)-Y where X, Y are N, S, or O) that may be acid/base labile, releasing an aldehyde.

>  <s_lp_Force_Field>  (10) 
OPLS3e

>  <r_lp_Energy>  (10) 
26.6055

>  <b_lp_Chiralities_Consistent>  (10) 
1

>  <s_lp_Variant>  (10) 
4:0-1

>  <s_i_glide_gridfile>  (10) 
pfpi4k_grid

>  <i_i_glide_lignum>  (10) 
6

>  <i_i_glide_rotatable_bonds>  (10) 
4

>  <r_i_docking_score>  (10) 
-2.62099

>  <r_i_glide_ligand_efficiency>  (10) 
-0.124809

>  <r_i_glide_ligand_efficiency_sa>  (10) 
-0.344339

>  <r_i_glide_ligand_efficiency_ln>  (10) 
-0.648035

>  <r_i_glide_gscore>  (10) 
-2.62099

>  <r_i_glide_lipo>  (10) 
-0.339277

>  <r_i_glide_hbond>  (10) 
0

>  <r_i_glide_metal>  (10) 
-0

>  <r_i_glide_rewards>  (10) 
-1.41566

>  <r_i_glide_evdw>  (10) 
-19.219

>  <r_i_glide_ecoul>  (10) 
-3.53676

>  <r_i_glide_erotb>  (10) 
0.640706

>  <r_i_glide_esite>  (10) 
-0.0152973

>  <r_i_glide_emodel>  (10) 
-26.0453

>  <r_i_glide_energy>  (10) 
-22.7558

>  <r_i_glide_einternal>  (10) 
2.31277

>  <r_i_glide_intrahb_reward>  (10) 
-0

>  <i_i_glide_confnum>  (10) 
1

>  <i_i_glide_posenum>  (10) 
1

>  <r_i_glide_eff_state_penalty>  (10) 
0

>  <ligand_id>  (10) 
4

>  <original_smiles>  (10) 
CC1=CCC2C(COC3CCCCO3)C3(O)C4OC14C23C

>  <smiles>  (10) 
[H]OC12C3([H])OC34C(C([H])([H])[H])=C([H])C([H])([H])C([H])(C1([H])C([H])([H])OC1([H])OC([H])([H])C([H])([H])C([H])([H])C1([H])[H])C42C([H])([H])[H]

$$$$
4:0:1
     RDKit          3D

 45 49  0  0  1  0  0  0  0  0999 V2000
    0.4517   -6.8574    7.5717 C   0  0  0  0  0  0  0  0  0  0  0  0
    0.5576   -7.7105    6.3124 C   0  0  0  0  0  0  0  0  0  0  0  0
    1.1225   -8.9355    6.3255 C   0  0  0  0  0  0  0  0  0  0  0  0
    1.2703   -9.8638    5.1353 C   0  0  0  0  0  0  0  0  0  0  0  0
    0.8182   -9.2430    3.8095 C   0  0  2  0  0  0  0  0  0  0  0  0
    1.7342   -8.2747    3.0547 C   0  0  1  0  0  0  0  0  0  0  0  0
    2.3268   -8.7646    1.7339 C   0  0  0  0  0  0  0  0  0  0  0  0
    3.5946   -9.3543    1.9933 O   0  0  0  0  0  0  0  0  0  0  0  0
    4.4887   -9.2813    0.9232 C   0  0  2  0  0  0  0  0  0  0  0  0
    5.8475   -9.9091    1.3374 C   0  0  0  0  0  0  0  0  0  0  0  0
    6.4769   -9.0787    2.4650 C   0  0  0  0  0  0  0  0  0  0  0  0
    6.5637   -7.6002    2.0528 C   0  0  0  0  0  0  0  0  0  0  0  0
    5.1903   -7.1168    1.5843 C   0  0  0  0  0  0  0  0  0  0  0  0
    4.7370   -7.9621    0.5283 O   0  0  0  0  0  0  0  0  0  0  0  0
    0.6379   -7.1807    3.0774 C   0  0  2  0  0  0  0  0  0  0  0  0
    0.1671   -6.6676    1.8429 O   0  0  0  0  0  0  0  0  0  0  0  0
    0.6250   -6.1586    4.2029 C   0  0  2  0  0  0  0  0  0  0  0  0
   -0.5530   -5.8625    4.9943 O   0  0  0  0  0  0  0  0  0  0  0  0
   -0.0887   -7.2030    5.0672 C   0  0  2  0  0  0  0  0  0  0  0  0
   -0.2321   -8.1342    3.9022 C   0  0  2  0  0  0  0  0  0  0  0  0
   -1.6739   -8.3962    3.5117 C   0  0  0  0  0  0  0  0  0  0  0  0
   -0.5921   -6.6404    7.7938 H   0  0  0  0  0  0  0  0  0  0  0  0
    0.9908   -5.9199    7.4484 H   0  0  0  0  0  0  0  0  0  0  0  0
    0.8758   -7.3995    8.4155 H   0  0  0  0  0  0  0  0  0  0  0  0
    1.5228   -9.3236    7.2434 H   0  0  0  0  0  0  0  0  0  0  0  0
    2.3069  -10.2031    5.0827 H   0  0  0  0  0  0  0  0  0  0  0  0
    0.6882  -10.7646    5.3434 H   0  0  0  0  0  0  0  0  0  0  0  0
    0.4761  -10.0080    3.1156 H   0  0  0  0  0  0  0  0  0  0  0  0
    2.5529   -7.9443    3.7083 H   0  0  0  0  0  0  0  0  0  0  0  0
    1.7096   -9.4925    1.2239 H   0  0  0  0  0  0  0  0  0  0  0  0
    2.4264   -7.9207    1.0560 H   0  0  0  0  0  0  0  0  0  0  0  0
    4.0664   -9.8335    0.0837 H   0  0  0  0  0  0  0  0  0  0  0  0
    5.6923  -10.9473    1.6505 H   0  0  0  0  0  0  0  0  0  0  0  0
    6.5055   -9.9174    0.4676 H   0  0  0  0  0  0  0  0  0  0  0  0
    5.8827   -9.1809    3.3764 H   0  0  0  0  0  0  0  0  0  0  0  0
    7.4722   -9.4524    2.6922 H   0  0  0  0  0  0  0  0  0  0  0  0
    6.9167   -6.9931    2.8883 H   0  0  0  0  0  0  0  0  0  0  0  0
    7.2816   -7.4784    1.2425 H   0  0  0  0  0  0  0  0  0  0  0  0
    4.4887   -7.1087    2.4220 H   0  0  0  0  0  0  0  0  0  0  0  0
    5.2393   -6.0906    1.2200 H   0  0  0  0  0  0  0  0  0  0  0  0
    0.1476   -7.4154    1.2690 H   0  0  0  0  0  0  0  0  0  0  0  0
    1.5730   -5.7029    4.5039 H   0  0  0  0  0  0  0  0  0  0  0  0
   -2.2285   -7.4563    3.4621 H   0  0  0  0  0  0  0  0  0  0  0  0
   -2.1398   -9.0498    4.2515 H   0  0  0  0  0  0  0  0  0  0  0  0
   -1.7264   -8.8953    2.5358 H   0  0  0  0  0  0  0  0  0  0  0  0
  1  2  1  0
  1 22  1  0
  1 23  1  0
  1 24  1  0
  2 19  1  0
  2  3  2  0
  3  4  1  0
  3 25  1  0
  4  5  1  0
  4 26  1  0
  4 27  1  0
  5 20  1  0
  5  6  1  0
  5 28  1  6
  6  7  1  0
  6 15  1  0
  6 29  1  1
  7  8  1  0
  7 30  1  0
  7 31  1  0
  8  9  1  0
  9 14  1  0
  9 10  1  0
  9 32  1  6
 10 11  1  0
 10 33  1  0
 10 34  1  0
 11 12  1  0
 11 35  1  0
 11 36  1  0
 12 13  1  0
 12 37  1  0
 12 38  1  0
 13 14  1  0
 13 39  1  0
 13 40  1  0
 15 20  1  0
 15 16  1  6
 15 17  1  0
 16 41  1  0
 17 19  1  0
 17 18  1  0
 17 42  1  1
 19 18  1  1
 19 20  1  0
 20 21  1  6
 21 43  1  0
 21 44  1  0
 21 45  1  0
M  END
>  <i_m_ct_stereo_status>  (11) 
1

>  <s_m_source_file>  (11) 
/var/tmp/pbs.5076255.sched01/tmp44bw07az/09l6mph0o.sdf

>  <i_m_source_file_index>  (11) 
6

>  <i_lp_mmshare_version>  (11) 
48012

>  <i_f3d_flags>  (11) 
0

>  <s_epik_input>  (11) 
W0NIM11DMT1bQ0hdW0NIMl1bQ0BASF0oW0NAXTIoW0NIM10pW0NAQF0zKFtPSF0pW0NAQEhdKE80KVtDQF0xMjQpW0NASF0zW0NIMl1PW0NAQEhdNVtDSDJdW0NIMl1bQ0gyXVtDSDJdTzU=

>  <s_epik_cmdline>  (11) 
J2VwaWtfcHl0aG9uJywgJy1waHQnLCAnMi4wJywgJy1waCcsICc3LjAnLCAnLXRuJywgJzgnLCAnLW1hJywgJzIwMCcsICctaW1hZScsICc8aW5maWxlLm1hZT4nLCAnLW9tYWUnLCAnPG91dGZpbGUubWFlPic=

>  <r_lp_tautomer_probability>  (11) 
1

>  <r_epik_Ionization_Penalty>  (11) 
3.08862e-08

>  <r_epik_Ionization_Penalty_Charging>  (11) 
0

>  <r_epik_Ionization_Penalty_Neutral>  (11) 
3.08862e-08

>  <r_epik_State_Penalty>  (11) 
-0

>  <r_epik_Charging_Adjusted_Penalty>  (11) 
0

>  <i_epik_Tot_Q>  (11) 
0

>  <i_epik_Tot_abs_Q>  (11) 
0

>  <s_epik_Chemistry_Notes>  (11) 
This compound contains an acetal/aminal-like group ( X-CH(R)-Y where X, Y are N, S, or O) that may be acid/base labile, releasing an aldehyde.

>  <s_lp_Force_Field>  (11) 
OPLS3e

>  <r_lp_Energy>  (11) 
26.6055

>  <b_lp_Chiralities_Consistent>  (11) 
1

>  <s_lp_Variant>  (11) 
4:0-1

>  <s_i_glide_gridfile>  (11) 
pfpi4k_grid

>  <i_i_glide_lignum>  (11) 
6

>  <i_i_glide_rotatable_bonds>  (11) 
4

>  <r_i_docking_score>  (11) 
-2.54961

>  <r_i_glide_ligand_efficiency>  (11) 
-0.12141

>  <r_i_glide_ligand_efficiency_sa>  (11) 
-0.334961

>  <r_i_glide_ligand_efficiency_ln>  (11) 
-0.630386

>  <r_i_glide_gscore>  (11) 
-2.54961

>  <r_i_glide_lipo>  (11) 
-0.162039

>  <r_i_glide_hbond>  (11) 
0

>  <r_i_glide_metal>  (11) 
-0

>  <r_i_glide_rewards>  (11) 
-1.41566

>  <r_i_glide_evdw>  (11) 
-19.8005

>  <r_i_glide_ecoul>  (11) 
-3.65075

>  <r_i_glide_erotb>  (11) 
0.640706

>  <r_i_glide_esite>  (11) 
-0.0749796

>  <r_i_glide_emodel>  (11) 
-25.9762

>  <r_i_glide_energy>  (11) 
-23.4513

>  <r_i_glide_einternal>  (11) 
3.15445

>  <r_i_glide_intrahb_reward>  (11) 
-0

>  <i_i_glide_confnum>  (11) 
2

>  <i_i_glide_posenum>  (11) 
34

>  <r_i_glide_eff_state_penalty>  (11) 
0

>  <ligand_id>  (11) 
4

>  <original_smiles>  (11) 
CC1=CCC2C(COC3CCCCO3)C3(O)C4OC14C23C

>  <smiles>  (11) 
[H]OC12C3([H])OC34C(C([H])([H])[H])=C([H])C([H])([H])C([H])(C1([H])C([H])([H])OC1([H])OC([H])([H])C([H])([H])C([H])([H])C1([H])[H])C42C([H])([H])[H]

$$$$
4:0:2
     RDKit          3D

 45 49  0  0  1  0  0  0  0  0999 V2000
    3.7345   -3.2957   -3.8732 C   0  0  0  0  0  0  0  0  0  0  0  0
    3.7708   -3.1808   -2.3491 C   0  0  0  0  0  0  0  0  0  0  0  0
    2.7037   -3.3956   -1.5833 C   0  0  0  0  0  0  0  0  0  0  0  0
    2.6520   -3.3252   -0.0628 C   0  0  0  0  0  0  0  0  0  0  0  0
    3.9463   -2.8013    0.5727 C   0  0  2  0  0  0  0  0  0  0  0  0
    4.2341   -1.2963    0.5723 C   0  0  1  0  0  0  0  0  0  0  0  0
    4.2238   -0.5983    1.9362 C   0  0  0  0  0  0  0  0  0  0  0  0
    2.9045   -0.6124    2.4537 O   0  0  0  0  0  0  0  0  0  0  0  0
    2.7339    0.1994    3.5765 C   0  0  2  0  0  0  0  0  0  0  0  0
    1.3416   -0.0635    4.1846 C   0  0  0  0  0  0  0  0  0  0  0  0
    0.2467    0.4184    3.2192 C   0  0  0  0  0  0  0  0  0  0  0  0
    0.4988    1.8822    2.8276 C   0  0  0  0  0  0  0  0  0  0  0  0
    1.9272    2.0329    2.2986 C   0  0  0  0  0  0  0  0  0  0  0  0
    2.8409    1.5646    3.2849 O   0  0  0  0  0  0  0  0  0  0  0  0
    5.5684   -1.5545   -0.1712 C   0  0  2  0  0  0  0  0  0  0  0  0
    6.7596   -1.0944    0.4232 O   0  0  0  0  0  0  0  0  0  0  0  0
    5.6266   -1.4990   -1.6861 C   0  0  2  0  0  0  0  0  0  0  0  0
    6.2177   -2.5631   -2.4850 O   0  0  0  0  0  0  0  0  0  0  0  0
    5.0913   -2.9095   -1.7162 C   0  0  2  0  0  0  0  0  0  0  0  0
    5.2255   -3.0367   -0.2240 C   0  0  2  0  0  0  0  0  0  0  0  0
    6.2158   -4.1000    0.1822 C   0  0  0  0  0  0  0  0  0  0  0  0
    4.4374   -4.0574   -4.2057 H   0  0  0  0  0  0  0  0  0  0  0  0
    3.9655   -2.3428   -4.3450 H   0  0  0  0  0  0  0  0  0  0  0  0
    2.7319   -3.6010   -4.1688 H   0  0  0  0  0  0  0  0  0  0  0  0
    1.7733   -3.6594   -2.0567 H   0  0  0  0  0  0  0  0  0  0  0  0
    1.8229   -2.6921    0.2230 H   0  0  0  0  0  0  0  0  0  0  0  0
    2.4244   -4.3263    0.3091 H   0  0  0  0  0  0  0  0  0  0  0  0
    4.0707   -3.1807    1.5861 H   0  0  0  0  0  0  0  0  0  0  0  0
    3.5405   -0.7780   -0.0986 H   0  0  0  0  0  0  0  0  0  0  0  0
    4.8842   -1.0637    2.6638 H   0  0  0  0  0  0  0  0  0  0  0  0
    4.5607    0.4337    1.8285 H   0  0  0  0  0  0  0  0  0  0  0  0
    3.5050   -0.0444    4.3099 H   0  0  0  0  0  0  0  0  0  0  0  0
    1.2422   -1.1318    4.3967 H   0  0  0  0  0  0  0  0  0  0  0  0
    1.2875    0.4778    5.1291 H   0  0  0  0  0  0  0  0  0  0  0  0
    0.2275   -0.2034    2.3197 H   0  0  0  0  0  0  0  0  0  0  0  0
   -0.7310    0.3312    3.6862 H   0  0  0  0  0  0  0  0  0  0  0  0
   -0.2213    2.2048    2.0728 H   0  0  0  0  0  0  0  0  0  0  0  0
    0.3632    2.5310    3.6926 H   0  0  0  0  0  0  0  0  0  0  0  0
    2.0510    1.4923    1.3569 H   0  0  0  0  0  0  0  0  0  0  0  0
    2.1500    3.0804    2.0936 H   0  0  0  0  0  0  0  0  0  0  0  0
    6.6849   -1.3016    1.3357 H   0  0  0  0  0  0  0  0  0  0  0  0
    5.0921   -0.6905   -2.1788 H   0  0  0  0  0  0  0  0  0  0  0  0
    7.1309   -3.9697   -0.3910 H   0  0  0  0  0  0  0  0  0  0  0  0
    5.8011   -5.0873   -0.0225 H   0  0  0  0  0  0  0  0  0  0  0  0
    6.4470   -4.0192    1.2480 H   0  0  0  0  0  0  0  0  0  0  0  0
  1  2  1  0
  1 22  1  0
  1 23  1  0
  1 24  1  0
  2 19  1  0
  2  3  2  0
  3  4  1  0
  3 25  1  0
  4  5  1  0
  4 26  1  0
  4 27  1  0
  5 20  1  0
  5  6  1  0
  5 28  1  1
  6  7  1  0
  6 15  1  0
  6 29  1  6
  7  8  1  0
  7 30  1  0
  7 31  1  0
  8  9  1  0
  9 14  1  0
  9 10  1  0
  9 32  1  1
 10 11  1  0
 10 33  1  0
 10 34  1  0
 11 12  1  0
 11 35  1  0
 11 36  1  0
 12 13  1  0
 12 37  1  0
 12 38  1  0
 13 14  1  0
 13 39  1  0
 13 40  1  0
 15 20  1  0
 15 16  1  1
 15 17  1  0
 16 41  1  0
 17 19  1  0
 17 18  1  0
 17 42  1  6
 19 18  1  6
 19 20  1  0
 20 21  1  6
 21 43  1  0
 21 44  1  0
 21 45  1  0
M  END
>  <i_m_ct_stereo_status>  (12) 
1

>  <s_m_source_file>  (12) 
/var/tmp/pbs.5076255.sched01/tmp44bw07az/09l6mph0o.sdf

>  <i_m_source_file_index>  (12) 
6

>  <i_lp_mmshare_version>  (12) 
48012

>  <i_f3d_flags>  (12) 
0

>  <s_epik_input>  (12) 
W0NIM11DMT1bQ0hdW0NIMl1bQ0BASF0oW0NAXTIoW0NIM10pW0NAQF0zKFtPSF0pW0NAQEhdKE80KVtDQF0xMjQpW0NASF0zW0NIMl1PW0NAQEhdNVtDSDJdW0NIMl1bQ0gyXVtDSDJdTzU=

>  <s_epik_cmdline>  (12) 
J2VwaWtfcHl0aG9uJywgJy1waHQnLCAnMi4wJywgJy1waCcsICc3LjAnLCAnLXRuJywgJzgnLCAnLW1hJywgJzIwMCcsICctaW1hZScsICc8aW5maWxlLm1hZT4nLCAnLW9tYWUnLCAnPG91dGZpbGUubWFlPic=

>  <r_lp_tautomer_probability>  (12) 
1

>  <r_epik_Ionization_Penalty>  (12) 
3.08862e-08

>  <r_epik_Ionization_Penalty_Charging>  (12) 
0

>  <r_epik_Ionization_Penalty_Neutral>  (12) 
3.08862e-08

>  <r_epik_State_Penalty>  (12) 
-0

>  <r_epik_Charging_Adjusted_Penalty>  (12) 
0

>  <i_epik_Tot_Q>  (12) 
0

>  <i_epik_Tot_abs_Q>  (12) 
0

>  <s_epik_Chemistry_Notes>  (12) 
This compound contains an acetal/aminal-like group ( X-CH(R)-Y where X, Y are N, S, or O) that may be acid/base labile, releasing an aldehyde.

>  <s_lp_Force_Field>  (12) 
OPLS3e

>  <r_lp_Energy>  (12) 
26.6055

>  <b_lp_Chiralities_Consistent>  (12) 
1

>  <s_lp_Variant>  (12) 
4:0-1

>  <s_i_glide_gridfile>  (12) 
pfpi4k_grid

>  <i_i_glide_lignum>  (12) 
6

>  <i_i_glide_rotatable_bonds>  (12) 
4

>  <r_i_docking_score>  (12) 
-2.33462

>  <r_i_glide_ligand_efficiency>  (12) 
-0.111173

>  <r_i_glide_ligand_efficiency_sa>  (12) 
-0.306717

>  <r_i_glide_ligand_efficiency_ln>  (12) 
-0.577231

>  <r_i_glide_gscore>  (12) 
-2.33462

>  <r_i_glide_lipo>  (12) 
-0.44995

>  <r_i_glide_hbond>  (12) 
0

>  <r_i_glide_metal>  (12) 
-0

>  <r_i_glide_rewards>  (12) 
-1.41566

>  <r_i_glide_evdw>  (12) 
-20.9229

>  <r_i_glide_ecoul>  (12) 
-0.413506

>  <r_i_glide_erotb>  (12) 
0.640706

>  <r_i_glide_esite>  (12) 
-0.00155327

>  <r_i_glide_emodel>  (12) 
-25.155

>  <r_i_glide_energy>  (12) 
-21.3364

>  <r_i_glide_einternal>  (12) 
0.267031

>  <r_i_glide_intrahb_reward>  (12) 
-0

>  <i_i_glide_confnum>  (12) 
2

>  <i_i_glide_posenum>  (12) 
15

>  <r_i_glide_eff_state_penalty>  (12) 
0

>  <ligand_id>  (12) 
4

>  <original_smiles>  (12) 
CC1=CCC2C(COC3CCCCO3)C3(O)C4OC14C23C

>  <smiles>  (12) 
[H]OC12C3([H])OC34C(C([H])([H])[H])=C([H])C([H])([H])C([H])(C1([H])C([H])([H])OC1([H])OC([H])([H])C([H])([H])C([H])([H])C1([H])[H])C42C([H])([H])[H]

$$$$
5:1:0
     RDKit          3D

 42 46  0  0  1  0  0  0  0  0999 V2000
    1.7640   -1.7568    6.2504 C   0  0  0  0  0  0  0  0  0  0  0  0
    1.1009   -0.4042    6.3668 C   0  0  0  0  0  0  0  0  0  0  0  0
    1.4881    0.7476    5.7667 C   0  0  0  0  0  0  0  0  0  0  0  0
    0.7696    2.0451    6.1332 C   0  0  2  0  0  0  0  0  0  0  0  0
   -0.6348    2.1873    5.5159 C   0  0  0  0  0  0  0  0  0  0  0  0
   -1.4611    3.1607    6.0059 C   0  0  0  0  0  0  0  0  0  0  0  0
   -2.7273    3.1505    5.8888 O   0  0  0  0  0  0  0  0  0  0  0  0
   -0.8317    4.2473    6.6354 C   0  0  0  0  0  0  0  0  0  0  0  0
    0.5147    4.3734    6.5182 C   0  0  0  0  0  0  0  0  0  0  0  0
    1.3921    3.3828    5.7392 C   0  0  2  0  0  0  0  0  0  0  0  0
    1.0773    3.4090    4.2122 C   0  0  2  0  0  0  0  0  0  0  0  0
   -0.1972    2.5493    4.1499 C   0  0  0  0  0  0  0  0  0  0  0  0
   -0.7135    2.1911    3.1034 O   0  0  0  0  0  0  0  0  0  0  0  0
    2.2064    2.9152    3.2841 C   0  0  1  0  0  0  0  0  0  0  0  0
    3.0313    4.0268    3.0463 O   0  0  0  0  0  0  0  0  0  0  0  0
    3.0751    1.7941    3.8157 C   0  0  1  0  0  0  0  0  0  0  0  0
    2.7265    0.7995    4.9276 C   0  0  2  0  0  0  0  0  0  0  0  0
    2.7471    0.3741    3.4669 C   0  0  1  0  0  0  0  0  0  0  0  0
    1.5312   -0.2366    2.8278 C   0  0  0  0  0  0  0  0  0  0  0  0
    2.3384   -1.4985    2.5414 C   0  0  1  0  0  0  0  0  0  0  0  0
    2.2533   -2.0916    1.2633 O   0  0  0  0  0  0  0  0  0  0  0  0
    3.6159   -0.7699    2.9674 C   0  0  1  0  0  0  0  0  0  0  0  0
    4.4468   -0.3092    1.9268 O   0  0  0  0  0  0  0  0  0  0  0  0
    1.9802   -2.1543    7.2429 H   0  0  0  0  0  0  0  0  0  0  0  0
    2.6989   -1.7318    5.6981 H   0  0  0  0  0  0  0  0  0  0  0  0
    1.0876   -2.4430    5.7468 H   0  0  0  0  0  0  0  0  0  0  0  0
    0.2395   -0.3529    7.0023 H   0  0  0  0  0  0  0  0  0  0  0  0
    0.6421    2.0122    7.2160 H   0  0  0  0  0  0  0  0  0  0  0  0
   -1.3770    5.0396    7.0804 H   0  0  0  0  0  0  0  0  0  0  0  0
    1.0316    5.2181    6.9759 H   0  0  0  0  0  0  0  0  0  0  0  0
    2.4540    3.4892    5.9934 H   0  0  0  0  0  0  0  0  0  0  0  0
    0.7668    4.4052    3.8790 H   0  0  0  0  0  0  0  0  0  0  0  0
    1.7949    2.6028    2.3287 H   0  0  0  0  0  0  0  0  0  0  0  0
    3.7328    3.7450    2.4794 H   0  0  0  0  0  0  0  0  0  0  0  0
    4.1358    2.0044    3.7278 H   0  0  0  0  0  0  0  0  0  0  0  0
    3.5874    0.5266    5.5325 H   0  0  0  0  0  0  0  0  0  0  0  0
    0.6687   -0.3915    3.4772 H   0  0  0  0  0  0  0  0  0  0  0  0
    1.2538    0.2677    1.9018 H   0  0  0  0  0  0  0  0  0  0  0  0
    2.1209   -2.2492    3.3017 H   0  0  0  0  0  0  0  0  0  0  0  0
    1.9014   -1.4553    0.6411 H   0  0  0  0  0  0  0  0  0  0  0  0
    4.1921   -1.3202    3.7143 H   0  0  0  0  0  0  0  0  0  0  0  0
    3.8975    0.2336    1.3807 H   0  0  0  0  0  0  0  0  0  0  0  0
  1  2  1  0
  1 24  1  0
  1 25  1  0
  1 26  1  0
  2  3  2  3
  2 27  1  0
  3 17  1  0
  3  4  1  0
  4 10  1  0
  4  5  1  0
  4 28  1  1
  5 12  1  0
  5  6  2  0
  6  7  1  0
  6  8  1  0
  8  9  2  0
  8 29  1  0
  9 10  1  0
  9 30  1  0
 10 11  1  0
 10 31  1  6
 11 12  1  0
 11 14  1  0
 11 32  1  6
 12 13  2  0
 14 15  1  0
 14 16  1  0
 14 33  1  6
 15 34  1  0
 16 18  1  0
 16 17  1  0
 16 35  1  1
 17 18  1  0
 17 36  1  1
 18 22  1  0
 18 19  1  6
 19 20  1  0
 19 37  1  0
 19 38  1  0
 20 21  1  0
 20 22  1  0
 20 39  1  1
 21 40  1  0
 22 23  1  0
 22 41  1  1
 23 42  1  0
M  CHG  1   7  -1
M  END
>  <i_m_ct_stereo_status>  (13) 
1

>  <s_m_source_file>  (13) 
/var/tmp/pbs.5076255.sched01/tmp44bw07az/09l6mph0o.sdf

>  <i_m_source_file_index>  (13) 
8

>  <i_lp_mmshare_version>  (13) 
48012

>  <i_f3d_flags>  (13) 
0

>  <s_epik_input>  (13) 
W09IXVtDQEBIXTFbQ0BIXShbT0hdKVtDSDJdW0NAXTEyW0NAQEhdM1tDQEhdMkMoPVtDSF1cW0NIM10pXFtDQEhdNFtDQEhdNUMoPU8pW0NIXT1bQ0hdW0NAQEhdNFtDQEhdKEM1PU8pW0NASF0zW09IXQ==

>  <s_epik_cmdline>  (13) 
J2VwaWtfcHl0aG9uJywgJy1waHQnLCAnMi4wJywgJy1waCcsICc3LjAnLCAnLXRuJywgJzgnLCAnLW1hJywgJzIwMCcsICctaW1hZScsICc8aW5maWxlLm1hZT4nLCAnLW9tYWUnLCAnPG91dGZpbGUubWFlPic=

>  <r_epik_Ionization_Penalty>  (13) 
0.065394

>  <r_epik_Ionization_Penalty_Charging>  (13) 
0.0568004

>  <r_epik_Ionization_Penalty_Neutral>  (13) 
0.00859362

>  <r_epik_State_Penalty>  (13) 
0.176636

>  <r_epik_Charging_Adjusted_Penalty>  (13) 
0.233436

>  <i_epik_Tot_Q>  (13) 
-1

>  <i_epik_Tot_abs_Q>  (13) 
1

>  <s_lp_Force_Field>  (13) 
OPLS3e

>  <r_lp_Energy>  (13) 
98.0483

>  <b_lp_Chiralities_Consistent>  (13) 
1

>  <s_lp_Variant>  (13) 
5:0-2

>  <s_i_glide_gridfile>  (13) 
pfpi4k_grid

>  <i_i_glide_lignum>  (13) 
8

>  <i_i_glide_rotatable_bonds>  (13) 
3

>  <r_i_docking_score>  (13) 
-2.95349

>  <r_i_glide_ligand_efficiency>  (13) 
-0.128413

>  <r_i_glide_ligand_efficiency_sa>  (13) 
-0.365189

>  <r_i_glide_ligand_efficiency_ln>  (13) 
-0.714181

>  <r_i_glide_gscore>  (13) 
-2.95349

>  <r_i_glide_lipo>  (13) 
-0.0275496

>  <r_i_glide_hbond>  (13) 
-0.289598

>  <r_i_glide_metal>  (13) 
-0

>  <r_i_glide_rewards>  (13) 
-1.25904

>  <r_i_glide_evdw>  (13) 
-15.7824

>  <r_i_glide_ecoul>  (13) 
-3.71632

>  <r_i_glide_erotb>  (13) 
0

>  <r_i_glide_esite>  (13) 
-0.0307343

>  <r_i_glide_emodel>  (13) 
-25.0543

>  <r_i_glide_energy>  (13) 
-19.4987

>  <r_i_glide_einternal>  (13) 
1.08102

>  <r_i_glide_intrahb_reward>  (13) 
-0

>  <i_i_glide_confnum>  (13) 
2

>  <i_i_glide_posenum>  (13) 
6

>  <r_i_glide_eff_state_penalty>  (13) 
0

>  <ligand_id>  (13) 
5

>  <original_smiles>  (13) 
CC=C1C2C3C(=O)C=CC2C(C3=O)C(O)C2C1C21CC(O)C1O

>  <smiles>  (13) 
[H]OC1([H])C([H])([H])C2(C1([H])O[H])C1([H])C(=C([H])C([H])([H])[H])C3([H])C4=C([O-])C([H])=C([H])C3([H])C([H])(C4=O)C([H])(O[H])C12[H]

$$$$
5:1:1
     RDKit          3D

 42 46  0  0  1  0  0  0  0  0999 V2000
    2.4774   -1.2095    6.5834 C   0  0  0  0  0  0  0  0  0  0  0  0
    1.5829   -0.0052    6.7820 C   0  0  0  0  0  0  0  0  0  0  0  0
    1.5497    1.1183    6.0362 C   0  0  0  0  0  0  0  0  0  0  0  0
    0.6777    2.2818    6.5097 C   0  0  2  0  0  0  0  0  0  0  0  0
   -0.8169    2.0923    6.2485 C   0  0  0  0  0  0  0  0  0  0  0  0
   -1.7155    2.9103    6.9096 C   0  0  0  0  0  0  0  0  0  0  0  0
   -2.8987    2.5568    7.1763 O   0  0  0  0  0  0  0  0  0  0  0  0
   -1.2076    4.1875    7.2472 C   0  0  0  0  0  0  0  0  0  0  0  0
    0.0304    4.5515    6.8218 C   0  0  0  0  0  0  0  0  0  0  0  0
    0.9083    3.6719    5.9181 C   0  0  2  0  0  0  0  0  0  0  0  0
    0.2600    3.4927    4.5206 C   0  0  2  0  0  0  0  0  0  0  0  0
   -0.7776    2.4080    4.8134 C   0  0  0  0  0  0  0  0  0  0  0  0
   -1.4373    1.8639    3.9437 O   0  0  0  0  0  0  0  0  0  0  0  0
    1.2202    3.1268    3.3720 C   0  0  1  0  0  0  0  0  0  0  0  0
    1.6952    4.3554    2.8962 O   0  0  0  0  0  0  0  0  0  0  0  0
    2.4097    2.2580    3.7068 C   0  0  1  0  0  0  0  0  0  0  0  0
    2.5236    1.3296    4.9149 C   0  0  2  0  0  0  0  0  0  0  0  0
    2.3027    0.7678    3.5341 C   0  0  1  0  0  0  0  0  0  0  0  0
    1.1272   -0.1282    3.2551 C   0  0  0  0  0  0  0  0  0  0  0  0
    2.0953   -1.2337    2.8635 C   0  0  1  0  0  0  0  0  0  0  0  0
    1.8620   -1.9349    1.6653 O   0  0  0  0  0  0  0  0  0  0  0  0
    3.2479   -0.2446    2.9097 C   0  0  1  0  0  0  0  0  0  0  0  0
    3.6460    0.2236    1.6448 O   0  0  0  0  0  0  0  0  0  0  0  0
    2.9996   -1.4541    7.5090 H   0  0  0  0  0  0  0  0  0  0  0  0
    3.2304   -1.0601    5.8115 H   0  0  0  0  0  0  0  0  0  0  0  0
    1.8640   -2.0648    6.3072 H   0  0  0  0  0  0  0  0  0  0  0  0
    0.9130   -0.0590    7.6226 H   0  0  0  0  0  0  0  0  0  0  0  0
    0.8281    2.3433    7.5831 H   0  0  0  0  0  0  0  0  0  0  0  0
   -1.8114    4.9065    7.7788 H   0  0  0  0  0  0  0  0  0  0  0  0
    0.4643    5.5027    7.0987 H   0  0  0  0  0  0  0  0  0  0  0  0
    1.9522    4.0149    5.8826 H   0  0  0  0  0  0  0  0  0  0  0  0
   -0.3376    4.3539    4.2158 H   0  0  0  0  0  0  0  0  0  0  0  0
    0.6863    2.6445    2.5520 H   0  0  0  0  0  0  0  0  0  0  0  0
    1.1479    4.5579    2.1372 H   0  0  0  0  0  0  0  0  0  0  0  0
    3.3435    2.6665    3.3222 H   0  0  0  0  0  0  0  0  0  0  0  0
    3.5246    1.2938    5.3134 H   0  0  0  0  0  0  0  0  0  0  0  0
    0.5124   -0.3744    4.1182 H   0  0  0  0  0  0  0  0  0  0  0  0
    0.5415    0.2097    2.4011 H   0  0  0  0  0  0  0  0  0  0  0  0
    2.2134   -1.9336    3.6886 H   0  0  0  0  0  0  0  0  0  0  0  0
    1.6284   -1.3066    0.9807 H   0  0  0  0  0  0  0  0  0  0  0  0
    4.0953   -0.5911    3.5123 H   0  0  0  0  0  0  0  0  0  0  0  0
    4.0831   -0.4953    1.2105 H   0  0  0  0  0  0  0  0  0  0  0  0
  1  2  1  0
  1 24  1  0
  1 25  1  0
  1 26  1  0
  2  3  2  3
  2 27  1  0
  3 17  1  0
  3  4  1  0
  4 10  1  0
  4  5  1  0
  4 28  1  1
  5 12  1  0
  5  6  2  0
  6  7  1  0
  6  8  1  0
  8  9  2  0
  8 29  1  0
  9 10  1  0
  9 30  1  0
 10 11  1  0
 10 31  1  6
 11 12  1  0
 11 14  1  0
 11 32  1  6
 12 13  2  0
 14 15  1  0
 14 16  1  0
 14 33  1  6
 15 34  1  0
 16 18  1  0
 16 17  1  0
 16 35  1  6
 17 18  1  0
 17 36  1  1
 18 22  1  0
 18 19  1  1
 19 20  1  0
 19 37  1  0
 19 38  1  0
 20 21  1  0
 20 22  1  0
 20 39  1  1
 21 40  1  0
 22 23  1  0
 22 41  1  1
 23 42  1  0
M  CHG  1   7  -1
M  END
>  <i_m_ct_stereo_status>  (14) 
1

>  <s_m_source_file>  (14) 
/var/tmp/pbs.5076255.sched01/tmp44bw07az/09l6mph0o.sdf

>  <i_m_source_file_index>  (14) 
8

>  <i_lp_mmshare_version>  (14) 
48012

>  <i_f3d_flags>  (14) 
0

>  <s_epik_input>  (14) 
W09IXVtDQEBIXTFbQ0BIXShbT0hdKVtDSDJdW0NAXTEyW0NAQEhdM1tDQEhdMkMoPVtDSF1cW0NIM10pXFtDQEhdNFtDQEhdNUMoPU8pW0NIXT1bQ0hdW0NAQEhdNFtDQEhdKEM1PU8pW0NASF0zW09IXQ==

>  <s_epik_cmdline>  (14) 
J2VwaWtfcHl0aG9uJywgJy1waHQnLCAnMi4wJywgJy1waCcsICc3LjAnLCAnLXRuJywgJzgnLCAnLW1hJywgJzIwMCcsICctaW1hZScsICc8aW5maWxlLm1hZT4nLCAnLW9tYWUnLCAnPG91dGZpbGUubWFlPic=

>  <r_epik_Ionization_Penalty>  (14) 
0.065394

>  <r_epik_Ionization_Penalty_Charging>  (14) 
0.0568004

>  <r_epik_Ionization_Penalty_Neutral>  (14) 
0.00859362

>  <r_epik_State_Penalty>  (14) 
0.176636

>  <r_epik_Charging_Adjusted_Penalty>  (14) 
0.233436

>  <i_epik_Tot_Q>  (14) 
-1

>  <i_epik_Tot_abs_Q>  (14) 
1

>  <s_lp_Force_Field>  (14) 
OPLS3e

>  <r_lp_Energy>  (14) 
98.0483

>  <b_lp_Chiralities_Consistent>  (14) 
1

>  <s_lp_Variant>  (14) 
5:0-2

>  <s_i_glide_gridfile>  (14) 
pfpi4k_grid

>  <i_i_glide_lignum>  (14) 
8

>  <i_i_glide_rotatable_bonds>  (14) 
3

>  <r_i_docking_score>  (14) 
-2.75714

>  <r_i_glide_ligand_efficiency>  (14) 
-0.119876

>  <r_i_glide_ligand_efficiency_sa>  (14) 
-0.34091

>  <r_i_glide_ligand_efficiency_ln>  (14) 
-0.666702

>  <r_i_glide_gscore>  (14) 
-2.75714

>  <r_i_glide_lipo>  (14) 
-0.0474674

>  <r_i_glide_hbond>  (14) 
-0.152467

>  <r_i_glide_metal>  (14) 
-0

>  <r_i_glide_rewards>  (14) 
-1.25904

>  <r_i_glide_evdw>  (14) 
-15.3594

>  <r_i_glide_ecoul>  (14) 
-3.44046

>  <r_i_glide_erotb>  (14) 
0

>  <r_i_glide_esite>  (14) 
-0.0141243

>  <r_i_glide_emodel>  (14) 
-23.7088

>  <r_i_glide_energy>  (14) 
-18.7999

>  <r_i_glide_einternal>  (14) 
1.20387

>  <r_i_glide_intrahb_reward>  (14) 
-0

>  <i_i_glide_confnum>  (14) 
1

>  <i_i_glide_posenum>  (14) 
1

>  <r_i_glide_eff_state_penalty>  (14) 
0

>  <ligand_id>  (14) 
5

>  <original_smiles>  (14) 
CC=C1C2C3C(=O)C=CC2C(C3=O)C(O)C2C1C21CC(O)C1O

>  <smiles>  (14) 
[H]OC1([H])C([H])([H])C2(C1([H])O[H])C1([H])C(=C([H])C([H])([H])[H])C3([H])C4=C([O-])C([H])=C([H])C3([H])C([H])(C4=O)C([H])(O[H])C12[H]

$$$$
5:1:2
     RDKit          3D

 42 46  0  0  1  0  0  0  0  0999 V2000
    1.8214    6.6554    8.6050 C   0  0  0  0  0  0  0  0  0  0  0  0
    0.8756    6.1908    7.5145 C   0  0  0  0  0  0  0  0  0  0  0  0
    1.2019    5.8037    6.2687 C   0  0  0  0  0  0  0  0  0  0  0  0
    0.0731    5.5239    5.2813 C   0  0  2  0  0  0  0  0  0  0  0  0
   -0.6182    4.1865    5.4870 C   0  0  0  0  0  0  0  0  0  0  0  0
   -1.8552    3.9802    4.8707 C   0  0  0  0  0  0  0  0  0  0  0  0
   -2.7074    3.1488    5.3016 O   0  0  0  0  0  0  0  0  0  0  0  0
   -2.0413    4.7024    3.6696 C   0  0  0  0  0  0  0  0  0  0  0  0
   -1.0008    5.4152    3.1350 C   0  0  0  0  0  0  0  0  0  0  0  0
    0.3871    5.4557    3.7889 C   0  0  2  0  0  0  0  0  0  0  0  0
    1.0534    4.0587    3.7170 C   0  0  2  0  0  0  0  0  0  0  0  0
    0.4061    3.3353    4.8925 C   0  0  0  0  0  0  0  0  0  0  0  0
    0.7306    2.2189    5.2908 O   0  0  0  0  0  0  0  0  0  0  0  0
    2.5893    4.0396    3.7941 C   0  0  1  0  0  0  0  0  0  0  0  0
    3.0089    4.2675    2.4643 O   0  0  0  0  0  0  0  0  0  0  0  0
    3.2665    5.0999    4.6396 C   0  0  1  0  0  0  0  0  0  0  0  0
    2.6143    5.8846    5.7790 C   0  0  2  0  0  0  0  0  0  0  0  0
    3.6120    4.7950    6.0697 C   0  0  1  0  0  0  0  0  0  0  0  0
    3.2751    3.6149    6.9439 C   0  0  0  0  0  0  0  0  0  0  0  0
    4.4065    4.0239    7.8832 C   0  0  1  0  0  0  0  0  0  0  0  0
    5.3104    3.0281    8.3174 O   0  0  0  0  0  0  0  0  0  0  0  0
    4.8839    5.0369    6.8520 C   0  0  1  0  0  0  0  0  0  0  0  0
    5.9986    4.6137    6.0885 O   0  0  0  0  0  0  0  0  0  0  0  0
    1.5002    7.6170    9.0038 H   0  0  0  0  0  0  0  0  0  0  0  0
    2.8457    6.7673    8.2553 H   0  0  0  0  0  0  0  0  0  0  0  0
    1.8128    5.9269    9.4131 H   0  0  0  0  0  0  0  0  0  0  0  0
   -0.1670    6.1813    7.7874 H   0  0  0  0  0  0  0  0  0  0  0  0
   -0.6318    6.3267    5.4465 H   0  0  0  0  0  0  0  0  0  0  0  0
   -2.9483    4.6178    3.0837 H   0  0  0  0  0  0  0  0  0  0  0  0
   -1.1077    5.9885    2.2256 H   0  0  0  0  0  0  0  0  0  0  0  0
    1.0005    6.2742    3.3801 H   0  0  0  0  0  0  0  0  0  0  0  0
    0.7235    3.4714    2.8536 H   0  0  0  0  0  0  0  0  0  0  0  0
    2.9641    3.0602    4.1089 H   0  0  0  0  0  0  0  0  0  0  0  0
    2.2312    4.3865    1.9337 H   0  0  0  0  0  0  0  0  0  0  0  0
    4.0542    5.6220    4.0868 H   0  0  0  0  0  0  0  0  0  0  0  0
    2.9602    6.9057    5.8282 H   0  0  0  0  0  0  0  0  0  0  0  0
    2.2861    3.6538    7.3868 H   0  0  0  0  0  0  0  0  0  0  0  0
    3.4722    2.6599    6.4504 H   0  0  0  0  0  0  0  0  0  0  0  0
    3.9913    4.5562    8.7413 H   0  0  0  0  0  0  0  0  0  0  0  0
    5.5988    2.5395    7.5590 H   0  0  0  0  0  0  0  0  0  0  0  0
    5.0361    6.0353    7.2605 H   0  0  0  0  0  0  0  0  0  0  0  0
    6.7612    4.6912    6.6398 H   0  0  0  0  0  0  0  0  0  0  0  0
  1  2  1  0
  1 24  1  0
  1 25  1  0
  1 26  1  0
  2  3  2  3
  2 27  1  0
  3 17  1  0
  3  4  1  0
  4 10  1  0
  4  5  1  0
  4 28  1  6
  5 12  1  0
  5  6  2  0
  6  7  1  0
  6  8  1  0
  8  9  2  0
  8 29  1  0
  9 10  1  0
  9 30  1  0
 10 11  1  0
 10 31  1  6
 11 12  1  0
 11 14  1  0
 11 32  1  6
 12 13  2  0
 14 15  1  0
 14 16  1  0
 14 33  1  1
 15 34  1  0
 16 18  1  0
 16 17  1  0
 16 35  1  6
 17 18  1  0
 17 36  1  6
 18 22  1  0
 18 19  1  1
 19 20  1  0
 19 37  1  0
 19 38  1  0
 20 21  1  0
 20 22  1  0
 20 39  1  1
 21 40  1  0
 22 23  1  0
 22 41  1  1
 23 42  1  0
M  CHG  1   7  -1
M  END
>  <i_m_ct_stereo_status>  (15) 
1

>  <s_m_source_file>  (15) 
/var/tmp/pbs.5076255.sched01/tmp44bw07az/09l6mph0o.sdf

>  <i_m_source_file_index>  (15) 
8

>  <i_lp_mmshare_version>  (15) 
48012

>  <i_f3d_flags>  (15) 
0

>  <s_epik_input>  (15) 
W09IXVtDQEBIXTFbQ0BIXShbT0hdKVtDSDJdW0NAXTEyW0NAQEhdM1tDQEhdMkMoPVtDSF1cW0NIM10pXFtDQEhdNFtDQEhdNUMoPU8pW0NIXT1bQ0hdW0NAQEhdNFtDQEhdKEM1PU8pW0NASF0zW09IXQ==

>  <s_epik_cmdline>  (15) 
J2VwaWtfcHl0aG9uJywgJy1waHQnLCAnMi4wJywgJy1waCcsICc3LjAnLCAnLXRuJywgJzgnLCAnLW1hJywgJzIwMCcsICctaW1hZScsICc8aW5maWxlLm1hZT4nLCAnLW9tYWUnLCAnPG91dGZpbGUubWFlPic=

>  <r_epik_Ionization_Penalty>  (15) 
0.065394

>  <r_epik_Ionization_Penalty_Charging>  (15) 
0.0568004

>  <r_epik_Ionization_Penalty_Neutral>  (15) 
0.00859362

>  <r_epik_State_Penalty>  (15) 
0.176636

>  <r_epik_Charging_Adjusted_Penalty>  (15) 
0.233436

>  <i_epik_Tot_Q>  (15) 
-1

>  <i_epik_Tot_abs_Q>  (15) 
1

>  <s_lp_Force_Field>  (15) 
OPLS3e

>  <r_lp_Energy>  (15) 
98.0483

>  <b_lp_Chiralities_Consistent>  (15) 
1

>  <s_lp_Variant>  (15) 
5:0-2

>  <s_i_glide_gridfile>  (15) 
pfpi4k_grid

>  <i_i_glide_lignum>  (15) 
8

>  <i_i_glide_rotatable_bonds>  (15) 
3

>  <r_i_docking_score>  (15) 
-2.61913

>  <r_i_glide_ligand_efficiency>  (15) 
-0.113875

>  <r_i_glide_ligand_efficiency_sa>  (15) 
-0.323846

>  <r_i_glide_ligand_efficiency_ln>  (15) 
-0.633329

>  <r_i_glide_gscore>  (15) 
-2.61913

>  <r_i_glide_lipo>  (15) 
0

>  <r_i_glide_hbond>  (15) 
-0.00702347

>  <r_i_glide_metal>  (15) 
-0

>  <r_i_glide_rewards>  (15) 
-1.25904

>  <r_i_glide_evdw>  (15) 
-14.1523

>  <r_i_glide_ecoul>  (15) 
-4.19652

>  <r_i_glide_erotb>  (15) 
0

>  <r_i_glide_esite>  (15) 
-0.0159696

>  <r_i_glide_emodel>  (15) 
-23.0755

>  <r_i_glide_energy>  (15) 
-18.3488

>  <r_i_glide_einternal>  (15) 
1.40843

>  <r_i_glide_intrahb_reward>  (15) 
-0

>  <i_i_glide_confnum>  (15) 
2

>  <i_i_glide_posenum>  (15) 
2

>  <r_i_glide_eff_state_penalty>  (15) 
0

>  <ligand_id>  (15) 
5

>  <original_smiles>  (15) 
CC=C1C2C3C(=O)C=CC2C(C3=O)C(O)C2C1C21CC(O)C1O

>  <smiles>  (15) 
[H]OC1([H])C([H])([H])C2(C1([H])O[H])C1([H])C(=C([H])C([H])([H])[H])C3([H])C4=C([O-])C([H])=C([H])C3([H])C([H])(C4=O)C([H])(O[H])C12[H]

$$$$
5:2:0
     RDKit          3D

 43 47  0  0  1  0  0  0  0  0999 V2000
    8.2379   -3.9665    0.1926 C   0  0  0  0  0  0  0  0  0  0  0  0
    7.1429   -2.9982   -0.2108 C   0  0  0  0  0  0  0  0  0  0  0  0
    6.0227   -2.7021    0.4905 C   0  0  0  0  0  0  0  0  0  0  0  0
    5.7373   -3.3252    1.8641 C   0  0  2  0  0  0  0  0  0  0  0  0
    5.3212   -4.7995    1.7688 C   0  0  1  0  0  0  0  0  0  0  0  0
    5.4319   -5.4476    3.1633 C   0  0  0  0  0  0  0  0  0  0  0  0
    5.8058   -6.6114    3.2570 O   0  0  0  0  0  0  0  0  0  0  0  0
    5.0924   -4.6036    4.3267 C   0  0  0  0  0  0  0  0  0  0  0  0
    4.7020   -3.3256    4.1245 C   0  0  0  0  0  0  0  0  0  0  0  0
    4.5957   -2.7214    2.7155 C   0  0  2  0  0  0  0  0  0  0  0  0
    3.3392   -3.2833    2.0295 C   0  0  2  0  0  0  0  0  0  0  0  0
    3.8448   -4.6126    1.4410 C   0  0  0  0  0  0  0  0  0  0  0  0
    3.1621   -5.3951    0.7871 O   0  0  0  0  0  0  0  0  0  0  0  0
    2.7013   -2.3442    0.9968 C   0  0  1  0  0  0  0  0  0  0  0  0
    1.7987   -1.4983    1.6878 O   0  0  0  0  0  0  0  0  0  0  0  0
    3.6174   -1.4577    0.1652 C   0  0  1  0  0  0  0  0  0  0  0  0
    5.1096   -1.6474   -0.0632 C   0  0  2  0  0  0  0  0  0  0  0  0
    4.1159   -1.9638   -1.1595 C   0  0  1  0  0  0  0  0  0  0  0  0
    4.0428   -3.3315   -1.8006 C   0  0  0  0  0  0  0  0  0  0  0  0
    4.4248   -2.6996   -3.1419 C   0  0  1  0  0  0  0  0  0  0  0  0
    3.6742   -3.0334   -4.2942 O   0  0  0  0  0  0  0  0  0  0  0  0
    4.2352   -1.3142   -2.5216 C   0  0  1  0  0  0  0  0  0  0  0  0
    3.0343   -0.6760   -2.8441 O   0  0  0  0  0  0  0  0  0  0  0  0
    9.2059   -3.4709    0.2231 H   0  0  0  0  0  0  0  0  0  0  0  0
    8.3010   -4.7396   -0.5597 H   0  0  0  0  0  0  0  0  0  0  0  0
    8.0660   -4.4520    1.1497 H   0  0  0  0  0  0  0  0  0  0  0  0
    7.3163   -2.4980   -1.1535 H   0  0  0  0  0  0  0  0  0  0  0  0
    6.6175   -3.1967    2.4610 H   0  0  0  0  0  0  0  0  0  0  0  0
    5.8658   -5.3653    1.0114 H   0  0  0  0  0  0  0  0  0  0  0  0
    5.1625   -5.0367    5.3166 H   0  0  0  0  0  0  0  0  0  0  0  0
    4.4348   -2.6843    4.9520 H   0  0  0  0  0  0  0  0  0  0  0  0
    4.6425   -1.6286    2.7837 H   0  0  0  0  0  0  0  0  0  0  0  0
    2.5871   -3.5446    2.7743 H   0  0  0  0  0  0  0  0  0  0  0  0
    2.1019   -2.9320    0.3067 H   0  0  0  0  0  0  0  0  0  0  0  0
    1.3193   -1.0355    0.9998 H   0  0  0  0  0  0  0  0  0  0  0  0
    3.2781   -0.4273    0.1377 H   0  0  0  0  0  0  0  0  0  0  0  0
    5.6562   -0.7126   -0.1437 H   0  0  0  0  0  0  0  0  0  0  0  0
    4.7644   -4.0721   -1.4551 H   0  0  0  0  0  0  0  0  0  0  0  0
    3.0297   -3.7376   -1.8331 H   0  0  0  0  0  0  0  0  0  0  0  0
    5.4845   -2.8339   -3.3335 H   0  0  0  0  0  0  0  0  0  0  0  0
    2.7587   -3.0028   -4.0454 H   0  0  0  0  0  0  0  0  0  0  0  0
    5.0723   -0.6420   -2.6736 H   0  0  0  0  0  0  0  0  0  0  0  0
    2.3933   -0.9512   -2.2009 H   0  0  0  0  0  0  0  0  0  0  0  0
  1  2  1  0
  1 24  1  0
  1 25  1  0
  1 26  1  0
  2  3  2  3
  2 27  1  0
  3 17  1  0
  3  4  1  0
  4 10  1  0
  4  5  1  0
  4 28  1  1
  5 12  1  0
  5  6  1  0
  5 29  1  6
  6  7  2  0
  6  8  1  0
  8  9  2  0
  8 30  1  0
  9 10  1  0
  9 31  1  0
 10 11  1  0
 10 32  1  1
 11 12  1  0
 11 14  1  0
 11 33  1  1
 12 13  2  0
 14 15  1  0
 14 16  1  0
 14 34  1  6
 15 35  1  0
 16 18  1  0
 16 17  1  0
 16 36  1  6
 17 18  1  0
 17 37  1  6
 18 22  1  0
 18 19  1  6
 19 20  1  0
 19 38  1  0
 19 39  1  0
 20 21  1  0
 20 22  1  0
 20 40  1  6
 21 41  1  0
 22 23  1  0
 22 42  1  1
 23 43  1  0
M  END
>  <i_m_ct_stereo_status>  (16) 
1

>  <s_m_source_file>  (16) 
/var/tmp/pbs.5076255.sched01/tmp44bw07az/09l6mph0o.sdf

>  <i_m_source_file_index>  (16) 
9

>  <i_lp_mmshare_version>  (16) 
48012

>  <i_f3d_flags>  (16) 
0

>  <s_epik_input>  (16) 
W09IXVtDQEBIXTFbQ0BIXShbT0hdKVtDSDJdW0NAXTEyW0NAQEhdM1tDQEhdMkMoPVtDSF1cW0NIM10pXFtDQEhdNFtDQEhdNUMoPU8pW0NIXT1bQ0hdW0NAQEhdNFtDQEhdKEM1PU8pW0NASF0zW09IXQ==

>  <s_epik_cmdline>  (16) 
J2VwaWtfcHl0aG9uJywgJy1waHQnLCAnMi4wJywgJy1waCcsICc3LjAnLCAnLXRuJywgJzgnLCAnLW1hJywgJzIwMCcsICctaW1hZScsICc8aW5maWxlLm1hZT4nLCAnLW9tYWUnLCAnPG91dGZpbGUubWFlPic=

>  <r_epik_Ionization_Penalty>  (16) 
0.0597038

>  <r_epik_Ionization_Penalty_Charging>  (16) 
0

>  <r_epik_Ionization_Penalty_Neutral>  (16) 
0.0597038

>  <r_epik_State_Penalty>  (16) 
0.803174

>  <r_epik_Charging_Adjusted_Penalty>  (16) 
0.803174

>  <i_epik_Tot_Q>  (16) 
0

>  <i_epik_Tot_abs_Q>  (16) 
0

>  <s_lp_Force_Field>  (16) 
OPLS3e

>  <r_lp_Energy>  (16) 
32.0709

>  <b_lp_Chiralities_Consistent>  (16) 
1

>  <s_lp_Variant>  (16) 
5:0-3

>  <s_i_glide_gridfile>  (16) 
pfpi4k_grid

>  <i_i_glide_lignum>  (16) 
9

>  <i_i_glide_rotatable_bonds>  (16) 
3

>  <r_i_docking_score>  (16) 
-4.08889

>  <r_i_glide_ligand_efficiency>  (16) 
-0.177778

>  <r_i_glide_ligand_efficiency_sa>  (16) 
-0.505576

>  <r_i_glide_ligand_efficiency_ln>  (16) 
-0.98873

>  <r_i_glide_gscore>  (16) 
-4.08889

>  <r_i_glide_lipo>  (16) 
-0.568718

>  <r_i_glide_hbond>  (16) 
-0.145805

>  <r_i_glide_metal>  (16) 
-0

>  <r_i_glide_rewards>  (16) 
-1.27581

>  <r_i_glide_evdw>  (16) 
-23.3213

>  <r_i_glide_ecoul>  (16) 
-6.21662

>  <r_i_glide_erotb>  (16) 
0

>  <r_i_glide_esite>  (16) 
0

>  <r_i_glide_emodel>  (16) 
-36.9705

>  <r_i_glide_energy>  (16) 
-29.538

>  <r_i_glide_einternal>  (16) 
0.898351

>  <r_i_glide_intrahb_reward>  (16) 
-0

>  <i_i_glide_confnum>  (16) 
2

>  <i_i_glide_posenum>  (16) 
11

>  <r_i_glide_eff_state_penalty>  (16) 
0

>  <ligand_id>  (16) 
5

>  <original_smiles>  (16) 
CC=C1C2C3C(=O)C=CC2C(C3=O)C(O)C2C1C21CC(O)C1O

>  <smiles>  (16) 
[H]OC1([H])C([H])([H])C2(C1([H])O[H])C1([H])C(=C([H])C([H])([H])[H])C3([H])C4([H])C(=O)C([H])=C([H])C3([H])C([H])(C4=O)C([H])(O[H])C12[H]

$$$$
5:2:1
     RDKit          3D

 43 47  0  0  1  0  0  0  0  0999 V2000
    7.6829   -4.9897    0.8781 C   0  0  0  0  0  0  0  0  0  0  0  0
    6.8903   -3.7926    0.3813 C   0  0  0  0  0  0  0  0  0  0  0  0
    5.8004   -3.2452    0.9643 C   0  0  0  0  0  0  0  0  0  0  0  0
    5.2691   -3.7788    2.3089 C   0  0  2  0  0  0  0  0  0  0  0  0
    4.5354   -5.1270    2.1499 C   0  0  1  0  0  0  0  0  0  0  0  0
    4.3338   -5.7579    3.5393 C   0  0  0  0  0  0  0  0  0  0  0  0
    4.4268   -6.9753    3.6636 O   0  0  0  0  0  0  0  0  0  0  0  0
    4.0543   -4.8439    4.6697 C   0  0  0  0  0  0  0  0  0  0  0  0
    3.9810   -3.5147    4.4250 C   0  0  0  0  0  0  0  0  0  0  0  0
    4.1813   -2.9326    3.0246 C   0  0  2  0  0  0  0  0  0  0  0  0
    2.9181   -3.2178    2.1899 C   0  0  2  0  0  0  0  0  0  0  0  0
    3.1800   -4.6329    1.6555 C   0  0  0  0  0  0  0  0  0  0  0  0
    2.4146   -5.2583    0.9366 O   0  0  0  0  0  0  0  0  0  0  0  0
    2.6007   -2.1815    1.1057 C   0  0  1  0  0  0  0  0  0  0  0  0
    1.8217   -1.1712    1.7107 O   0  0  0  0  0  0  0  0  0  0  0  0
    3.7527   -1.5272    0.3767 C   0  0  1  0  0  0  0  0  0  0  0  0
    5.1889   -2.0347    0.3123 C   0  0  2  0  0  0  0  0  0  0  0  0
    4.2582   -2.1360   -0.8921 C   0  0  1  0  0  0  0  0  0  0  0  0
    3.9808   -3.4599   -1.5488 C   0  0  0  0  0  0  0  0  0  0  0  0
    4.6145   -2.9560   -2.8404 C   0  0  1  0  0  0  0  0  0  0  0  0
    3.9487   -3.1674   -4.0731 O   0  0  0  0  0  0  0  0  0  0  0  0
    4.6385   -1.5454   -2.2386 C   0  0  1  0  0  0  0  0  0  0  0  0
    3.6228   -0.6890   -2.6965 O   0  0  0  0  0  0  0  0  0  0  0  0
    8.7285   -4.7231    1.0154 H   0  0  0  0  0  0  0  0  0  0  0  0
    7.6274   -5.7785    0.1325 H   0  0  0  0  0  0  0  0  0  0  0  0
    7.3188   -5.3987    1.8145 H   0  0  0  0  0  0  0  0  0  0  0  0
    7.2609   -3.3486   -0.5302 H   0  0  0  0  0  0  0  0  0  0  0  0
    6.1297   -3.8793    2.9715 H   0  0  0  0  0  0  0  0  0  0  0  0
    5.0116   -5.8120    1.4507 H   0  0  0  0  0  0  0  0  0  0  0  0
    3.9100   -5.2637    5.6533 H   0  0  0  0  0  0  0  0  0  0  0  0
    3.7585   -2.8172    5.2225 H   0  0  0  0  0  0  0  0  0  0  0  0
    4.4365   -1.8693    3.1040 H   0  0  0  0  0  0  0  0  0  0  0  0
    2.0440   -3.2999    2.8364 H   0  0  0  0  0  0  0  0  0  0  0  0
    1.9660   -2.6591    0.3637 H   0  0  0  0  0  0  0  0  0  0  0  0
    1.4038   -0.6952    0.9931 H   0  0  0  0  0  0  0  0  0  0  0  0
    3.6388   -0.4479    0.2978 H   0  0  0  0  0  0  0  0  0  0  0  0
    5.9297   -1.2349    0.3004 H   0  0  0  0  0  0  0  0  0  0  0  0
    4.4730   -4.3417   -1.1379 H   0  0  0  0  0  0  0  0  0  0  0  0
    2.9127   -3.6471   -1.6966 H   0  0  0  0  0  0  0  0  0  0  0  0
    5.6471   -3.3082   -2.9204 H   0  0  0  0  0  0  0  0  0  0  0  0
    3.0258   -3.0927   -3.8998 H   0  0  0  0  0  0  0  0  0  0  0  0
    5.6075   -1.0522   -2.2946 H   0  0  0  0  0  0  0  0  0  0  0  0
    2.8224   -0.9245   -2.2337 H   0  0  0  0  0  0  0  0  0  0  0  0
  1  2  1  0
  1 24  1  0
  1 25  1  0
  1 26  1  0
  2  3  2  3
  2 27  1  0
  3 17  1  0
  3  4  1  0
  4 10  1  0
  4  5  1  0
  4 28  1  1
  5 12  1  0
  5  6  1  0
  5 29  1  6
  6  7  2  0
  6  8  1  0
  8  9  2  0
  8 30  1  0
  9 10  1  0
  9 31  1  0
 10 11  1  0
 10 32  1  1
 11 12  1  0
 11 14  1  0
 11 33  1  1
 12 13  2  0
 14 15  1  0
 14 16  1  0
 14 34  1  6
 15 35  1  0
 16 18  1  0
 16 17  1  0
 16 36  1  6
 17 18  1  0
 17 37  1  6
 18 22  1  0
 18 19  1  6
 19 20  1  0
 19 38  1  0
 19 39  1  0
 20 21  1  0
 20 22  1  0
 20 40  1  6
 21 41  1  0
 22 23  1  0
 22 42  1  1
 23 43  1  0
M  END
>  <i_m_ct_stereo_status>  (17) 
1

>  <s_m_source_file>  (17) 
/var/tmp/pbs.5076255.sched01/tmp44bw07az/09l6mph0o.sdf

>  <i_m_source_file_index>  (17) 
9

>  <i_lp_mmshare_version>  (17) 
48012

>  <i_f3d_flags>  (17) 
0

>  <s_epik_input>  (17) 
W09IXVtDQEBIXTFbQ0BIXShbT0hdKVtDSDJdW0NAXTEyW0NAQEhdM1tDQEhdMkMoPVtDSF1cW0NIM10pXFtDQEhdNFtDQEhdNUMoPU8pW0NIXT1bQ0hdW0NAQEhdNFtDQEhdKEM1PU8pW0NASF0zW09IXQ==

>  <s_epik_cmdline>  (17) 
J2VwaWtfcHl0aG9uJywgJy1waHQnLCAnMi4wJywgJy1waCcsICc3LjAnLCAnLXRuJywgJzgnLCAnLW1hJywgJzIwMCcsICctaW1hZScsICc8aW5maWxlLm1hZT4nLCAnLW9tYWUnLCAnPG91dGZpbGUubWFlPic=

>  <r_epik_Ionization_Penalty>  (17) 
0.0597038

>  <r_epik_Ionization_Penalty_Charging>  (17) 
0

>  <r_epik_Ionization_Penalty_Neutral>  (17) 
0.0597038

>  <r_epik_State_Penalty>  (17) 
0.803174

>  <r_epik_Charging_Adjusted_Penalty>  (17) 
0.803174

>  <i_epik_Tot_Q>  (17) 
0

>  <i_epik_Tot_abs_Q>  (17) 
0

>  <s_lp_Force_Field>  (17) 
OPLS3e

>  <r_lp_Energy>  (17) 
32.0709

>  <b_lp_Chiralities_Consistent>  (17) 
1

>  <s_lp_Variant>  (17) 
5:0-3

>  <s_i_glide_gridfile>  (17) 
pfpi4k_grid

>  <i_i_glide_lignum>  (17) 
9

>  <i_i_glide_rotatable_bonds>  (17) 
3

>  <r_i_docking_score>  (17) 
-4.00545

>  <r_i_glide_ligand_efficiency>  (17) 
-0.17415

>  <r_i_glide_ligand_efficiency_sa>  (17) 
-0.49526

>  <r_i_glide_ligand_efficiency_ln>  (17) 
-0.968555

>  <r_i_glide_gscore>  (17) 
-4.00545

>  <r_i_glide_lipo>  (17) 
-0.512819

>  <r_i_glide_hbond>  (17) 
-0.131842

>  <r_i_glide_metal>  (17) 
-0

>  <r_i_glide_rewards>  (17) 
-1.25462

>  <r_i_glide_evdw>  (17) 
-23.4788

>  <r_i_glide_ecoul>  (17) 
-6.21486

>  <r_i_glide_erotb>  (17) 
0

>  <r_i_glide_esite>  (17) 
0

>  <r_i_glide_emodel>  (17) 
-36.9049

>  <r_i_glide_energy>  (17) 
-29.6937

>  <r_i_glide_einternal>  (17) 
0.898216

>  <r_i_glide_intrahb_reward>  (17) 
-0

>  <i_i_glide_confnum>  (17) 
1

>  <i_i_glide_posenum>  (17) 
33

>  <r_i_glide_eff_state_penalty>  (17) 
0

>  <ligand_id>  (17) 
5

>  <original_smiles>  (17) 
CC=C1C2C3C(=O)C=CC2C(C3=O)C(O)C2C1C21CC(O)C1O

>  <smiles>  (17) 
[H]OC1([H])C([H])([H])C2(C1([H])O[H])C1([H])C(=C([H])C([H])([H])[H])C3([H])C4([H])C(=O)C([H])=C([H])C3([H])C([H])(C4=O)C([H])(O[H])C12[H]

$$$$
5:2:2
     RDKit          3D

 43 47  0  0  1  0  0  0  0  0999 V2000
    3.2133    0.1433    1.5488 C   0  0  0  0  0  0  0  0  0  0  0  0
    3.6525   -1.0648    2.3524 C   0  0  0  0  0  0  0  0  0  0  0  0
    4.2813   -2.1637    1.8815 C   0  0  0  0  0  0  0  0  0  0  0  0
    4.7059   -2.2707    0.4020 C   0  0  2  0  0  0  0  0  0  0  0  0
    3.4985   -2.5346   -0.5180 C   0  0  1  0  0  0  0  0  0  0  0  0
    3.9171   -2.3166   -1.9871 C   0  0  0  0  0  0  0  0  0  0  0  0
    3.1312   -1.8144   -2.7849 O   0  0  0  0  0  0  0  0  0  0  0  0
    5.2913   -2.7093   -2.3622 C   0  0  0  0  0  0  0  0  0  0  0  0
    6.0972   -3.2383   -1.4205 C   0  0  0  0  0  0  0  0  0  0  0  0
    5.6287   -3.4664    0.0268 C   0  0  2  0  0  0  0  0  0  0  0  0
    4.6650   -4.6822    0.0566 C   0  0  2  0  0  0  0  0  0  0  0  0
    3.3217   -4.0273   -0.2857 C   0  0  0  0  0  0  0  0  0  0  0  0
    2.2341   -4.6157   -0.3197 O   0  0  0  0  0  0  0  0  0  0  0  0
    4.6637   -5.4998    1.3638 C   0  0  1  0  0  0  0  0  0  0  0  0
    5.7195   -6.4380    1.2694 O   0  0  0  0  0  0  0  0  0  0  0  0
    4.8337   -4.7423    2.6695 C   0  0  1  0  0  0  0  0  0  0  0  0
    4.6543   -3.2361    2.8730 C   0  0  2  0  0  0  0  0  0  0  0  0
    3.6260   -4.2296    3.4019 C   0  0  1  0  0  0  0  0  0  0  0  0
    2.1723   -4.1725    3.0053 C   0  0  0  0  0  0  0  0  0  0  0  0
    1.7987   -3.9386    4.4718 C   0  0  1  0  0  0  0  0  0  0  0  0
    0.7409   -4.6887    5.0436 O   0  0  0  0  0  0  0  0  0  0  0  0
    3.2382   -4.2823    4.8659 C   0  0  1  0  0  0  0  0  0  0  0  0
    3.4316   -5.5950    5.3435 O   0  0  0  0  0  0  0  0  0  0  0  0
    3.6513    1.0512    1.9523 H   0  0  0  0  0  0  0  0  0  0  0  0
    2.1332    0.2312    1.6033 H   0  0  0  0  0  0  0  0  0  0  0  0
    3.4814    0.0839    0.4970 H   0  0  0  0  0  0  0  0  0  0  0  0
    3.4338   -1.0077    3.4097 H   0  0  0  0  0  0  0  0  0  0  0  0
    5.2052   -1.3341    0.1484 H   0  0  0  0  0  0  0  0  0  0  0  0
    2.6097   -1.9567   -0.2503 H   0  0  0  0  0  0  0  0  0  0  0  0
    5.6054   -2.5615   -3.3894 H   0  0  0  0  0  0  0  0  0  0  0  0
    7.1105   -3.5332   -1.6690 H   0  0  0  0  0  0  0  0  0  0  0  0
    6.5011   -3.5553    0.6805 H   0  0  0  0  0  0  0  0  0  0  0  0
    4.8965   -5.3633   -0.7627 H   0  0  0  0  0  0  0  0  0  0  0  0
    3.7421   -6.0765    1.4323 H   0  0  0  0  0  0  0  0  0  0  0  0
    6.5444   -5.9739    1.2722 H   0  0  0  0  0  0  0  0  0  0  0  0
    5.5637   -5.1995    3.3277 H   0  0  0  0  0  0  0  0  0  0  0  0
    5.3328   -2.8080    3.6016 H   0  0  0  0  0  0  0  0  0  0  0  0
    1.8806   -3.3548    2.3455 H   0  0  0  0  0  0  0  0  0  0  0  0
    1.7942   -5.1358    2.6563 H   0  0  0  0  0  0  0  0  0  0  0  0
    1.6274   -2.8746    4.6480 H   0  0  0  0  0  0  0  0  0  0  0  0
    0.9644   -5.6057    4.9328 H   0  0  0  0  0  0  0  0  0  0  0  0
    3.7042   -3.5511    5.5327 H   0  0  0  0  0  0  0  0  0  0  0  0
    3.1512   -5.6135    6.2439 H   0  0  0  0  0  0  0  0  0  0  0  0
  1  2  1  0
  1 24  1  0
  1 25  1  0
  1 26  1  0
  2  3  2  3
  2 27  1  0
  3 17  1  0
  3  4  1  0
  4 10  1  0
  4  5  1  0
  4 28  1  6
  5 12  1  0
  5  6  1  0
  5 29  1  1
  6  7  2  0
  6  8  1  0
  8  9  2  0
  8 30  1  0
  9 10  1  0
  9 31  1  0
 10 11  1  0
 10 32  1  1
 11 12  1  0
 11 14  1  0
 11 33  1  6
 12 13  2  0
 14 15  1  0
 14 16  1  0
 14 34  1  1
 15 35  1  0
 16 18  1  0
 16 17  1  0
 16 36  1  1
 17 18  1  0
 17 37  1  1
 18 22  1  0
 18 19  1  6
 19 20  1  0
 19 38  1  0
 19 39  1  0
 20 21  1  0
 20 22  1  0
 20 40  1  6
 21 41  1  0
 22 23  1  0
 22 42  1  1
 23 43  1  0
M  END
>  <i_m_ct_stereo_status>  (18) 
1

>  <s_m_source_file>  (18) 
/var/tmp/pbs.5076255.sched01/tmp44bw07az/09l6mph0o.sdf

>  <i_m_source_file_index>  (18) 
9

>  <i_lp_mmshare_version>  (18) 
48012

>  <i_f3d_flags>  (18) 
0

>  <s_epik_input>  (18) 
W09IXVtDQEBIXTFbQ0BIXShbT0hdKVtDSDJdW0NAXTEyW0NAQEhdM1tDQEhdMkMoPVtDSF1cW0NIM10pXFtDQEhdNFtDQEhdNUMoPU8pW0NIXT1bQ0hdW0NAQEhdNFtDQEhdKEM1PU8pW0NASF0zW09IXQ==

>  <s_epik_cmdline>  (18) 
J2VwaWtfcHl0aG9uJywgJy1waHQnLCAnMi4wJywgJy1waCcsICc3LjAnLCAnLXRuJywgJzgnLCAnLW1hJywgJzIwMCcsICctaW1hZScsICc8aW5maWxlLm1hZT4nLCAnLW9tYWUnLCAnPG91dGZpbGUubWFlPic=

>  <r_epik_Ionization_Penalty>  (18) 
0.0597038

>  <r_epik_Ionization_Penalty_Charging>  (18) 
0

>  <r_epik_Ionization_Penalty_Neutral>  (18) 
0.0597038

>  <r_epik_State_Penalty>  (18) 
0.803174

>  <r_epik_Charging_Adjusted_Penalty>  (18) 
0.803174

>  <i_epik_Tot_Q>  (18) 
0

>  <i_epik_Tot_abs_Q>  (18) 
0

>  <s_lp_Force_Field>  (18) 
OPLS3e

>  <r_lp_Energy>  (18) 
32.0709

>  <b_lp_Chiralities_Consistent>  (18) 
1

>  <s_lp_Variant>  (18) 
5:0-3

>  <s_i_glide_gridfile>  (18) 
pfpi4k_grid

>  <i_i_glide_lignum>  (18) 
9

>  <i_i_glide_rotatable_bonds>  (18) 
3

>  <r_i_docking_score>  (18) 
-2.92981

>  <r_i_glide_ligand_efficiency>  (18) 
-0.127383

>  <r_i_glide_ligand_efficiency_sa>  (18) 
-0.36226

>  <r_i_glide_ligand_efficiency_ln>  (18) 
-0.708454

>  <r_i_glide_gscore>  (18) 
-2.92981

>  <r_i_glide_lipo>  (18) 
-0.459205

>  <r_i_glide_hbond>  (18) 
0

>  <r_i_glide_metal>  (18) 
-0

>  <r_i_glide_rewards>  (18) 
-1.25217

>  <r_i_glide_evdw>  (18) 
-22.4937

>  <r_i_glide_ecoul>  (18) 
-0.401948

>  <r_i_glide_erotb>  (18) 
0

>  <r_i_glide_esite>  (18) 
-0.0334552

>  <r_i_glide_emodel>  (18) 
-28.4586

>  <r_i_glide_energy>  (18) 
-22.8956

>  <r_i_glide_einternal>  (18) 
0.0477217

>  <r_i_glide_intrahb_reward>  (18) 
-0

>  <i_i_glide_confnum>  (18) 
2

>  <i_i_glide_posenum>  (18) 
7

>  <r_i_glide_eff_state_penalty>  (18) 
0

>  <ligand_id>  (18) 
5

>  <original_smiles>  (18) 
CC=C1C2C3C(=O)C=CC2C(C3=O)C(O)C2C1C21CC(O)C1O

>  <smiles>  (18) 
[H]OC1([H])C([H])([H])C2(C1([H])O[H])C1([H])C(=C([H])C([H])([H])[H])C3([H])C4([H])C(=O)C([H])=C([H])C3([H])C([H])(C4=O)C([H])(O[H])C12[H]

$$$$
5:3:0
     RDKit          3D

 43 47  0  0  1  0  0  0  0  0999 V2000
    7.6654   -2.9505   -1.4023 C   0  0  0  0  0  0  0  0  0  0  0  0
    7.0846   -3.4890   -0.1181 C   0  0  0  0  0  0  0  0  0  0  0  0
    5.9660   -3.0708    0.5149 C   0  0  0  0  0  0  0  0  0  0  0  0
    5.6332   -3.7121    1.8643 C   0  0  2  0  0  0  0  0  0  0  0  0
    5.0769   -5.1366    1.7018 C   0  0  1  0  0  0  0  0  0  0  0  0
    5.0986   -5.8449    3.0709 C   0  0  0  0  0  0  0  0  0  0  0  0
    5.3626   -7.0428    3.1181 O   0  0  0  0  0  0  0  0  0  0  0  0
    4.8175   -5.0290    4.2673 C   0  0  0  0  0  0  0  0  0  0  0  0
    4.5450   -3.7053    4.1048 C   0  0  0  0  0  0  0  0  0  0  0  0
    4.5220   -3.0483    2.7216 C   0  0  2  0  0  0  0  0  0  0  0  0
    3.2260   -3.4612    1.9898 C   0  0  2  0  0  0  0  0  0  0  0  0
    3.6249   -4.8046    1.3675 C   0  0  0  0  0  0  0  0  0  0  0  0
    2.8822   -5.4985    0.6885 O   0  0  0  0  0  0  0  0  0  0  0  0
    2.6736   -2.4364    0.9867 C   0  0  1  0  0  0  0  0  0  0  0  0
    1.8445   -1.5405    1.6753 O   0  0  0  0  0  0  0  0  0  0  0  0
    3.6660   -1.6192    0.1951 C   0  0  1  0  0  0  0  0  0  0  0  0
    5.1429   -1.9300   -0.0299 C   0  0  2  0  0  0  0  0  0  0  0  0
    4.1168   -2.1220   -1.1402 C   0  0  1  0  0  0  0  0  0  0  0  0
    3.9386   -3.4549   -1.8303 C   0  0  0  0  0  0  0  0  0  0  0  0
    4.3205   -2.8152   -3.1617 C   0  0  1  0  0  0  0  0  0  0  0  0
    3.5256   -3.0486   -4.3111 O   0  0  0  0  0  0  0  0  0  0  0  0
    4.2488   -1.4406   -2.4998 C   0  0  1  0  0  0  0  0  0  0  0  0
    3.0913   -0.7053   -2.7789 O   0  0  0  0  0  0  0  0  0  0  0  0
    8.7000   -2.6454   -1.2489 H   0  0  0  0  0  0  0  0  0  0  0  0
    7.1041   -2.1042   -1.7918 H   0  0  0  0  0  0  0  0  0  0  0  0
    7.6590   -3.7266   -2.1623 H   0  0  0  0  0  0  0  0  0  0  0  0
    7.6484   -4.2840    0.3431 H   0  0  0  0  0  0  0  0  0  0  0  0
    6.5649   -3.7388    2.4287 H   0  0  0  0  0  0  0  0  0  0  0  0
    5.5707   -5.7240    0.9261 H   0  0  0  0  0  0  0  0  0  0  0  0
    4.8296   -5.5044    5.2367 H   0  0  0  0  0  0  0  0  0  0  0  0
    4.3173   -3.0778    4.9501 H   0  0  0  0  0  0  0  0  0  0  0  0
    4.6520   -1.9651    2.8353 H   0  0  0  0  0  0  0  0  0  0  0  0
    2.4400   -3.6845    2.7141 H   0  0  0  0  0  0  0  0  0  0  0  0
    2.0296   -2.9473    0.2781 H   0  0  0  0  0  0  0  0  0  0  0  0
    1.4011   -1.0203    1.0118 H   0  0  0  0  0  0  0  0  0  0  0  0
    3.4150   -0.5617    0.1753 H   0  0  0  0  0  0  0  0  0  0  0  0
    5.7642   -1.0396   -0.0752 H   0  0  0  0  0  0  0  0  0  0  0  0
    4.6031   -4.2642   -1.5168 H   0  0  0  0  0  0  0  0  0  0  0  0
    2.8993   -3.7818   -1.8436 H   0  0  0  0  0  0  0  0  0  0  0  0
    5.3622   -3.0305   -3.3814 H   0  0  0  0  0  0  0  0  0  0  0  0
    2.6277   -2.9423   -4.0451 H   0  0  0  0  0  0  0  0  0  0  0  0
    5.1382   -0.8240   -2.6533 H   0  0  0  0  0  0  0  0  0  0  0  0
    2.4141   -0.9660   -2.1466 H   0  0  0  0  0  0  0  0  0  0  0  0
  1  2  1  0
  1 24  1  0
  1 25  1  0
  1 26  1  0
  2  3  2  3
  2 27  1  0
  3 17  1  0
  3  4  1  0
  4 10  1  0
  4  5  1  0
  4 28  1  1
  5 12  1  0
  5  6  1  0
  5 29  1  6
  6  7  2  0
  6  8  1  0
  8  9  2  0
  8 30  1  0
  9 10  1  0
  9 31  1  0
 10 11  1  0
 10 32  1  1
 11 12  1  0
 11 14  1  0
 11 33  1  1
 12 13  2  0
 14 15  1  0
 14 16  1  0
 14 34  1  6
 15 35  1  0
 16 18  1  0
 16 17  1  0
 16 36  1  6
 17 18  1  0
 17 37  1  6
 18 22  1  0
 18 19  1  6
 19 20  1  0
 19 38  1  0
 19 39  1  0
 20 21  1  0
 20 22  1  0
 20 40  1  6
 21 41  1  0
 22 23  1  0
 22 42  1  1
 23 43  1  0
M  END
>  <i_m_ct_stereo_status>  (19) 
1

>  <s_m_source_file>  (19) 
/var/tmp/pbs.5076255.sched01/tmp44bw07az/09l6mph0o.sdf

>  <i_m_source_file_index>  (19) 
10

>  <i_lp_mmshare_version>  (19) 
48012

>  <i_f3d_flags>  (19) 
0

>  <s_epik_input>  (19) 
W09IXVtDQEBIXTFbQ0BIXShbT0hdKVtDSDJdW0NAXTEyW0NAQEhdM1tDQEhdMkMoPVtDSF1cW0NIM10pXFtDQEhdNFtDQEhdNUMoPU8pW0NIXT1bQ0hdW0NAQEhdNFtDQEhdKEM1PU8pW0NASF0zW09IXQ==

>  <s_epik_cmdline>  (19) 
J2VwaWtfcHl0aG9uJywgJy1waHQnLCAnMi4wJywgJy1waCcsICc3LjAnLCAnLXRuJywgJzgnLCAnLW1hJywgJzIwMCcsICctaW1hZScsICc8aW5maWxlLm1hZT4nLCAnLW9tYWUnLCAnPG91dGZpbGUubWFlPic=

>  <r_epik_Ionization_Penalty>  (19) 
0.0597038

>  <r_epik_Ionization_Penalty_Charging>  (19) 
0

>  <r_epik_Ionization_Penalty_Neutral>  (19) 
0.0597038

>  <r_epik_State_Penalty>  (19) 
0.803174

>  <r_epik_Charging_Adjusted_Penalty>  (19) 
0.803174

>  <i_epik_Tot_Q>  (19) 
0

>  <i_epik_Tot_abs_Q>  (19) 
0

>  <s_lp_Force_Field>  (19) 
OPLS3e

>  <r_lp_Energy>  (19) 
32.3922

>  <b_lp_Chiralities_Consistent>  (19) 
1

>  <s_lp_Variant>  (19) 
5:0-4

>  <s_i_glide_gridfile>  (19) 
pfpi4k_grid

>  <i_i_glide_lignum>  (19) 
10

>  <i_i_glide_rotatable_bonds>  (19) 
3

>  <r_i_docking_score>  (19) 
-4.03137

>  <r_i_glide_ligand_efficiency>  (19) 
-0.175277

>  <r_i_glide_ligand_efficiency_sa>  (19) 
-0.498465

>  <r_i_glide_ligand_efficiency_ln>  (19) 
-0.974822

>  <r_i_glide_gscore>  (19) 
-4.03137

>  <r_i_glide_lipo>  (19) 
-0.441725

>  <r_i_glide_hbond>  (19) 
-0.137131

>  <r_i_glide_metal>  (19) 
-0

>  <r_i_glide_rewards>  (19) 
-1.26726

>  <r_i_glide_evdw>  (19) 
-23.9902

>  <r_i_glide_ecoul>  (19) 
-6.57161

>  <r_i_glide_erotb>  (19) 
0

>  <r_i_glide_esite>  (19) 
0

>  <r_i_glide_emodel>  (19) 
-38.1858

>  <r_i_glide_energy>  (19) 
-30.5618

>  <r_i_glide_einternal>  (19) 
0.756497

>  <r_i_glide_intrahb_reward>  (19) 
-0

>  <i_i_glide_confnum>  (19) 
2

>  <i_i_glide_posenum>  (19) 
26

>  <r_i_glide_eff_state_penalty>  (19) 
0

>  <ligand_id>  (19) 
5

>  <original_smiles>  (19) 
CC=C1C2C3C(=O)C=CC2C(C3=O)C(O)C2C1C21CC(O)C1O

>  <smiles>  (19) 
[H]OC1([H])C([H])([H])C2(C1([H])O[H])C1([H])C(=C([H])C([H])([H])[H])C3([H])C4([H])C(=O)C([H])=C([H])C3([H])C([H])(C4=O)C([H])(O[H])C12[H]

$$$$
6:0:0
     RDKit          3D

 37 40  0  0  1  0  0  0  0  0999 V2000
    2.9840   -1.7492   -3.7549 C   0  0  0  0  0  0  0  0  0  0  0  0
    4.0920   -0.9039   -3.1051 C   0  0  0  0  0  0  0  0  0  0  0  0
    5.0067   -1.7556   -2.4062 O   0  0  0  0  0  0  0  0  0  0  0  0
    4.4110   -2.5706   -1.3784 C   0  0  2  0  0  0  0  0  0  0  0  0
    3.3439   -3.4450   -2.0735 C   0  0  0  0  0  0  0  0  0  0  0  0
    2.3436   -2.6234   -2.7643 N   0  0  0  0  0  0  0  0  0  0  0  0
    3.8211   -1.6871   -0.2304 C   0  0  2  0  0  0  0  0  0  0  0  0
    4.9404   -0.8102    0.3740 C   0  0  0  0  0  0  0  0  0  0  0  0
    6.0414   -1.7048    0.9711 C   0  0  1  0  0  0  0  0  0  0  0  0
    5.4213   -2.5980    2.0689 C   0  0  0  0  0  0  0  0  0  0  0  0
    4.3262   -3.4866    1.4513 C   0  0  1  0  0  0  0  0  0  0  0  0
    3.2190   -2.5733    0.8772 C   0  0  0  0  0  0  0  0  0  0  0  0
    4.9602   -4.3696    0.3470 C   0  0  0  0  0  0  0  0  0  0  0  0
    5.5392   -3.4588   -0.7619 C   0  0  2  0  0  0  0  0  0  0  0  0
    6.6518   -2.5758   -0.1479 C   0  0  0  0  0  0  0  0  0  0  0  0
    3.4067   -2.3637   -4.5517 H   0  0  0  0  0  0  0  0  0  0  0  0
    2.2401   -1.1024   -4.2213 H   0  0  0  0  0  0  0  0  0  0  0  0
    4.6149   -0.3541   -3.8840 H   0  0  0  0  0  0  0  0  0  0  0  0
    3.6868   -0.1649   -2.4110 H   0  0  0  0  0  0  0  0  0  0  0  0
    3.8418   -4.0778   -2.8177 H   0  0  0  0  0  0  0  0  0  0  0  0
    2.8128   -4.0921   -1.3736 H   0  0  0  0  0  0  0  0  0  0  0  0
    1.8667   -2.0554   -2.0702 H   0  0  0  0  0  0  0  0  0  0  0  0
    3.0322   -1.0349   -0.6004 H   0  0  0  0  0  0  0  0  0  0  0  0
    5.3761   -0.1781   -0.3930 H   0  0  0  0  0  0  0  0  0  0  0  0
    4.5394   -0.1381    1.1298 H   0  0  0  0  0  0  0  0  0  0  0  0
    6.8229   -1.0781    1.4078 H   0  0  0  0  0  0  0  0  0  0  0  0
    6.1893   -3.2138    2.5309 H   0  0  0  0  0  0  0  0  0  0  0  0
    4.9963   -1.9718    2.8531 H   0  0  0  0  0  0  0  0  0  0  0  0
    3.8994   -4.1261    2.2248 H   0  0  0  0  0  0  0  0  0  0  0  0
    2.8109   -1.9364    1.6622 H   0  0  0  0  0  0  0  0  0  0  0  0
    2.3914   -3.1712    0.4823 H   0  0  0  0  0  0  0  0  0  0  0  0
    5.7546   -4.9866    0.7758 H   0  0  0  0  0  0  0  0  0  0  0  0
    4.2241   -5.0681   -0.0614 H   0  0  0  0  0  0  0  0  0  0  0  0
    5.9777   -4.0767   -1.5419 H   0  0  0  0  0  0  0  0  0  0  0  0
    7.1116   -1.9516   -0.9104 H   0  0  0  0  0  0  0  0  0  0  0  0
    7.4563   -3.1905    0.2524 H   0  0  0  0  0  0  0  0  0  0  0  0
    1.6738   -3.2310   -3.2078 H   0  0  0  0  0  0  0  0  0  0  0  0
  1  6  1  0
  1  2  1  0
  1 16  1  0
  1 17  1  0
  2  3  1  0
  2 18  1  0
  2 19  1  0
  4  3  1  6
  4 14  1  0
  4  5  1  0
  4  7  1  0
  5  6  1  0
  5 20  1  0
  5 21  1  0
  6 22  1  0
  6 37  1  0
  7 12  1  0
  7  8  1  0
  7 23  1  6
  8  9  1  0
  8 24  1  0
  8 25  1  0
  9 15  1  0
  9 10  1  0
  9 26  1  1
 10 11  1  0
 10 27  1  0
 10 28  1  0
 11 12  1  0
 11 13  1  0
 11 29  1  1
 12 30  1  0
 12 31  1  0
 13 14  1  0
 13 32  1  0
 13 33  1  0
 14 15  1  0
 14 34  1  6
 15 35  1  0
 15 36  1  0
M  CHG  1   6   1
M  END
>  <i_m_ct_stereo_status>  (20) 
1

>  <s_m_source_file>  (20) 
/var/tmp/pbs.5076255.sched01/tmp44bw07az/09l6mph0o.sdf

>  <i_m_source_file_index>  (20) 
11

>  <i_lp_mmshare_version>  (20) 
48012

>  <i_f3d_flags>  (20) 
0

>  <s_epik_input>  (20) 
W0NIMl0xW05IXVtDSDJdW0NIMl1PW0NAQF0xMltDQEBIXTNbQ0gyXVtDQEhdNFtDSDJdW0NAQEhdKFtDSDJdMylbQ0gyXVtDQEBIXTJbQ0gyXTQ=

>  <s_epik_cmdline>  (20) 
J2VwaWtfcHl0aG9uJywgJy1waHQnLCAnMi4wJywgJy1waCcsICc3LjAnLCAnLXRuJywgJzgnLCAnLW1hJywgJzIwMCcsICctaW1hZScsICc8aW5maWxlLm1hZT4nLCAnLW9tYWUnLCAnPG91dGZpbGUubWFlPic=

>  <r_epik_Ionization_Penalty>  (20) 
0.00632189

>  <r_epik_Ionization_Penalty_Charging>  (20) 
0.00632189

>  <r_epik_Ionization_Penalty_Neutral>  (20) 
4.80188e-14

>  <r_epik_State_Penalty>  (20) 
0.00467022

>  <r_epik_Charging_Adjusted_Penalty>  (20) 
0.0109921

>  <i_epik_Tot_Q>  (20) 
1

>  <i_epik_Tot_abs_Q>  (20) 
1

>  <s_lp_Force_Field>  (20) 
OPLS3e

>  <r_lp_Energy>  (20) 
11.2064

>  <b_lp_Chiralities_Consistent>  (20) 
1

>  <s_lp_Variant>  (20) 
6:0-1

>  <s_i_glide_gridfile>  (20) 
pfpi4k_grid

>  <i_i_glide_lignum>  (20) 
11

>  <i_i_glide_rotatable_bonds>  (20) 
0

>  <r_i_docking_score>  (20) 
-4.68441

>  <r_i_glide_ligand_efficiency>  (20) 
-0.312294

>  <r_i_glide_ligand_efficiency_sa>  (20) 
-0.770184

>  <r_i_glide_ligand_efficiency_ln>  (20) 
-1.26331

>  <r_i_glide_gscore>  (20) 
-4.68441

>  <r_i_glide_lipo>  (20) 
-0.754483

>  <r_i_glide_hbond>  (20) 
-0.2

>  <r_i_glide_metal>  (20) 
-0

>  <r_i_glide_rewards>  (20) 
-1.98873

>  <r_i_glide_evdw>  (20) 
-19.2864

>  <r_i_glide_ecoul>  (20) 
-5.07913

>  <r_i_glide_erotb>  (20) 
0

>  <r_i_glide_esite>  (20) 
-0.0150133

>  <r_i_glide_emodel>  (20) 
-33.1764

>  <r_i_glide_energy>  (20) 
-24.3655

>  <r_i_glide_einternal>  (20) 
0

>  <r_i_glide_intrahb_reward>  (20) 
-0

>  <i_i_glide_confnum>  (20) 
2

>  <i_i_glide_posenum>  (20) 
21

>  <r_i_glide_eff_state_penalty>  (20) 
0

>  <ligand_id>  (20) 
6

>  <original_smiles>  (20) 
C1COC2(CN1)C1CC3CC(C1)CC2C3

>  <smiles>  (20) 
[H]C1([H])OC2(C3([H])C([H])([H])C4([H])C([H])([H])C([H])(C3([H])[H])C([H])([H])C2([H])C4([H])[H])C([H])([H])[N+]([H])([H])C1([H])[H]

$$$$
6:0:1
     RDKit          3D

 37 40  0  0  1  0  0  0  0  0999 V2000
    3.4666   -2.6416   -3.9559 C   0  0  0  0  0  0  0  0  0  0  0  0
    3.0375   -1.7283   -2.7947 C   0  0  0  0  0  0  0  0  0  0  0  0
    4.1652   -1.4218   -1.9743 O   0  0  0  0  0  0  0  0  0  0  0  0
    4.8250   -2.5657   -1.4089 C   0  0  2  0  0  0  0  0  0  0  0  0
    5.3273   -3.4176   -2.6055 C   0  0  0  0  0  0  0  0  0  0  0  0
    4.2146   -3.8150   -3.4716 N   0  0  0  0  0  0  0  0  0  0  0  0
    3.8685   -3.3444   -0.4589 C   0  0  2  0  0  0  0  0  0  0  0  0
    3.3796   -2.4119    0.6766 C   0  0  0  0  0  0  0  0  0  0  0  0
    4.5856   -1.9033    1.4901 C   0  0  1  0  0  0  0  0  0  0  0  0
    5.3289   -3.1134    2.1023 C   0  0  0  0  0  0  0  0  0  0  0  0
    5.8383   -4.0253    0.9666 C   0  0  1  0  0  0  0  0  0  0  0  0
    4.6176   -4.5439    0.1695 C   0  0  0  0  0  0  0  0  0  0  0  0
    6.7959   -3.2228    0.0644 C   0  0  0  0  0  0  0  0  0  0  0  0
    6.0205   -2.0385   -0.5681 C   0  0  2  0  0  0  0  0  0  0  0  0
    5.5232   -1.1090    0.5661 C   0  0  0  0  0  0  0  0  0  0  0  0
    4.1061   -2.0731   -4.6240 H   0  0  0  0  0  0  0  0  0  0  0  0
    2.6054   -2.9631   -4.5340 H   0  0  0  0  0  0  0  0  0  0  0  0
    2.6473   -0.7844   -3.1896 H   0  0  0  0  0  0  0  0  0  0  0  0
    2.2416   -2.1950   -2.2069 H   0  0  0  0  0  0  0  0  0  0  0  0
    6.0530   -2.8505   -3.1914 H   0  0  0  0  0  0  0  0  0  0  0  0
    5.8124   -4.3215   -2.2518 H   0  0  0  0  0  0  0  0  0  0  0  0
    3.5917   -4.4108   -2.9254 H   0  0  0  0  0  0  0  0  0  0  0  0
    2.9983   -3.7199   -0.9944 H   0  0  0  0  0  0  0  0  0  0  0  0
    2.8301   -1.5639    0.2654 H   0  0  0  0  0  0  0  0  0  0  0  0
    2.6765   -2.9257    1.3277 H   0  0  0  0  0  0  0  0  0  0  0  0
    4.2335   -1.2516    2.2949 H   0  0  0  0  0  0  0  0  0  0  0  0
    6.1591   -2.7745    2.7159 H   0  0  0  0  0  0  0  0  0  0  0  0
    4.6576   -3.6682    2.7584 H   0  0  0  0  0  0  0  0  0  0  0  0
    6.3709   -4.8763    1.4005 H   0  0  0  0  0  0  0  0  0  0  0  0
    3.9427   -5.0855    0.8362 H   0  0  0  0  0  0  0  0  0  0  0  0
    4.9338   -5.2463   -0.6060 H   0  0  0  0  0  0  0  0  0  0  0  0
    7.6290   -2.8451    0.6540 H   0  0  0  0  0  0  0  0  0  0  0  0
    7.2251   -3.8646   -0.7082 H   0  0  0  0  0  0  0  0  0  0  0  0
    6.6774   -1.4682   -1.2057 H   0  0  0  0  0  0  0  0  0  0  0  0
    5.0032   -0.2400    0.1527 H   0  0  0  0  0  0  0  0  0  0  0  0
    6.3603   -0.7054    1.1308 H   0  0  0  0  0  0  0  0  0  0  0  0
    4.5627   -4.3529   -4.2440 H   0  0  0  0  0  0  0  0  0  0  0  0
  1  6  1  0
  1  2  1  0
  1 16  1  0
  1 17  1  0
  2  3  1  0
  2 18  1  0
  2 19  1  0
  4  3  1  6
  4 14  1  0
  4  5  1  0
  4  7  1  0
  5  6  1  0
  5 20  1  0
  5 21  1  0
  6 22  1  0
  6 37  1  0
  7 12  1  0
  7  8  1  0
  7 23  1  6
  8  9  1  0
  8 24  1  0
  8 25  1  0
  9 15  1  0
  9 10  1  0
  9 26  1  1
 10 11  1  0
 10 27  1  0
 10 28  1  0
 11 12  1  0
 11 13  1  0
 11 29  1  1
 12 30  1  0
 12 31  1  0
 13 14  1  0
 13 32  1  0
 13 33  1  0
 14 15  1  0
 14 34  1  6
 15 35  1  0
 15 36  1  0
M  CHG  1   6   1
M  END
>  <i_m_ct_stereo_status>  (21) 
1

>  <s_m_source_file>  (21) 
/var/tmp/pbs.5076255.sched01/tmp44bw07az/09l6mph0o.sdf

>  <i_m_source_file_index>  (21) 
11

>  <i_lp_mmshare_version>  (21) 
48012

>  <i_f3d_flags>  (21) 
0

>  <s_epik_input>  (21) 
W0NIMl0xW05IXVtDSDJdW0NIMl1PW0NAQF0xMltDQEBIXTNbQ0gyXVtDQEhdNFtDSDJdW0NAQEhdKFtDSDJdMylbQ0gyXVtDQEBIXTJbQ0gyXTQ=

>  <s_epik_cmdline>  (21) 
J2VwaWtfcHl0aG9uJywgJy1waHQnLCAnMi4wJywgJy1waCcsICc3LjAnLCAnLXRuJywgJzgnLCAnLW1hJywgJzIwMCcsICctaW1hZScsICc8aW5maWxlLm1hZT4nLCAnLW9tYWUnLCAnPG91dGZpbGUubWFlPic=

>  <r_epik_Ionization_Penalty>  (21) 
0.00632189

>  <r_epik_Ionization_Penalty_Charging>  (21) 
0.00632189

>  <r_epik_Ionization_Penalty_Neutral>  (21) 
4.80188e-14

>  <r_epik_State_Penalty>  (21) 
0.00467022

>  <r_epik_Charging_Adjusted_Penalty>  (21) 
0.0109921

>  <i_epik_Tot_Q>  (21) 
1

>  <i_epik_Tot_abs_Q>  (21) 
1

>  <s_lp_Force_Field>  (21) 
OPLS3e

>  <r_lp_Energy>  (21) 
11.2064

>  <b_lp_Chiralities_Consistent>  (21) 
1

>  <s_lp_Variant>  (21) 
6:0-1

>  <s_i_glide_gridfile>  (21) 
pfpi4k_grid

>  <i_i_glide_lignum>  (21) 
11

>  <i_i_glide_rotatable_bonds>  (21) 
0

>  <r_i_docking_score>  (21) 
-4.45397

>  <r_i_glide_ligand_efficiency>  (21) 
-0.296931

>  <r_i_glide_ligand_efficiency_sa>  (21) 
-0.732296

>  <r_i_glide_ligand_efficiency_ln>  (21) 
-1.20116

>  <r_i_glide_gscore>  (21) 
-4.45397

>  <r_i_glide_lipo>  (21) 
-0.718311

>  <r_i_glide_hbond>  (21) 
0

>  <r_i_glide_metal>  (21) 
-0

>  <r_i_glide_rewards>  (21) 
-1.98873

>  <r_i_glide_evdw>  (21) 
-21.4334

>  <r_i_glide_ecoul>  (21) 
-4.45443

>  <r_i_glide_erotb>  (21) 
0

>  <r_i_glide_esite>  (21) 
-0.00709452

>  <r_i_glide_emodel>  (21) 
-34.2464

>  <r_i_glide_energy>  (21) 
-25.8878

>  <r_i_glide_einternal>  (21) 
0

>  <r_i_glide_intrahb_reward>  (21) 
-0

>  <i_i_glide_confnum>  (21) 
1

>  <i_i_glide_posenum>  (21) 
28

>  <r_i_glide_eff_state_penalty>  (21) 
0

>  <ligand_id>  (21) 
6

>  <original_smiles>  (21) 
C1COC2(CN1)C1CC3CC(C1)CC2C3

>  <smiles>  (21) 
[H]C1([H])OC2(C3([H])C([H])([H])C4([H])C([H])([H])C([H])(C3([H])[H])C([H])([H])C2([H])C4([H])[H])C([H])([H])[N+]([H])([H])C1([H])[H]

$$$$
6:0:2
     RDKit          3D

 37 40  0  0  1  0  0  0  0  0999 V2000
    3.4376   -1.7635   -3.9287 C   0  0  0  0  0  0  0  0  0  0  0  0
    3.6670   -0.6981   -2.8463 C   0  0  0  0  0  0  0  0  0  0  0  0
    4.8294   -1.0175   -2.0716 O   0  0  0  0  0  0  0  0  0  0  0  0
    4.7731   -2.2876   -1.4053 C   0  0  2  0  0  0  0  0  0  0  0  0
    4.6216   -3.3629   -2.5216 C   0  0  0  0  0  0  0  0  0  0  0  0
    3.4110   -3.1047   -3.3180 N   0  0  0  0  0  0  0  0  0  0  0  0
    3.6146   -2.3225   -0.3618 C   0  0  2  0  0  0  0  0  0  0  0  0
    3.8101   -1.1909    0.6830 C   0  0  0  0  0  0  0  0  0  0  0  0
    5.1413   -1.3985    1.4293 C   0  0  1  0  0  0  0  0  0  0  0  0
    5.1153   -2.7676    2.1441 C   0  0  0  0  0  0  0  0  0  0  0  0
    4.9473   -3.8837    1.0990 C   0  0  1  0  0  0  0  0  0  0  0  0
    3.6021   -3.6819    0.3708 C   0  0  0  0  0  0  0  0  0  0  0  0
    6.1253   -3.8303    0.1024 C   0  0  0  0  0  0  0  0  0  0  0  0
    6.1117   -2.4701   -0.6303 C   0  0  2  0  0  0  0  0  0  0  0  0
    6.2954   -1.3443    0.4128 C   0  0  0  0  0  0  0  0  0  0  0  0
    4.2292   -1.7061   -4.6678 H   0  0  0  0  0  0  0  0  0  0  0  0
    2.5003   -1.5711   -4.4405 H   0  0  0  0  0  0  0  0  0  0  0  0
    3.8153    0.2858   -3.3039 H   0  0  0  0  0  0  0  0  0  0  0  0
    2.7847   -0.6309   -2.2056 H   0  0  0  0  0  0  0  0  0  0  0  0
    5.4893   -3.3380   -3.1826 H   0  0  0  0  0  0  0  0  0  0  0  0
    4.5544   -4.3620   -2.0924 H   0  0  0  0  0  0  0  0  0  0  0  0
    2.6247   -3.1662   -2.6955 H   0  0  0  0  0  0  0  0  0  0  0  0
    2.6449   -2.1823   -0.8401 H   0  0  0  0  0  0  0  0  0  0  0  0
    3.8040   -0.2162    0.1975 H   0  0  0  0  0  0  0  0  0  0  0  0
    2.9806   -1.1691    1.3894 H   0  0  0  0  0  0  0  0  0  0  0  0
    5.2717   -0.6056    2.1689 H   0  0  0  0  0  0  0  0  0  0  0  0
    6.0331   -2.9154    2.7116 H   0  0  0  0  0  0  0  0  0  0  0  0
    4.2964   -2.7944    2.8622 H   0  0  0  0  0  0  0  0  0  0  0  0
    4.9415   -4.8514    1.6032 H   0  0  0  0  0  0  0  0  0  0  0  0
    2.7857   -3.6911    1.1001 H   0  0  0  0  0  0  0  0  0  0  0  0
    3.4214   -4.4887   -0.3388 H   0  0  0  0  0  0  0  0  0  0  0  0
    7.0648   -3.9529    0.6374 H   0  0  0  0  0  0  0  0  0  0  0  0
    6.0597   -4.6575   -0.6083 H   0  0  0  0  0  0  0  0  0  0  0  0
    6.9408   -2.4350   -1.3292 H   0  0  0  0  0  0  0  0  0  0  0  0
    6.3166   -0.3599   -0.0595 H   0  0  0  0  0  0  0  0  0  0  0  0
    7.2498   -1.4402    0.9259 H   0  0  0  0  0  0  0  0  0  0  0  0
    3.3198   -3.8143   -4.0281 H   0  0  0  0  0  0  0  0  0  0  0  0
  1  6  1  0
  1  2  1  0
  1 16  1  0
  1 17  1  0
  2  3  1  0
  2 18  1  0
  2 19  1  0
  4  3  1  6
  4 14  1  0
  4  5  1  0
  4  7  1  0
  5  6  1  0
  5 20  1  0
  5 21  1  0
  6 22  1  0
  6 37  1  0
  7 12  1  0
  7  8  1  0
  7 23  1  6
  8  9  1  0
  8 24  1  0
  8 25  1  0
  9 15  1  0
  9 10  1  0
  9 26  1  1
 10 11  1  0
 10 27  1  0
 10 28  1  0
 11 12  1  0
 11 13  1  0
 11 29  1  1
 12 30  1  0
 12 31  1  0
 13 14  1  0
 13 32  1  0
 13 33  1  0
 14 15  1  0
 14 34  1  6
 15 35  1  0
 15 36  1  0
M  CHG  1   6   1
M  END
>  <i_m_ct_stereo_status>  (22) 
1

>  <s_m_source_file>  (22) 
/var/tmp/pbs.5076255.sched01/tmp44bw07az/09l6mph0o.sdf

>  <i_m_source_file_index>  (22) 
11

>  <i_lp_mmshare_version>  (22) 
48012

>  <i_f3d_flags>  (22) 
0

>  <s_epik_input>  (22) 
W0NIMl0xW05IXVtDSDJdW0NIMl1PW0NAQF0xMltDQEBIXTNbQ0gyXVtDQEhdNFtDSDJdW0NAQEhdKFtDSDJdMylbQ0gyXVtDQEBIXTJbQ0gyXTQ=

>  <s_epik_cmdline>  (22) 
J2VwaWtfcHl0aG9uJywgJy1waHQnLCAnMi4wJywgJy1waCcsICc3LjAnLCAnLXRuJywgJzgnLCAnLW1hJywgJzIwMCcsICctaW1hZScsICc8aW5maWxlLm1hZT4nLCAnLW9tYWUnLCAnPG91dGZpbGUubWFlPic=

>  <r_epik_Ionization_Penalty>  (22) 
0.00632189

>  <r_epik_Ionization_Penalty_Charging>  (22) 
0.00632189

>  <r_epik_Ionization_Penalty_Neutral>  (22) 
4.80188e-14

>  <r_epik_State_Penalty>  (22) 
0.00467022

>  <r_epik_Charging_Adjusted_Penalty>  (22) 
0.0109921

>  <i_epik_Tot_Q>  (22) 
1

>  <i_epik_Tot_abs_Q>  (22) 
1

>  <s_lp_Force_Field>  (22) 
OPLS3e

>  <r_lp_Energy>  (22) 
11.2064

>  <b_lp_Chiralities_Consistent>  (22) 
1

>  <s_lp_Variant>  (22) 
6:0-1

>  <s_i_glide_gridfile>  (22) 
pfpi4k_grid

>  <i_i_glide_lignum>  (22) 
11

>  <i_i_glide_rotatable_bonds>  (22) 
0

>  <r_i_docking_score>  (22) 
-4.07828

>  <r_i_glide_ligand_efficiency>  (22) 
-0.271885

>  <r_i_glide_ligand_efficiency_sa>  (22) 
-0.670526

>  <r_i_glide_ligand_efficiency_ln>  (22) 
-1.09984

>  <r_i_glide_gscore>  (22) 
-4.07828

>  <r_i_glide_lipo>  (22) 
-0.466682

>  <r_i_glide_hbond>  (22) 
0

>  <r_i_glide_metal>  (22) 
-0

>  <r_i_glide_rewards>  (22) 
-1.98873

>  <r_i_glide_evdw>  (22) 
-22.4043

>  <r_i_glide_ecoul>  (22) 
-3.351

>  <r_i_glide_erotb>  (22) 
0

>  <r_i_glide_esite>  (22) 
0

>  <r_i_glide_emodel>  (22) 
-33.3962

>  <r_i_glide_energy>  (22) 
-25.7553

>  <r_i_glide_einternal>  (22) 
0

>  <r_i_glide_intrahb_reward>  (22) 
-0

>  <i_i_glide_confnum>  (22) 
2

>  <i_i_glide_posenum>  (22) 
9

>  <r_i_glide_eff_state_penalty>  (22) 
0

>  <ligand_id>  (22) 
6

>  <original_smiles>  (22) 
C1COC2(CN1)C1CC3CC(C1)CC2C3

>  <smiles>  (22) 
[H]C1([H])OC2(C3([H])C([H])([H])C4([H])C([H])([H])C([H])(C3([H])[H])C([H])([H])C2([H])C4([H])[H])C([H])([H])[N+]([H])([H])C1([H])[H]

$$$$
7:0:0
     RDKit          3D

 55 60  0  0  1  0  0  0  0  0999 V2000
    5.6680   -5.4581    0.0851 O   0  0  0  0  0  0  0  0  0  0  0  0
    4.7439   -4.6666    0.2521 C   0  0  0  0  0  0  0  0  0  0  0  0
    4.3775   -3.8070   -0.7393 N   0  0  0  0  0  0  0  0  0  0  0  0
    3.4148   -2.6892   -0.7225 C   0  0  0  0  0  0  0  0  0  0  0  0
    3.4870   -2.0351   -2.0979 C   0  0  1  0  0  0  0  0  0  0  0  0
    4.6526   -1.0368   -2.1491 C   0  0  0  0  0  0  0  0  0  0  0  0
    5.8814   -1.6383   -1.6844 O   0  0  0  0  0  0  0  0  0  0  0  0
    6.1709   -2.9512   -2.2077 C   0  0  0  0  0  0  0  0  0  0  0  0
    4.9202   -3.8500   -2.1160 C   0  0  2  0  0  0  0  0  0  0  0  0
    3.8370   -3.2029   -2.9869 C   0  0  0  0  0  0  0  0  0  0  0  0
    4.0089   -4.6924    1.6417 C   0  0  2  0  0  0  0  0  0  0  0  0
    2.5643   -5.2436    1.4592 C   0  0  0  0  0  0  0  0  0  0  0  0
    1.8124   -5.2464    2.8096 C   0  0  1  0  0  0  0  0  0  0  0  0
    2.5381   -6.1700    3.7983 C   0  0  0  0  0  0  0  0  0  0  0  0
    3.9737   -5.6496    4.0288 C   0  0  2  0  0  0  0  0  0  0  0  0
    3.9389   -4.2266    4.6243 C   0  0  0  0  0  0  0  0  0  0  0  0
    3.1877   -3.3164    3.6360 C   0  0  2  0  0  0  0  0  0  0  0  0
    1.7597   -3.8236    3.3991 C   0  0  0  0  0  0  0  0  0  0  0  0
    3.9296   -3.2733    2.2843 C   0  0  1  0  0  0  0  0  0  0  0  0
    5.2773   -2.6594    2.4224 N   0  0  0  0  0  0  0  0  0  0  0  0
    5.4291   -1.1819    2.3039 C   0  0  0  0  0  0  0  0  0  0  0  0
    4.9789   -0.3888    3.5108 C   0  0  0  0  0  0  0  0  0  0  0  0
    4.1827   -0.3193    2.2282 C   0  0  0  0  0  0  0  0  0  0  0  0
    4.7288   -5.6449    2.6732 C   0  0  0  0  0  0  0  0  0  0  0  0
    2.3966   -3.0417   -0.5651 H   0  0  0  0  0  0  0  0  0  0  0  0
    3.6601   -1.9060   -0.0122 H   0  0  0  0  0  0  0  0  0  0  0  0
    2.5438   -1.5596   -2.3625 H   0  0  0  0  0  0  0  0  0  0  0  0
    4.7573   -0.6261   -3.1511 H   0  0  0  0  0  0  0  0  0  0  0  0
    4.4486   -0.2114   -1.4763 H   0  0  0  0  0  0  0  0  0  0  0  0
    6.4978   -2.8876   -3.2471 H   0  0  0  0  0  0  0  0  0  0  0  0
    6.9941   -3.3690   -1.6374 H   0  0  0  0  0  0  0  0  0  0  0  0
    5.1141   -4.8664   -2.4534 H   0  0  0  0  0  0  0  0  0  0  0  0
    2.9712   -3.8565   -3.1037 H   0  0  0  0  0  0  0  0  0  0  0  0
    4.1855   -2.8938   -3.9751 H   0  0  0  0  0  0  0  0  0  0  0  0
    1.9890   -4.6432    0.7576 H   0  0  0  0  0  0  0  0  0  0  0  0
    2.5854   -6.2492    1.0372 H   0  0  0  0  0  0  0  0  0  0  0  0
    0.7926   -5.5973    2.6529 H   0  0  0  0  0  0  0  0  0  0  0  0
    1.9930   -6.2248    4.7417 H   0  0  0  0  0  0  0  0  0  0  0  0
    2.5725   -7.1807    3.3933 H   0  0  0  0  0  0  0  0  0  0  0  0
    4.4902   -6.3108    4.7287 H   0  0  0  0  0  0  0  0  0  0  0  0
    3.4550   -4.2063    5.6035 H   0  0  0  0  0  0  0  0  0  0  0  0
    4.9551   -3.8688    4.7875 H   0  0  0  0  0  0  0  0  0  0  0  0
    3.0807   -2.3250    4.0577 H   0  0  0  0  0  0  0  0  0  0  0  0
    1.2495   -3.1431    2.7157 H   0  0  0  0  0  0  0  0  0  0  0  0
    1.1961   -3.7932    4.3295 H   0  0  0  0  0  0  0  0  0  0  0  0
    3.2674   -2.6978    1.6666 H   0  0  0  0  0  0  0  0  0  0  0  0
    5.7074   -2.9773    3.2916 H   0  0  0  0  0  0  0  0  0  0  0  0
    6.3634   -0.8745    1.8335 H   0  0  0  0  0  0  0  0  0  0  0  0
    4.5401   -0.9035    4.3635 H   0  0  0  0  0  0  0  0  0  0  0  0
    5.5326    0.5119    3.7731 H   0  0  0  0  0  0  0  0  0  0  0  0
    4.2719    0.5813    1.6254 H   0  0  0  0  0  0  0  0  0  0  0  0
    3.1750   -0.7331    2.2529 H   0  0  0  0  0  0  0  0  0  0  0  0
    4.7804   -6.6660    2.2810 H   0  0  0  0  0  0  0  0  0  0  0  0
    5.7666   -5.3395    2.8295 H   0  0  0  0  0  0  0  0  0  0  0  0
    5.8462   -3.0431    1.6780 H   0  0  0  0  0  0  0  0  0  0  0  0
  1  2  2  0
  2  3  1  0
 11  2  1  6
  3  9  1  0
  3  4  1  0
  4  5  1  0
  4 25  1  0
  4 26  1  0
  5 10  1  0
  5  6  1  0
  5 27  1  6
  6  7  1  0
  6 28  1  0
  6 29  1  0
  7  8  1  0
  8  9  1  0
  8 30  1  0
  8 31  1  0
  9 10  1  0
  9 32  1  6
 10 33  1  0
 10 34  1  0
 11 19  1  0
 11 24  1  0
 11 12  1  0
 12 13  1  0
 12 35  1  0
 12 36  1  0
 13 18  1  0
 13 14  1  0
 13 37  1  6
 14 15  1  0
 14 38  1  0
 14 39  1  0
 15 16  1  0
 15 24  1  0
 15 40  1  1
 16 17  1  0
 16 41  1  0
 16 42  1  0
 17 18  1  0
 17 19  1  0
 17 43  1  1
 18 44  1  0
 18 45  1  0
 19 20  1  0
 19 46  1  6
 20 21  1  0
 20 47  1  0
 20 55  1  0
 21 23  1  0
 21 22  1  0
 21 48  1  0
 22 23  1  0
 22 49  1  0
 22 50  1  0
 23 51  1  0
 23 52  1  0
 24 53  1  0
 24 54  1  0
M  CHG  1  20   1
M  END
>  <i_m_ct_stereo_status>  (23) 
1

>  <s_m_source_file>  (23) 
/var/tmp/pbs.5076255.sched01/tmp44bw07az/09l6mph0o.sdf

>  <i_m_source_file_index>  (23) 
12

>  <i_lp_mmshare_version>  (23) 
48012

>  <i_f3d_flags>  (23) 
0

>  <s_epik_input>  (23) 
W0NIMl0xT1tDSDJdW0NASF0oW0NIMl0yKU4oW0NIMl1bQ0BASF0xMilDKD1PKVtDQF0zNFtDSDJdW0NASF01W0NIMl1bQ0BASF0oW0NIMl00KVtDSDJdW0NASF0oW0NIMl01KVtDQEhdM1tOSF1bQ0hdNltDSDJdW0NIMl02

>  <s_epik_cmdline>  (23) 
J2VwaWtfcHl0aG9uJywgJy1waHQnLCAnMi4wJywgJy1waCcsICc3LjAnLCAnLXRuJywgJzgnLCAnLW1hJywgJzIwMCcsICctaW1hZScsICc8aW5maWxlLm1hZT4nLCAnLW9tYWUnLCAnPG91dGZpbGUubWFlPic=

>  <r_epik_Ionization_Penalty>  (23) 
0.00945086

>  <r_epik_Ionization_Penalty_Charging>  (23) 
0.00945086

>  <r_epik_Ionization_Penalty_Neutral>  (23) 
1.94779e-09

>  <r_epik_State_Penalty>  (23) 
0.00717764

>  <r_epik_Charging_Adjusted_Penalty>  (23) 
0.0166285

>  <i_epik_Tot_Q>  (23) 
1

>  <i_epik_Tot_abs_Q>  (23) 
1

>  <s_lp_Force_Field>  (23) 
OPLS3e

>  <r_lp_Energy>  (23) 
29.2306

>  <b_lp_Chiralities_Consistent>  (23) 
1

>  <s_lp_Variant>  (23) 
7:0-1

>  <s_i_glide_gridfile>  (23) 
pfpi4k_grid

>  <i_i_glide_lignum>  (23) 
12

>  <i_i_glide_rotatable_bonds>  (23) 
4

>  <r_i_docking_score>  (23) 
-2.96316

>  <r_i_glide_ligand_efficiency>  (23) 
-0.123465

>  <r_i_glide_ligand_efficiency_sa>  (23) 
-0.356134

>  <r_i_glide_ligand_efficiency_ln>  (23) 
-0.709219

>  <r_i_glide_gscore>  (23) 
-2.96316

>  <r_i_glide_lipo>  (23) 
-0.444392

>  <r_i_glide_hbond>  (23) 
-0.082511

>  <r_i_glide_metal>  (23) 
-0

>  <r_i_glide_rewards>  (23) 
-1.207

>  <r_i_glide_evdw>  (23) 
-25.8052

>  <r_i_glide_ecoul>  (23) 
-4.13841

>  <r_i_glide_erotb>  (23) 
0.685213

>  <r_i_glide_esite>  (23) 
-0.00345036

>  <r_i_glide_emodel>  (23) 
-30.686

>  <r_i_glide_energy>  (23) 
-29.9436

>  <r_i_glide_einternal>  (23) 
6.91479

>  <r_i_glide_intrahb_reward>  (23) 
-0

>  <i_i_glide_confnum>  (23) 
4

>  <i_i_glide_posenum>  (23) 
1

>  <r_i_glide_eff_state_penalty>  (23) 
0

>  <ligand_id>  (23) 
7

>  <original_smiles>  (23) 
O=C(N1CC2COCC1C2)C12CC3CC(CC(C3)C1NC1CC1)C2

>  <smiles>  (23) 
[H]C1([H])OC([H])([H])C2([H])C([H])([H])N(C(=O)C34C([H])([H])C5([H])C([H])([H])C([H])(C([H])([H])C([H])(C5([H])[H])C3([H])[N+]([H])([H])C3([H])C([H])([H])C3([H])[H])C4([H])[H])C1([H])C2([H])[H]

$$$$
7:0:1
     RDKit          3D

 55 60  0  0  1  0  0  0  0  0999 V2000
    5.5643   -0.3469    0.3995 O   0  0  0  0  0  0  0  0  0  0  0  0
    4.7940   -1.2790    0.3874 C   0  0  0  0  0  0  0  0  0  0  0  0
    4.4436   -1.9064   -0.7820 N   0  0  0  0  0  0  0  0  0  0  0  0
    3.5048   -3.0121   -1.0480 C   0  0  0  0  0  0  0  0  0  0  0  0
    3.5190   -3.1877   -2.5623 C   0  0  1  0  0  0  0  0  0  0  0  0
    2.5734   -2.2021   -3.2606 C   0  0  0  0  0  0  0  0  0  0  0  0
    2.8325   -0.8689   -2.8394 O   0  0  0  0  0  0  0  0  0  0  0  0
    4.2016   -0.4983   -2.8310 C   0  0  0  0  0  0  0  0  0  0  0  0
    5.0599   -1.5610   -2.0960 C   0  0  2  0  0  0  0  0  0  0  0  0
    4.9396   -2.8390   -2.9193 C   0  0  0  0  0  0  0  0  0  0  0  0
    4.2398   -1.7987    1.7748 C   0  0  2  0  0  0  0  0  0  0  0  0
    4.6333   -3.2984    1.9794 C   0  0  0  0  0  0  0  0  0  0  0  0
    4.1026   -3.8147    3.3296 C   0  0  1  0  0  0  0  0  0  0  0  0
    4.7468   -3.0351    4.4896 C   0  0  0  0  0  0  0  0  0  0  0  0
    4.3752   -1.5494    4.3289 C   0  0  2  0  0  0  0  0  0  0  0  0
    2.8544   -1.3671    4.4084 C   0  0  0  0  0  0  0  0  0  0  0  0
    2.2032   -2.1576    3.2516 C   0  0  2  0  0  0  0  0  0  0  0  0
    2.5658   -3.6537    3.3583 C   0  0  0  0  0  0  0  0  0  0  0  0
    2.6893   -1.5986    1.8867 C   0  0  1  0  0  0  0  0  0  0  0  0
    2.2885   -0.1763    1.6759 N   0  0  0  0  0  0  0  0  0  0  0  0
    0.8829    0.1256    1.9948 C   0  0  0  0  0  0  0  0  0  0  0  0
    0.5444    1.5913    2.0736 C   0  0  0  0  0  0  0  0  0  0  0  0
    0.5850    0.7751    3.3292 C   0  0  0  0  0  0  0  0  0  0  0  0
    4.8993   -0.9999    2.9690 C   0  0  0  0  0  0  0  0  0  0  0  0
    3.8630   -3.9703   -0.6745 H   0  0  0  0  0  0  0  0  0  0  0  0
    2.4678   -2.8135   -0.7465 H   0  0  0  0  0  0  0  0  0  0  0  0
    3.2651   -4.1906   -2.8743 H   0  0  0  0  0  0  0  0  0  0  0  0
    2.6168   -2.3182   -4.3533 H   0  0  0  0  0  0  0  0  0  0  0  0
    1.5543   -2.4349   -2.9415 H   0  0  0  0  0  0  0  0  0  0  0  0
    4.5660   -0.3549   -3.8603 H   0  0  0  0  0  0  0  0  0  0  0  0
    4.2538    0.4655   -2.3283 H   0  0  0  0  0  0  0  0  0  0  0  0
    6.1059   -1.2624   -2.0050 H   0  0  0  0  0  0  0  0  0  0  0  0
    5.6217   -3.6207   -2.5833 H   0  0  0  0  0  0  0  0  0  0  0  0
    5.0301   -2.6858   -3.9971 H   0  0  0  0  0  0  0  0  0  0  0  0
    4.2194   -3.9885    1.2607 H   0  0  0  0  0  0  0  0  0  0  0  0
    5.7288   -3.3966    1.9610 H   0  0  0  0  0  0  0  0  0  0  0  0
    4.3564   -4.8720    3.4304 H   0  0  0  0  0  0  0  0  0  0  0  0
    4.4009   -3.4090    5.4553 H   0  0  0  0  0  0  0  0  0  0  0  0
    5.8329   -3.1447    4.4595 H   0  0  0  0  0  0  0  0  0  0  0  0
    4.8166   -0.9837    5.1351 H   0  0  0  0  0  0  0  0  0  0  0  0
    2.4442   -1.7224    5.3599 H   0  0  0  0  0  0  0  0  0  0  0  0
    2.7030   -0.3021    4.3282 H   0  0  0  0  0  0  0  0  0  0  0  0
    1.1150   -2.1137    3.3203 H   0  0  0  0  0  0  0  0  0  0  0  0
    2.1074   -4.2235    2.5410 H   0  0  0  0  0  0  0  0  0  0  0  0
    2.1468   -4.0624    4.2730 H   0  0  0  0  0  0  0  0  0  0  0  0
    2.1570   -2.1718    1.1317 H   0  0  0  0  0  0  0  0  0  0  0  0
    2.8874    0.4678    2.1923 H   0  0  0  0  0  0  0  0  0  0  0  0
    0.1814   -0.5438    1.5006 H   0  0  0  0  0  0  0  0  0  0  0  0
    1.3492    2.3160    1.9591 H   0  0  0  0  0  0  0  0  0  0  0  0
   -0.4427    1.9328    1.7486 H   0  0  0  0  0  0  0  0  0  0  0  0
   -0.3601    0.4601    3.7652 H   0  0  0  0  0  0  0  0  0  0  0  0
    1.3390    1.1522    4.0157 H   0  0  0  0  0  0  0  0  0  0  0  0
    5.9833   -1.0740    2.9098 H   0  0  0  0  0  0  0  0  0  0  0  0
    4.6942    0.0678    2.8853 H   0  0  0  0  0  0  0  0  0  0  0  0
    2.3872    0.0194    0.6873 H   0  0  0  0  0  0  0  0  0  0  0  0
  1  2  2  0
  2  3  1  0
 11  2  1  6
  3  9  1  0
  3  4  1  0
  4  5  1  0
  4 25  1  0
  4 26  1  0
  5 10  1  0
  5  6  1  0
  5 27  1  1
  6  7  1  0
  6 28  1  0
  6 29  1  0
  7  8  1  0
  8  9  1  0
  8 30  1  0
  8 31  1  0
  9 10  1  0
  9 32  1  1
 10 33  1  0
 10 34  1  0
 11 19  1  0
 11 24  1  0
 11 12  1  0
 12 13  1  0
 12 35  1  0
 12 36  1  0
 13 18  1  0
 13 14  1  0
 13 37  1  1
 14 15  1  0
 14 38  1  0
 14 39  1  0
 15 16  1  0
 15 24  1  0
 15 40  1  1
 16 17  1  0
 16 41  1  0
 16 42  1  0
 17 18  1  0
 17 19  1  0
 17 43  1  6
 18 44  1  0
 18 45  1  0
 19 20  1  0
 19 46  1  6
 20 21  1  0
 20 47  1  0
 20 55  1  0
 21 23  1  0
 21 22  1  0
 21 48  1  0
 22 23  1  0
 22 49  1  0
 22 50  1  0
 23 51  1  0
 23 52  1  0
 24 53  1  0
 24 54  1  0
M  CHG  1  20   1
M  END
>  <i_m_ct_stereo_status>  (24) 
1

>  <s_m_source_file>  (24) 
/var/tmp/pbs.5076255.sched01/tmp44bw07az/09l6mph0o.sdf

>  <i_m_source_file_index>  (24) 
12

>  <i_lp_mmshare_version>  (24) 
48012

>  <i_f3d_flags>  (24) 
0

>  <s_epik_input>  (24) 
W0NIMl0xT1tDSDJdW0NASF0oW0NIMl0yKU4oW0NIMl1bQ0BASF0xMilDKD1PKVtDQF0zNFtDSDJdW0NASF01W0NIMl1bQ0BASF0oW0NIMl00KVtDSDJdW0NASF0oW0NIMl01KVtDQEhdM1tOSF1bQ0hdNltDSDJdW0NIMl02

>  <s_epik_cmdline>  (24) 
J2VwaWtfcHl0aG9uJywgJy1waHQnLCAnMi4wJywgJy1waCcsICc3LjAnLCAnLXRuJywgJzgnLCAnLW1hJywgJzIwMCcsICctaW1hZScsICc8aW5maWxlLm1hZT4nLCAnLW9tYWUnLCAnPG91dGZpbGUubWFlPic=

>  <r_epik_Ionization_Penalty>  (24) 
0.00945086

>  <r_epik_Ionization_Penalty_Charging>  (24) 
0.00945086

>  <r_epik_Ionization_Penalty_Neutral>  (24) 
1.94779e-09

>  <r_epik_State_Penalty>  (24) 
0.00717764

>  <r_epik_Charging_Adjusted_Penalty>  (24) 
0.0166285

>  <i_epik_Tot_Q>  (24) 
1

>  <i_epik_Tot_abs_Q>  (24) 
1

>  <s_lp_Force_Field>  (24) 
OPLS3e

>  <r_lp_Energy>  (24) 
29.2306

>  <b_lp_Chiralities_Consistent>  (24) 
1

>  <s_lp_Variant>  (24) 
7:0-1

>  <s_i_glide_gridfile>  (24) 
pfpi4k_grid

>  <i_i_glide_lignum>  (24) 
12

>  <i_i_glide_rotatable_bonds>  (24) 
4

>  <r_i_docking_score>  (24) 
-2.83897

>  <r_i_glide_ligand_efficiency>  (24) 
-0.11829

>  <r_i_glide_ligand_efficiency_sa>  (24) 
-0.341209

>  <r_i_glide_ligand_efficiency_ln>  (24) 
-0.679496

>  <r_i_glide_gscore>  (24) 
-2.83897

>  <r_i_glide_lipo>  (24) 
-0.571051

>  <r_i_glide_hbond>  (24) 
0

>  <r_i_glide_metal>  (24) 
-0

>  <r_i_glide_rewards>  (24) 
-1.19002

>  <r_i_glide_evdw>  (24) 
-24.4173

>  <r_i_glide_ecoul>  (24) 
-3.00209

>  <r_i_glide_erotb>  (24) 
0.685213

>  <r_i_glide_esite>  (24) 
-0.0919313

>  <r_i_glide_emodel>  (24) 
-29.2683

>  <r_i_glide_energy>  (24) 
-27.4194

>  <r_i_glide_einternal>  (24) 
3.37351

>  <r_i_glide_intrahb_reward>  (24) 
-0

>  <i_i_glide_confnum>  (24) 
3

>  <i_i_glide_posenum>  (24) 
5

>  <r_i_glide_eff_state_penalty>  (24) 
0

>  <ligand_id>  (24) 
7

>  <original_smiles>  (24) 
O=C(N1CC2COCC1C2)C12CC3CC(CC(C3)C1NC1CC1)C2

>  <smiles>  (24) 
[H]C1([H])OC([H])([H])C2([H])C([H])([H])N(C(=O)C34C([H])([H])C5([H])C([H])([H])C([H])(C([H])([H])C([H])(C5([H])[H])C3([H])[N+]([H])([H])C3([H])C([H])([H])C3([H])[H])C4([H])[H])C1([H])C2([H])[H]

$$$$
7:0:2
     RDKit          3D

 55 60  0  0  1  0  0  0  0  0999 V2000
    5.9250   -1.2533    0.3243 O   0  0  0  0  0  0  0  0  0  0  0  0
    5.0181   -2.0716    0.2199 C   0  0  0  0  0  0  0  0  0  0  0  0
    4.5834   -2.4558   -1.0095 N   0  0  0  0  0  0  0  0  0  0  0  0
    3.4677   -3.3394   -1.4157 C   0  0  0  0  0  0  0  0  0  0  0  0
    3.4178   -3.2853   -2.9374 C   0  0  1  0  0  0  0  0  0  0  0  0
    2.6351   -2.0821   -3.4254 C   0  0  0  0  0  0  0  0  0  0  0  0
    3.0974   -0.8882   -2.7859 O   0  0  0  0  0  0  0  0  0  0  0  0
    4.5181   -0.7365   -2.7585 C   0  0  0  0  0  0  0  0  0  0  0  0
    5.2127   -2.0189   -2.2614 C   0  0  2  0  0  0  0  0  0  0  0  0
    4.8732   -3.1230   -3.2699 C   0  0  0  0  0  0  0  0  0  0  0  0
    4.3823   -2.6504    1.5345 C   0  0  2  0  0  0  0  0  0  0  0  0
    4.4975   -4.2170    1.5579 C   0  0  0  0  0  0  0  0  0  0  0  0
    3.8696   -4.8028    2.8268 C   0  0  1  0  0  0  0  0  0  0  0  0
    4.6274   -4.3091    4.0530 C   0  0  0  0  0  0  0  0  0  0  0  0
    4.5301   -2.7656    4.1008 C   0  0  2  0  0  0  0  0  0  0  0  0
    3.0484   -2.3441    4.2282 C   0  0  0  0  0  0  0  0  0  0  0  0
    2.2918   -2.8443    2.9938 C   0  0  2  0  0  0  0  0  0  0  0  0
    2.3923   -4.3813    2.9035 C   0  0  0  0  0  0  0  0  0  0  0  0
    2.8874   -2.2015    1.7138 C   0  0  1  0  0  0  0  0  0  0  0  0
    2.7413   -0.7202    1.6724 N   0  0  0  0  0  0  0  0  0  0  0  0
    1.3819   -0.2398    1.9773 C   0  0  0  0  0  0  0  0  0  0  0  0
    1.2075    1.2442    1.8488 C   0  0  0  0  0  0  0  0  0  0  0  0
    1.2658    0.6024    3.2139 C   0  0  0  0  0  0  0  0  0  0  0  0
    5.1487   -2.1576    2.8064 C   0  0  0  0  0  0  0  0  0  0  0  0
    3.6752   -4.3884   -1.1922 H   0  0  0  0  0  0  0  0  0  0  0  0
    2.4729   -3.0472   -1.0563 H   0  0  0  0  0  0  0  0  0  0  0  0
    2.9739   -4.1755   -3.3782 H   0  0  0  0  0  0  0  0  0  0  0  0
    2.6827   -2.0076   -4.5105 H   0  0  0  0  0  0  0  0  0  0  0  0
    1.6072   -2.2635   -3.1280 H   0  0  0  0  0  0  0  0  0  0  0  0
    4.8478   -0.5199   -3.7767 H   0  0  0  0  0  0  0  0  0  0  0  0
    4.7477    0.1207   -2.1266 H   0  0  0  0  0  0  0  0  0  0  0  0
    6.2915   -1.9003   -2.1843 H   0  0  0  0  0  0  0  0  0  0  0  0
    5.4350   -4.0433   -3.0759 H   0  0  0  0  0  0  0  0  0  0  0  0
    4.9934   -2.8373   -4.3182 H   0  0  0  0  0  0  0  0  0  0  0  0
    3.9644   -4.7234    0.7612 H   0  0  0  0  0  0  0  0  0  0  0  0
    5.5477   -4.5183    1.4749 H   0  0  0  0  0  0  0  0  0  0  0  0
    3.9295   -5.8883    2.7700 H   0  0  0  0  0  0  0  0  0  0  0  0
    4.2250   -4.7557    4.9609 H   0  0  0  0  0  0  0  0  0  0  0  0
    5.6737   -4.6046    3.9862 H   0  0  0  0  0  0  0  0  0  0  0  0
    5.0663   -2.4039    4.9822 H   0  0  0  0  0  0  0  0  0  0  0  0
    2.5855   -2.7281    5.1364 H   0  0  0  0  0  0  0  0  0  0  0  0
    3.0056   -1.2589    4.3007 H   0  0  0  0  0  0  0  0  0  0  0  0
    1.2292   -2.6139    3.0940 H   0  0  0  0  0  0  0  0  0  0  0  0
    1.8466   -4.7412    2.0296 H   0  0  0  0  0  0  0  0  0  0  0  0
    1.9057   -4.8331    3.7657 H   0  0  0  0  0  0  0  0  0  0  0  0
    2.2591   -2.5779    0.9160 H   0  0  0  0  0  0  0  0  0  0  0  0
    3.3867   -0.2944    2.3246 H   0  0  0  0  0  0  0  0  0  0  0  0
    0.5727   -0.8861    1.6464 H   0  0  0  0  0  0  0  0  0  0  0  0
    2.0588    1.8560    1.5492 H   0  0  0  0  0  0  0  0  0  0  0  0
    0.2371    1.5865    1.4971 H   0  0  0  0  0  0  0  0  0  0  0  0
    0.3339    0.5331    3.7673 H   0  0  0  0  0  0  0  0  0  0  0  0
    2.1522    0.8224    3.8089 H   0  0  0  0  0  0  0  0  0  0  0  0
    6.2044   -2.4359    2.7470 H   0  0  0  0  0  0  0  0  0  0  0  0
    5.1592   -1.0645    2.8860 H   0  0  0  0  0  0  0  0  0  0  0  0
    2.9676   -0.3996    0.7408 H   0  0  0  0  0  0  0  0  0  0  0  0
  1  2  2  0
  2  3  1  0
 11  2  1  6
  3  9  1  0
  3  4  1  0
  4  5  1  0
  4 25  1  0
  4 26  1  0
  5 10  1  0
  5  6  1  0
  5 27  1  6
  6  7  1  0
  6 28  1  0
  6 29  1  0
  7  8  1  0
  8  9  1  0
  8 30  1  0
  8 31  1  0
  9 10  1  0
  9 32  1  1
 10 33  1  0
 10 34  1  0
 11 19  1  0
 11 24  1  0
 11 12  1  0
 12 13  1  0
 12 35  1  0
 12 36  1  0
 13 18  1  0
 13 14  1  0
 13 37  1  6
 14 15  1  0
 14 38  1  0
 14 39  1  0
 15 16  1  0
 15 24  1  0
 15 40  1  1
 16 17  1  0
 16 41  1  0
 16 42  1  0
 17 18  1  0
 17 19  1  0
 17 43  1  1
 18 44  1  0
 18 45  1  0
 19 20  1  0
 19 46  1  6
 20 21  1  0
 20 47  1  0
 20 55  1  0
 21 23  1  0
 21 22  1  0
 21 48  1  0
 22 23  1  0
 22 49  1  0
 22 50  1  0
 23 51  1  0
 23 52  1  0
 24 53  1  0
 24 54  1  0
M  CHG  1  20   1
M  END
>  <i_m_ct_stereo_status>  (25) 
1

>  <s_m_source_file>  (25) 
/var/tmp/pbs.5076255.sched01/tmp44bw07az/09l6mph0o.sdf

>  <i_m_source_file_index>  (25) 
12

>  <i_lp_mmshare_version>  (25) 
48012

>  <i_f3d_flags>  (25) 
0

>  <s_epik_input>  (25) 
W0NIMl0xT1tDSDJdW0NASF0oW0NIMl0yKU4oW0NIMl1bQ0BASF0xMilDKD1PKVtDQF0zNFtDSDJdW0NASF01W0NIMl1bQ0BASF0oW0NIMl00KVtDSDJdW0NASF0oW0NIMl01KVtDQEhdM1tOSF1bQ0hdNltDSDJdW0NIMl02

>  <s_epik_cmdline>  (25) 
J2VwaWtfcHl0aG9uJywgJy1waHQnLCAnMi4wJywgJy1waCcsICc3LjAnLCAnLXRuJywgJzgnLCAnLW1hJywgJzIwMCcsICctaW1hZScsICc8aW5maWxlLm1hZT4nLCAnLW9tYWUnLCAnPG91dGZpbGUubWFlPic=

>  <r_epik_Ionization_Penalty>  (25) 
0.00945086

>  <r_epik_Ionization_Penalty_Charging>  (25) 
0.00945086

>  <r_epik_Ionization_Penalty_Neutral>  (25) 
1.94779e-09

>  <r_epik_State_Penalty>  (25) 
0.00717764

>  <r_epik_Charging_Adjusted_Penalty>  (25) 
0.0166285

>  <i_epik_Tot_Q>  (25) 
1

>  <i_epik_Tot_abs_Q>  (25) 
1

>  <s_lp_Force_Field>  (25) 
OPLS3e

>  <r_lp_Energy>  (25) 
29.2306

>  <b_lp_Chiralities_Consistent>  (25) 
1

>  <s_lp_Variant>  (25) 
7:0-1

>  <s_i_glide_gridfile>  (25) 
pfpi4k_grid

>  <i_i_glide_lignum>  (25) 
12

>  <i_i_glide_rotatable_bonds>  (25) 
4

>  <r_i_docking_score>  (25) 
-2.78311

>  <r_i_glide_ligand_efficiency>  (25) 
-0.115963

>  <r_i_glide_ligand_efficiency_sa>  (25) 
-0.334496

>  <r_i_glide_ligand_efficiency_ln>  (25) 
-0.666127

>  <r_i_glide_gscore>  (25) 
-2.78311

>  <r_i_glide_lipo>  (25) 
-0.539715

>  <r_i_glide_hbond>  (25) 
0

>  <r_i_glide_metal>  (25) 
-0

>  <r_i_glide_rewards>  (25) 
-1.16729

>  <r_i_glide_evdw>  (25) 
-23.991

>  <r_i_glide_ecoul>  (25) 
-3.32278

>  <r_i_glide_erotb>  (25) 
0.685213

>  <r_i_glide_esite>  (25) 
-0.0633554

>  <r_i_glide_emodel>  (25) 
-30.2066

>  <r_i_glide_energy>  (25) 
-27.3138

>  <r_i_glide_einternal>  (25) 
2.96778

>  <r_i_glide_intrahb_reward>  (25) 
-0

>  <i_i_glide_confnum>  (25) 
4

>  <i_i_glide_posenum>  (25) 
32

>  <r_i_glide_eff_state_penalty>  (25) 
0

>  <ligand_id>  (25) 
7

>  <original_smiles>  (25) 
O=C(N1CC2COCC1C2)C12CC3CC(CC(C3)C1NC1CC1)C2

>  <smiles>  (25) 
[H]C1([H])OC([H])([H])C2([H])C([H])([H])N(C(=O)C34C([H])([H])C5([H])C([H])([H])C([H])(C([H])([H])C([H])(C5([H])[H])C3([H])[N+]([H])([H])C3([H])C([H])([H])C3([H])[H])C4([H])[H])C1([H])C2([H])[H]

$$$$
7:1:0
     RDKit          3D

 54 59  0  0  1  0  0  0  0  0999 V2000
    5.5987   -0.7313    2.8311 O   0  0  0  0  0  0  0  0  0  0  0  0
    4.6024   -0.8862    2.1229 C   0  0  0  0  0  0  0  0  0  0  0  0
    3.4690   -0.1893    2.4070 N   0  0  0  0  0  0  0  0  0  0  0  0
    2.1739   -0.1944    1.7065 C   0  0  0  0  0  0  0  0  0  0  0  0
    1.2658    0.7204    2.5097 C   0  0  1  0  0  0  0  0  0  0  0  0
    0.6624   -0.0382    3.7093 C   0  0  0  0  0  0  0  0  0  0  0  0
    1.6733   -0.7018    4.4710 O   0  0  0  0  0  0  0  0  0  0  0  0
    2.8405    0.0669    4.7723 C   0  0  0  0  0  0  0  0  0  0  0  0
    3.3519    0.7818    3.5023 C   0  0  2  0  0  0  0  0  0  0  0  0
    2.2499    1.7411    3.0452 C   0  0  0  0  0  0  0  0  0  0  0  0
    4.6894   -1.8741    0.9111 C   0  0  2  0  0  0  0  0  0  0  0  0
    4.7329   -1.0687   -0.4246 C   0  0  0  0  0  0  0  0  0  0  0  0
    4.8575   -2.0132   -1.6354 C   0  0  1  0  0  0  0  0  0  0  0  0
    6.1709   -2.8079   -1.5468 C   0  0  0  0  0  0  0  0  0  0  0  0
    6.1701   -3.6396   -0.2523 C   0  0  2  0  0  0  0  0  0  0  0  0
    4.9983   -4.6382   -0.2921 C   0  0  0  0  0  0  0  0  0  0  0  0
    3.6768   -3.8524   -0.3699 C   0  0  2  0  0  0  0  0  0  0  0  0
    3.6555   -2.9814   -1.6492 C   0  0  0  0  0  0  0  0  0  0  0  0
    3.5345   -2.9361    0.8661 C   0  0  1  0  0  0  0  0  0  0  0  0
    3.4913   -3.6867    2.1344 N   0  0  0  0  0  0  0  0  0  0  0  0
    2.3360   -4.5362    2.3433 C   0  0  0  0  0  0  0  0  0  0  0  0
    2.5716   -5.7019    3.2740 C   0  0  0  0  0  0  0  0  0  0  0  0
    2.3273   -5.9567    1.8075 C   0  0  0  0  0  0  0  0  0  0  0  0
    6.0334   -2.6841    0.9617 C   0  0  0  0  0  0  0  0  0  0  0  0
    2.2670    0.1851    0.6946 H   0  0  0  0  0  0  0  0  0  0  0  0
    1.6678   -1.1592    1.7034 H   0  0  0  0  0  0  0  0  0  0  0  0
    0.4951    1.1662    1.8772 H   0  0  0  0  0  0  0  0  0  0  0  0
    0.0793    0.6389    4.3350 H   0  0  0  0  0  0  0  0  0  0  0  0
   -0.0104   -0.8118    3.3493 H   0  0  0  0  0  0  0  0  0  0  0  0
    2.6227    0.7975    5.5586 H   0  0  0  0  0  0  0  0  0  0  0  0
    3.5992   -0.6117    5.1584 H   0  0  0  0  0  0  0  0  0  0  0  0
    4.2779    1.3277    3.6966 H   0  0  0  0  0  0  0  0  0  0  0  0
    2.6027    2.4123    2.2501 H   0  0  0  0  0  0  0  0  0  0  0  0
    1.8263    2.3427    3.8563 H   0  0  0  0  0  0  0  0  0  0  0  0
    3.8383   -0.4754   -0.5688 H   0  0  0  0  0  0  0  0  0  0  0  0
    5.5588   -0.3581   -0.4178 H   0  0  0  0  0  0  0  0  0  0  0  0
    4.8483   -1.4246   -2.5532 H   0  0  0  0  0  0  0  0  0  0  0  0
    6.2942   -3.4592   -2.4139 H   0  0  0  0  0  0  0  0  0  0  0  0
    7.0226   -2.1295   -1.5357 H   0  0  0  0  0  0  0  0  0  0  0  0
    7.0992   -4.2015   -0.1710 H   0  0  0  0  0  0  0  0  0  0  0  0
    5.0720   -5.3338   -1.1319 H   0  0  0  0  0  0  0  0  0  0  0  0
    5.0314   -5.2474    0.6098 H   0  0  0  0  0  0  0  0  0  0  0  0
    2.8323   -4.5384   -0.4352 H   0  0  0  0  0  0  0  0  0  0  0  0
    2.7212   -2.4183   -1.7013 H   0  0  0  0  0  0  0  0  0  0  0  0
    3.6721   -3.6124   -2.5390 H   0  0  0  0  0  0  0  0  0  0  0  0
    2.5740   -2.4746    0.6859 H   0  0  0  0  0  0  0  0  0  0  0  0
    3.6360   -3.0786    2.9269 H   0  0  0  0  0  0  0  0  0  0  0  0
    1.3682   -4.0561    2.4524 H   0  0  0  0  0  0  0  0  0  0  0  0
    3.5865   -5.8458    3.6416 H   0  0  0  0  0  0  0  0  0  0  0  0
    1.7777   -5.9617    3.9675 H   0  0  0  0  0  0  0  0  0  0  0  0
    1.3733   -6.4027    1.5472 H   0  0  0  0  0  0  0  0  0  0  0  0
    3.1746   -6.3217    1.2332 H   0  0  0  0  0  0  0  0  0  0  0  0
    6.8872   -2.0040    0.9759 H   0  0  0  0  0  0  0  0  0  0  0  0
    6.1096   -3.2587    1.8862 H   0  0  0  0  0  0  0  0  0  0  0  0
  1  2  2  0
  2  3  1  0
 11  2  1  1
  3  9  1  0
  3  4  1  0
  4  5  1  0
  4 25  1  0
  4 26  1  0
  5 10  1  0
  5  6  1  0
  5 27  1  6
  6  7  1  0
  6 28  1  0
  6 29  1  0
  7  8  1  0
  8  9  1  0
  8 30  1  0
  8 31  1  0
  9 10  1  0
  9 32  1  1
 10 33  1  0
 10 34  1  0
 11 19  1  0
 11 24  1  0
 11 12  1  0
 12 13  1  0
 12 35  1  0
 12 36  1  0
 13 18  1  0
 13 14  1  0
 13 37  1  6
 14 15  1  0
 14 38  1  0
 14 39  1  0
 15 16  1  0
 15 24  1  0
 15 40  1  1
 16 17  1  0
 16 41  1  0
 16 42  1  0
 17 18  1  0
 17 19  1  0
 17 43  1  6
 18 44  1  0
 18 45  1  0
 19 20  1  0
 19 46  1  6
 20 21  1  0
 20 47  1  0
 21 23  1  0
 21 22  1  0
 21 48  1  0
 22 23  1  0
 22 49  1  0
 22 50  1  0
 23 51  1  0
 23 52  1  0
 24 53  1  0
 24 54  1  0
M  END
>  <i_m_ct_stereo_status>  (26) 
1

>  <s_m_source_file>  (26) 
/var/tmp/pbs.5076255.sched01/tmp44bw07az/09l6mph0o.sdf

>  <i_m_source_file_index>  (26) 
13

>  <i_lp_mmshare_version>  (26) 
48012

>  <i_f3d_flags>  (26) 
0

>  <s_epik_input>  (26) 
W0NIMl0xT1tDSDJdW0NASF0oW0NIMl0yKU4oW0NIMl1bQ0BASF0xMilDKD1PKVtDQF0zNFtDSDJdW0NASF01W0NIMl1bQ0BASF0oW0NIMl00KVtDSDJdW0NASF0oW0NIMl01KVtDQEhdM1tOSF1bQ0hdNltDSDJdW0NIMl02

>  <s_epik_cmdline>  (26) 
J2VwaWtfcHl0aG9uJywgJy1waHQnLCAnMi4wJywgJy1waCcsICc3LjAnLCAnLXRuJywgJzgnLCAnLW1hJywgJzIwMCcsICctaW1hZScsICc8aW5maWxlLm1hZT4nLCAnLW9tYWUnLCAnPG91dGZpbGUubWFlPic=

>  <r_epik_Ionization_Penalty>  (26) 
2.45656

>  <r_epik_Ionization_Penalty_Charging>  (26) 
0

>  <r_epik_Ionization_Penalty_Neutral>  (26) 
2.45656

>  <r_epik_State_Penalty>  (26) 
2.61844

>  <r_epik_Charging_Adjusted_Penalty>  (26) 
2.61844

>  <i_epik_Tot_Q>  (26) 
0

>  <i_epik_Tot_abs_Q>  (26) 
0

>  <s_lp_Force_Field>  (26) 
OPLS3e

>  <r_lp_Energy>  (26) 
25.0295

>  <b_lp_Chiralities_Consistent>  (26) 
1

>  <s_lp_Variant>  (26) 
7:0-2

>  <s_i_glide_gridfile>  (26) 
pfpi4k_grid

>  <i_i_glide_lignum>  (26) 
13

>  <i_i_glide_rotatable_bonds>  (26) 
4

>  <r_i_docking_score>  (26) 
-2.46209

>  <r_i_glide_ligand_efficiency>  (26) 
-0.102587

>  <r_i_glide_ligand_efficiency_sa>  (26) 
-0.295912

>  <r_i_glide_ligand_efficiency_ln>  (26) 
-0.58929

>  <r_i_glide_gscore>  (26) 
-2.46209

>  <r_i_glide_lipo>  (26) 
-0.204725

>  <r_i_glide_hbond>  (26) 
0

>  <r_i_glide_metal>  (26) 
-0

>  <r_i_glide_rewards>  (26) 
-1.28013

>  <r_i_glide_evdw>  (26) 
-28.6533

>  <r_i_glide_ecoul>  (26) 
-1.55655

>  <r_i_glide_erotb>  (26) 
0.688913

>  <r_i_glide_esite>  (26) 
0

>  <r_i_glide_emodel>  (26) 
-34.0897

>  <r_i_glide_energy>  (26) 
-30.2099

>  <r_i_glide_einternal>  (26) 
0.14346

>  <r_i_glide_intrahb_reward>  (26) 
-0

>  <i_i_glide_confnum>  (26) 
5

>  <i_i_glide_posenum>  (26) 
2

>  <r_i_glide_eff_state_penalty>  (26) 
0

>  <ligand_id>  (26) 
7

>  <original_smiles>  (26) 
O=C(N1CC2COCC1C2)C12CC3CC(CC(C3)C1NC1CC1)C2

>  <smiles>  (26) 
[H]N(C1([H])C([H])([H])C1([H])[H])C1([H])C2([H])C([H])([H])C3([H])C([H])([H])C([H])(C2([H])[H])C([H])([H])C1(C(=O)N1C([H])([H])C2([H])C([H])([H])OC([H])([H])C1([H])C2([H])[H])C3([H])[H]

$$$$
7:1:1
     RDKit          3D

 54 59  0  0  1  0  0  0  0  0999 V2000
    5.4787   -0.7234    2.8376 O   0  0  0  0  0  0  0  0  0  0  0  0
    4.4458   -0.9209    2.1876 C   0  0  0  0  0  0  0  0  0  0  0  0
    3.3117   -0.2715    2.5307 N   0  0  0  0  0  0  0  0  0  0  0  0
    1.9649   -0.3120    1.9304 C   0  0  0  0  0  0  0  0  0  0  0  0
    1.0824    0.5634    2.7880 C   0  0  1  0  0  0  0  0  0  0  0  0
    0.5906   -0.1999    4.0229 C   0  0  0  0  0  0  0  0  0  0  0  0
    1.6782   -0.8001    4.7074 O   0  0  0  0  0  0  0  0  0  0  0  0
    2.8257    0.0070    4.9307 C   0  0  0  0  0  0  0  0  0  0  0  0
    3.2248    0.7087    3.6230 C   0  0  2  0  0  0  0  0  0  0  0  0
    2.0628    1.6267    3.2286 C   0  0  0  0  0  0  0  0  0  0  0  0
    4.5084   -1.9130    0.9795 C   0  0  2  0  0  0  0  0  0  0  0  0
    4.3699   -1.1378   -0.3653 C   0  0  0  0  0  0  0  0  0  0  0  0
    4.4531   -2.0823   -1.5751 C   0  0  1  0  0  0  0  0  0  0  0  0
    5.8232   -2.7631   -1.6096 C   0  0  0  0  0  0  0  0  0  0  0  0
    6.0140   -3.5746   -0.3135 C   0  0  2  0  0  0  0  0  0  0  0  0
    4.9344   -4.6735   -0.2395 C   0  0  0  0  0  0  0  0  0  0  0  0
    3.5544   -3.9956   -0.1955 C   0  0  2  0  0  0  0  0  0  0  0  0
    3.3373   -3.1415   -1.4723 C   0  0  0  0  0  0  0  0  0  0  0  0
    3.4659   -3.0842    1.0563 C   0  0  1  0  0  0  0  0  0  0  0  0
    3.5847   -3.8187    2.3264 N   0  0  0  0  0  0  0  0  0  0  0  0
    2.4728   -4.6888    2.6180 C   0  0  0  0  0  0  0  0  0  0  0  0
    1.4866   -4.2346    3.6498 C   0  0  0  0  0  0  0  0  0  0  0  0
    2.5078   -5.2971    4.0032 C   0  0  0  0  0  0  0  0  0  0  0  0
    5.9070   -2.6132    0.9083 C   0  0  0  0  0  0  0  0  0  0  0  0
    1.9537    0.0890    0.9206 H   0  0  0  0  0  0  0  0  0  0  0  0
    1.4666   -1.2886    1.9678 H   0  0  0  0  0  0  0  0  0  0  0  0
    0.2544    0.9616    2.1936 H   0  0  0  0  0  0  0  0  0  0  0  0
    0.0292    0.4456    4.6805 H   0  0  0  0  0  0  0  0  0  0  0  0
   -0.0519   -1.0185    3.7229 H   0  0  0  0  0  0  0  0  0  0  0  0
    2.6208    0.7227    5.7189 H   0  0  0  0  0  0  0  0  0  0  0  0
    3.6149   -0.6546    5.2711 H   0  0  0  0  0  0  0  0  0  0  0  0
    4.1407    1.2958    3.7499 H   0  0  0  0  0  0  0  0  0  0  0  0
    2.3332    2.2961    2.3994 H   0  0  0  0  0  0  0  0  0  0  0  0
    1.6686    2.2219    4.0569 H   0  0  0  0  0  0  0  0  0  0  0  0
    3.4114   -0.6609   -0.4647 H   0  0  0  0  0  0  0  0  0  0  0  0
    5.1198   -0.3545   -0.4431 H   0  0  0  0  0  0  0  0  0  0  0  0
    4.3042   -1.5057   -2.4869 H   0  0  0  0  0  0  0  0  0  0  0  0
    5.9139   -3.4187   -2.4813 H   0  0  0  0  0  0  0  0  0  0  0  0
    6.6071   -2.0148   -1.6861 H   0  0  0  0  0  0  0  0  0  0  0  0
    6.9888   -4.0614   -0.3222 H   0  0  0  0  0  0  0  0  0  0  0  0
    4.9854   -5.3633   -1.0836 H   0  0  0  0  0  0  0  0  0  0  0  0
    5.0695   -5.2773    0.6568 H   0  0  0  0  0  0  0  0  0  0  0  0
    2.7630   -4.7569   -0.1870 H   0  0  0  0  0  0  0  0  0  0  0  0
    2.3554   -2.6662   -1.4354 H   0  0  0  0  0  0  0  0  0  0  0  0
    3.3265   -3.7777   -2.3551 H   0  0  0  0  0  0  0  0  0  0  0  0
    2.4331   -2.7153    0.9589 H   0  0  0  0  0  0  0  0  0  0  0  0
    3.7543   -3.1911    3.1016 H   0  0  0  0  0  0  0  0  0  0  0  0
    2.1105   -5.3839    1.8655 H   0  0  0  0  0  0  0  0  0  0  0  0
    1.6267   -3.2420    4.0566 H   0  0  0  0  0  0  0  0  0  0  0  0
    0.4646   -4.5597    3.5328 H   0  0  0  0  0  0  0  0  0  0  0  0
    2.1447   -6.3169    4.1208 H   0  0  0  0  0  0  0  0  0  0  0  0
    3.3256   -5.0048    4.6654 H   0  0  0  0  0  0  0  0  0  0  0  0
    6.6976   -1.8651    0.8357 H   0  0  0  0  0  0  0  0  0  0  0  0
    6.1272   -3.1734    1.8215 H   0  0  0  0  0  0  0  0  0  0  0  0
  1  2  2  0
  2  3  1  0
 11  2  1  1
  3  9  1  0
  3  4  1  0
  4  5  1  0
  4 25  1  0
  4 26  1  0
  5 10  1  0
  5  6  1  0
  5 27  1  6
  6  7  1  0
  6 28  1  0
  6 29  1  0
  7  8  1  0
  8  9  1  0
  8 30  1  0
  8 31  1  0
  9 10  1  0
  9 32  1  1
 10 33  1  0
 10 34  1  0
 11 19  1  0
 11 24  1  0
 11 12  1  0
 12 13  1  0
 12 35  1  0
 12 36  1  0
 13 18  1  0
 13 14  1  0
 13 37  1  6
 14 15  1  0
 14 38  1  0
 14 39  1  0
 15 16  1  0
 15 24  1  0
 15 40  1  6
 16 17  1  0
 16 41  1  0
 16 42  1  0
 17 18  1  0
 17 19  1  0
 17 43  1  1
 18 44  1  0
 18 45  1  0
 19 20  1  0
 19 46  1  1
 20 21  1  0
 20 47  1  0
 21 23  1  0
 21 22  1  0
 21 48  1  0
 22 23  1  0
 22 49  1  0
 22 50  1  0
 23 51  1  0
 23 52  1  0
 24 53  1  0
 24 54  1  0
M  END
>  <i_m_ct_stereo_status>  (27) 
1

>  <s_m_source_file>  (27) 
/var/tmp/pbs.5076255.sched01/tmp44bw07az/09l6mph0o.sdf

>  <i_m_source_file_index>  (27) 
13

>  <i_lp_mmshare_version>  (27) 
48012

>  <i_f3d_flags>  (27) 
0

>  <s_epik_input>  (27) 
W0NIMl0xT1tDSDJdW0NASF0oW0NIMl0yKU4oW0NIMl1bQ0BASF0xMilDKD1PKVtDQF0zNFtDSDJdW0NASF01W0NIMl1bQ0BASF0oW0NIMl00KVtDSDJdW0NASF0oW0NIMl01KVtDQEhdM1tOSF1bQ0hdNltDSDJdW0NIMl02

>  <s_epik_cmdline>  (27) 
J2VwaWtfcHl0aG9uJywgJy1waHQnLCAnMi4wJywgJy1waCcsICc3LjAnLCAnLXRuJywgJzgnLCAnLW1hJywgJzIwMCcsICctaW1hZScsICc8aW5maWxlLm1hZT4nLCAnLW9tYWUnLCAnPG91dGZpbGUubWFlPic=

>  <r_epik_Ionization_Penalty>  (27) 
2.45656

>  <r_epik_Ionization_Penalty_Charging>  (27) 
0

>  <r_epik_Ionization_Penalty_Neutral>  (27) 
2.45656

>  <r_epik_State_Penalty>  (27) 
2.61844

>  <r_epik_Charging_Adjusted_Penalty>  (27) 
2.61844

>  <i_epik_Tot_Q>  (27) 
0

>  <i_epik_Tot_abs_Q>  (27) 
0

>  <s_lp_Force_Field>  (27) 
OPLS3e

>  <r_lp_Energy>  (27) 
25.0295

>  <b_lp_Chiralities_Consistent>  (27) 
1

>  <s_lp_Variant>  (27) 
7:0-2

>  <s_i_glide_gridfile>  (27) 
pfpi4k_grid

>  <i_i_glide_lignum>  (27) 
13

>  <i_i_glide_rotatable_bonds>  (27) 
4

>  <r_i_docking_score>  (27) 
-2.3678

>  <r_i_glide_ligand_efficiency>  (27) 
-0.0986584

>  <r_i_glide_ligand_efficiency_sa>  (27) 
-0.28458

>  <r_i_glide_ligand_efficiency_ln>  (27) 
-0.566723

>  <r_i_glide_gscore>  (27) 
-2.3678

>  <r_i_glide_lipo>  (27) 
-0.196304

>  <r_i_glide_hbond>  (27) 
0

>  <r_i_glide_metal>  (27) 
-0

>  <r_i_glide_rewards>  (27) 
-1.2393

>  <r_i_glide_evdw>  (27) 
-27.369

>  <r_i_glide_ecoul>  (27) 
-1.68437

>  <r_i_glide_erotb>  (27) 
0.688913

>  <r_i_glide_esite>  (27) 
0

>  <r_i_glide_emodel>  (27) 
-32.0229

>  <r_i_glide_energy>  (27) 
-29.0534

>  <r_i_glide_einternal>  (27) 
1.73102

>  <r_i_glide_intrahb_reward>  (27) 
-0

>  <i_i_glide_confnum>  (27) 
5

>  <i_i_glide_posenum>  (27) 
22

>  <r_i_glide_eff_state_penalty>  (27) 
0

>  <ligand_id>  (27) 
7

>  <original_smiles>  (27) 
O=C(N1CC2COCC1C2)C12CC3CC(CC(C3)C1NC1CC1)C2

>  <smiles>  (27) 
[H]N(C1([H])C([H])([H])C1([H])[H])C1([H])C2([H])C([H])([H])C3([H])C([H])([H])C([H])(C2([H])[H])C([H])([H])C1(C(=O)N1C([H])([H])C2([H])C([H])([H])OC([H])([H])C1([H])C2([H])[H])C3([H])[H]

$$$$
7:1:2
     RDKit          3D

 54 59  0  0  1  0  0  0  0  0999 V2000
    6.0510   -1.3707    0.3441 O   0  0  0  0  0  0  0  0  0  0  0  0
    5.0412   -2.0867    0.2568 C   0  0  0  0  0  0  0  0  0  0  0  0
    4.5798   -2.4547   -0.9408 N   0  0  0  0  0  0  0  0  0  0  0  0
    3.4468   -3.3453   -1.2842 C   0  0  0  0  0  0  0  0  0  0  0  0
    3.3588   -3.3034   -2.8049 C   0  0  1  0  0  0  0  0  0  0  0  0
    2.5960   -2.1018   -3.2948 C   0  0  0  0  0  0  0  0  0  0  0  0
    3.0874   -0.8661   -2.7110 O   0  0  0  0  0  0  0  0  0  0  0  0
    4.5375   -0.7598   -2.7098 C   0  0  0  0  0  0  0  0  0  0  0  0
    5.1937   -2.0516   -2.2136 C   0  0  2  0  0  0  0  0  0  0  0  0
    4.8060   -3.1564   -3.1937 C   0  0  0  0  0  0  0  0  0  0  0  0
    4.3300   -2.5190    1.6098 C   0  0  2  0  0  0  0  0  0  0  0  0
    4.2350   -4.0863    1.6808 C   0  0  0  0  0  0  0  0  0  0  0  0
    3.5866   -4.5380    3.0098 C   0  0  1  0  0  0  0  0  0  0  0  0
    4.4394   -4.0808    4.1963 C   0  0  0  0  0  0  0  0  0  0  0  0
    4.5356   -2.5479    4.1679 C   0  0  2  0  0  0  0  0  0  0  0  0
    3.1211   -1.9507    4.3007 C   0  0  0  0  0  0  0  0  0  0  0  0
    2.2689   -2.3815    3.0819 C   0  0  2  0  0  0  0  0  0  0  0  0
    2.1703   -3.9285    3.0740 C   0  0  0  0  0  0  0  0  0  0  0  0
    2.9040   -1.8775    1.7856 C   0  0  1  0  0  0  0  0  0  0  0  0
    2.9996   -0.4097    1.7213 N   0  0  0  0  0  0  0  0  0  0  0  0
    1.7444    0.3124    1.9140 C   0  0  0  0  0  0  0  0  0  0  0  0
    1.9080    1.7861    2.2050 C   0  0  0  0  0  0  0  0  0  0  0  0
    1.3924    0.8760    3.2822 C   0  0  0  0  0  0  0  0  0  0  0  0
    5.1787   -2.0845    2.8406 C   0  0  0  0  0  0  0  0  0  0  0  0
    3.6851   -4.3623   -0.9956 H   0  0  0  0  0  0  0  0  0  0  0  0
    2.4906   -3.0457   -0.8463 H   0  0  0  0  0  0  0  0  0  0  0  0
    2.8754   -4.1689   -3.2360 H   0  0  0  0  0  0  0  0  0  0  0  0
    2.6032   -2.0192   -4.3737 H   0  0  0  0  0  0  0  0  0  0  0  0
    1.5865   -2.2555   -2.9595 H   0  0  0  0  0  0  0  0  0  0  0  0
    4.8341   -0.5456   -3.7331 H   0  0  0  0  0  0  0  0  0  0  0  0
    4.7701    0.0891   -2.0793 H   0  0  0  0  0  0  0  0  0  0  0  0
    6.2691   -1.9581   -2.1560 H   0  0  0  0  0  0  0  0  0  0  0  0
    5.3579   -4.0866   -3.0117 H   0  0  0  0  0  0  0  0  0  0  0  0
    4.9056   -2.8779   -4.2495 H   0  0  0  0  0  0  0  0  0  0  0  0
    3.6271   -4.5279    0.9140 H   0  0  0  0  0  0  0  0  0  0  0  0
    5.2273   -4.5355    1.6000 H   0  0  0  0  0  0  0  0  0  0  0  0
    3.5154   -5.6256    3.0187 H   0  0  0  0  0  0  0  0  0  0  0  0
    4.0059   -4.4166    5.1432 H   0  0  0  0  0  0  0  0  0  0  0  0
    5.4382   -4.5064    4.1354 H   0  0  0  0  0  0  0  0  0  0  0  0
    5.1288   -2.1989    5.0150 H   0  0  0  0  0  0  0  0  0  0  0  0
    2.6379   -2.2519    5.2412 H   0  0  0  0  0  0  0  0  0  0  0  0
    3.2344   -0.8664    4.3385 H   0  0  0  0  0  0  0  0  0  0  0  0
    1.2488   -2.0021    3.1888 H   0  0  0  0  0  0  0  0  0  0  0  0
    1.5825   -4.2627    2.2200 H   0  0  0  0  0  0  0  0  0  0  0  0
    1.6380   -4.2926    3.9586 H   0  0  0  0  0  0  0  0  0  0  0  0
    2.2451   -2.1646    0.9679 H   0  0  0  0  0  0  0  0  0  0  0  0
    3.4289   -0.1182    0.8390 H   0  0  0  0  0  0  0  0  0  0  0  0
    0.8976    0.0549    1.2808 H   0  0  0  0  0  0  0  0  0  0  0  0
    2.9275    2.1459    2.3145 H   0  0  0  0  0  0  0  0  0  0  0  0
    1.2080    2.4772    1.7510 H   0  0  0  0  0  0  0  0  0  0  0  0
    0.3347    0.9607    3.5194 H   0  0  0  0  0  0  0  0  0  0  0  0
    2.0547    0.7629    4.1321 H   0  0  0  0  0  0  0  0  0  0  0  0
    6.1823   -2.4907    2.7656 H   0  0  0  0  0  0  0  0  0  0  0  0
    5.3097   -1.0011    2.8676 H   0  0  0  0  0  0  0  0  0  0  0  0
  1  2  2  0
  2  3  1  0
 11  2  1  6
  3  9  1  0
  3  4  1  0
  4  5  1  0
  4 25  1  0
  4 26  1  0
  5 10  1  0
  5  6  1  0
  5 27  1  6
  6  7  1  0
  6 28  1  0
  6 29  1  0
  7  8  1  0
  8  9  1  0
  8 30  1  0
  8 31  1  0
  9 10  1  0
  9 32  1  1
 10 33  1  0
 10 34  1  0
 11 19  1  0
 11 24  1  0
 11 12  1  0
 12 13  1  0
 12 35  1  0
 12 36  1  0
 13 18  1  0
 13 14  1  0
 13 37  1  6
 14 15  1  0
 14 38  1  0
 14 39  1  0
 15 16  1  0
 15 24  1  0
 15 40  1  1
 16 17  1  0
 16 41  1  0
 16 42  1  0
 17 18  1  0
 17 19  1  0
 17 43  1  1
 18 44  1  0
 18 45  1  0
 19 20  1  0
 19 46  1  6
 20 21  1  0
 20 47  1  0
 21 23  1  0
 21 22  1  0
 21 48  1  0
 22 23  1  0
 22 49  1  0
 22 50  1  0
 23 51  1  0
 23 52  1  0
 24 53  1  0
 24 54  1  0
M  END
>  <i_m_ct_stereo_status>  (28) 
1

>  <s_m_source_file>  (28) 
/var/tmp/pbs.5076255.sched01/tmp44bw07az/09l6mph0o.sdf

>  <i_m_source_file_index>  (28) 
13

>  <i_lp_mmshare_version>  (28) 
48012

>  <i_f3d_flags>  (28) 
0

>  <s_epik_input>  (28) 
W0NIMl0xT1tDSDJdW0NASF0oW0NIMl0yKU4oW0NIMl1bQ0BASF0xMilDKD1PKVtDQF0zNFtDSDJdW0NASF01W0NIMl1bQ0BASF0oW0NIMl00KVtDSDJdW0NASF0oW0NIMl01KVtDQEhdM1tOSF1bQ0hdNltDSDJdW0NIMl02

>  <s_epik_cmdline>  (28) 
J2VwaWtfcHl0aG9uJywgJy1waHQnLCAnMi4wJywgJy1waCcsICc3LjAnLCAnLXRuJywgJzgnLCAnLW1hJywgJzIwMCcsICctaW1hZScsICc8aW5maWxlLm1hZT4nLCAnLW9tYWUnLCAnPG91dGZpbGUubWFlPic=

>  <r_epik_Ionization_Penalty>  (28) 
2.45656

>  <r_epik_Ionization_Penalty_Charging>  (28) 
0

>  <r_epik_Ionization_Penalty_Neutral>  (28) 
2.45656

>  <r_epik_State_Penalty>  (28) 
2.61844

>  <r_epik_Charging_Adjusted_Penalty>  (28) 
2.61844

>  <i_epik_Tot_Q>  (28) 
0

>  <i_epik_Tot_abs_Q>  (28) 
0

>  <s_lp_Force_Field>  (28) 
OPLS3e

>  <r_lp_Energy>  (28) 
25.0295

>  <b_lp_Chiralities_Consistent>  (28) 
1

>  <s_lp_Variant>  (28) 
7:0-2

>  <s_i_glide_gridfile>  (28) 
pfpi4k_grid

>  <i_i_glide_lignum>  (28) 
13

>  <i_i_glide_rotatable_bonds>  (28) 
4

>  <r_i_docking_score>  (28) 
-2.35082

>  <r_i_glide_ligand_efficiency>  (28) 
-0.0979509

>  <r_i_glide_ligand_efficiency_sa>  (28) 
-0.282539

>  <r_i_glide_ligand_efficiency_ln>  (28) 
-0.56266

>  <r_i_glide_gscore>  (28) 
-2.35082

>  <r_i_glide_lipo>  (28) 
-0.459117

>  <r_i_glide_hbond>  (28) 
0

>  <r_i_glide_metal>  (28) 
-0

>  <r_i_glide_rewards>  (28) 
-1.18046

>  <r_i_glide_evdw>  (28) 
-25.4019

>  <r_i_glide_ecoul>  (28) 
-0.760678

>  <r_i_glide_erotb>  (28) 
0.688913

>  <r_i_glide_esite>  (28) 
-0.0159638

>  <r_i_glide_emodel>  (28) 
-28.6926

>  <r_i_glide_energy>  (28) 
-26.1626

>  <r_i_glide_einternal>  (28) 
1.16855

>  <r_i_glide_intrahb_reward>  (28) 
-0

>  <i_i_glide_confnum>  (28) 
1

>  <i_i_glide_posenum>  (28) 
13

>  <r_i_glide_eff_state_penalty>  (28) 
0

>  <ligand_id>  (28) 
7

>  <original_smiles>  (28) 
O=C(N1CC2COCC1C2)C12CC3CC(CC(C3)C1NC1CC1)C2

>  <smiles>  (28) 
[H]N(C1([H])C([H])([H])C1([H])[H])C1([H])C2([H])C([H])([H])C3([H])C([H])([H])C([H])(C2([H])[H])C([H])([H])C1(C(=O)N1C([H])([H])C2([H])C([H])([H])OC([H])([H])C1([H])C2([H])[H])C3([H])[H]

$$$$
8:0:0
     RDKit          3D

 61 65  0  0  1  0  0  0  0  0999 V2000
    2.3261    2.7777    2.8808 C   0  0  0  0  0  0  0  0  0  0  0  0
    1.2585    1.9814    3.0513 C   0  0  0  0  0  0  0  0  0  0  0  0
    1.0602    0.7474    2.1903 C   0  0  0  0  0  0  0  0  0  0  0  0
    0.9616   -0.5441    3.0343 C   0  0  2  0  0  0  0  0  0  0  0  0
   -0.1613   -0.3821    4.0801 C   0  0  1  0  0  0  0  0  0  0  0  0
   -0.3217   -1.6824    4.8918 C   0  0  0  0  0  0  0  0  0  0  0  0
    0.9704   -2.0556    5.6291 C   0  0  0  0  0  0  0  0  0  0  0  0
    2.2182   -2.1123    4.7218 C   0  0  2  0  0  0  0  0  0  0  0  0
    2.3293   -0.9573    3.6799 C   0  0  1  0  0  0  0  0  0  0  0  0
    3.3834   -1.2935    2.5869 C   0  0  0  0  0  0  0  0  0  0  0  0
    4.5058   -2.2095    3.1021 C   0  0  0  0  0  0  0  0  0  0  0  0
    3.9918   -3.6136    3.5243 C   0  0  2  0  0  0  0  0  0  0  0  0
    4.9951   -4.1924    4.5662 C   0  0  0  0  0  0  0  0  0  0  0  0
    3.7463   -4.5402    2.2759 C   0  0  1  0  0  0  0  0  0  0  0  0
    4.8419   -5.5106    1.7922 C   0  0  0  0  0  0  0  0  0  0  0  0
    4.4313   -6.6570    0.8705 C   0  0  0  0  0  0  0  0  0  0  0  0
    6.0373   -5.3585    2.0338 O   0  0  0  0  0  0  0  0  0  0  0  0
    2.3861   -5.2133    2.5273 C   0  0  0  0  0  0  0  0  0  0  0  0
    1.5809   -4.1720    3.2872 C   0  0  0  0  0  0  0  0  0  0  0  0
    2.6024   -3.5163    4.2190 C   0  0  2  0  0  0  0  0  0  0  0  0
    0.0421    0.8776    4.9689 C   0  0  0  0  0  0  0  0  0  0  0  0
    0.1957    2.1598    4.1383 C   0  0  2  0  0  0  0  0  0  0  0  0
   -1.0363    2.5570    3.4888 N   0  0  0  0  0  0  0  0  0  0  0  0
   -1.3819    3.8683    3.6918 C   0  0  0  0  0  0  0  0  0  0  0  0
   -2.3240    4.5014    3.2056 O   0  0  0  0  0  0  0  0  0  0  0  0
   -0.5168    4.3792    4.5739 O   0  0  0  0  0  0  0  0  0  0  0  0
    0.3925    3.4281    4.9710 C   0  0  0  0  0  0  0  0  0  0  0  0
    1.1425    3.5911    6.0739 C   0  0  0  0  0  0  0  0  0  0  0  0
    2.4969    3.6563    3.4852 H   0  0  0  0  0  0  0  0  0  0  0  0
    3.0333    2.5709    2.0877 H   0  0  0  0  0  0  0  0  0  0  0  0
    0.1299    0.8737    1.6290 H   0  0  0  0  0  0  0  0  0  0  0  0
    1.8407    0.6638    1.4318 H   0  0  0  0  0  0  0  0  0  0  0  0
    0.6679   -1.3323    2.3579 H   0  0  0  0  0  0  0  0  0  0  0  0
   -1.0991   -0.2380    3.5549 H   0  0  0  0  0  0  0  0  0  0  0  0
   -1.1482   -1.5972    5.5952 H   0  0  0  0  0  0  0  0  0  0  0  0
   -0.5855   -2.4903    4.2114 H   0  0  0  0  0  0  0  0  0  0  0  0
    1.1340   -1.3498    6.4337 H   0  0  0  0  0  0  0  0  0  0  0  0
    0.8283   -3.0250    6.1202 H   0  0  0  0  0  0  0  0  0  0  0  0
    3.0392   -1.8981    5.4295 H   0  0  0  0  0  0  0  0  0  0  0  0
    2.6881   -0.1053    4.2149 H   0  0  0  0  0  0  0  0  0  0  0  0
    2.9235   -1.7024    1.7126 H   0  0  0  0  0  0  0  0  0  0  0  0
    3.8393   -0.3463    2.2538 H   0  0  0  0  0  0  0  0  0  0  0  0
    5.2682   -2.3220    2.3206 H   0  0  0  0  0  0  0  0  0  0  0  0
    5.0138   -1.7244    3.9181 H   0  0  0  0  0  0  0  0  0  0  0  0
    4.7485   -5.2252    4.8131 H   0  0  0  0  0  0  0  0  0  0  0  0
    4.9793   -3.6150    5.4885 H   0  0  0  0  0  0  0  0  0  0  0  0
    6.0278   -4.1689    4.2157 H   0  0  0  0  0  0  0  0  0  0  0  0
    3.5829   -3.8748    1.4232 H   0  0  0  0  0  0  0  0  0  0  0  0
    3.5953   -7.2346    1.2780 H   0  0  0  0  0  0  0  0  0  0  0  0
    5.2711   -7.3365    0.7408 H   0  0  0  0  0  0  0  0  0  0  0  0
    4.1521   -6.2635   -0.1050 H   0  0  0  0  0  0  0  0  0  0  0  0
    1.8806   -5.5005    1.6049 H   0  0  0  0  0  0  0  0  0  0  0  0
    2.5132   -6.1076    3.1449 H   0  0  0  0  0  0  0  0  0  0  0  0
    1.1879   -3.4371    2.5872 H   0  0  0  0  0  0  0  0  0  0  0  0
    0.7392   -4.6021    3.8277 H   0  0  0  0  0  0  0  0  0  0  0  0
    2.6293   -4.1683    5.0929 H   0  0  0  0  0  0  0  0  0  0  0  0
   -0.7641    0.9799    5.6840 H   0  0  0  0  0  0  0  0  0  0  0  0
    0.9531    0.7527    5.5612 H   0  0  0  0  0  0  0  0  0  0  0  0
   -1.5241    2.0143    2.7845 H   0  0  0  0  0  0  0  0  0  0  0  0
    1.7825    2.8157    6.4574 H   0  0  0  0  0  0  0  0  0  0  0  0
    1.1196    4.5491    6.5885 H   0  0  0  0  0  0  0  0  0  0  0  0
  1  2  2  0
  1 29  1  0
  1 30  1  0
  2 22  1  0
  2  3  1  0
  3  4  1  0
  3 31  1  0
  3 32  1  0
  4  9  1  0
  4  5  1  0
  4 33  1  6
  5  6  1  0
  5 21  1  0
  5 34  1  6
  6  7  1  0
  6 35  1  0
  6 36  1  0
  7  8  1  0
  7 37  1  0
  7 38  1  0
  8 20  1  0
  8  9  1  0
  8 39  1  1
  9 10  1  0
  9 40  1  1
 10 11  1  0
 10 41  1  0
 10 42  1  0
 11 12  1  0
 11 43  1  0
 11 44  1  0
 12 20  1  0
 12 13  1  1
 12 14  1  0
 13 45  1  0
 13 46  1  0
 13 47  1  0
 14 15  1  0
 14 18  1  0
 14 48  1  6
 15 16  1  0
 15 17  2  0
 16 49  1  0
 16 50  1  0
 16 51  1  0
 18 19  1  0
 18 52  1  0
 18 53  1  0
 19 20  1  0
 19 54  1  0
 19 55  1  0
 20 56  1  1
 21 22  1  0
 21 57  1  0
 21 58  1  0
 22 27  1  0
 22 23  1  6
 23 24  1  0
 23 59  1  0
 24 25  2  0
 24 26  1  0
 26 27  1  0
 27 28  2  0
 28 60  1  0
 28 61  1  0
M  END
>  <i_m_ct_stereo_status>  (29) 
1

>  <s_m_source_file>  (29) 
/var/tmp/pbs.5076255.sched01/tmp44bw07az/09l6mph0o.sdf

>  <i_m_source_file_index>  (29) 
14

>  <i_lp_mmshare_version>  (29) 
48012

>  <i_f3d_flags>  (29) 
0

>  <s_epik_input>  (29) 
W0NIMl09QzFPQyg9TylbTkhdW0NAQF0xMkMoPVtDSDJdKVtDSDJdW0NAQEhdM1tDQEhdKFtDSDJdMilbQ0gyXVtDSDJdW0NAQEhdNFtDQEhdM1tDSDJdW0NIMl1bQ0BAXTUoW0NIM10pW0NAQEhdNFtDSDJdW0NIMl1bQ0BASF01Qyg9TylbQ0gzXQ==

>  <s_epik_cmdline>  (29) 
J2VwaWtfcHl0aG9uJywgJy1waHQnLCAnMi4wJywgJy1waCcsICc3LjAnLCAnLXRuJywgJzgnLCAnLW1hJywgJzIwMCcsICctaW1hZScsICc8aW5maWxlLm1hZT4nLCAnLW9tYWUnLCAnPG91dGZpbGUubWFlPic=

>  <r_lp_tautomer_probability>  (29) 
1

>  <r_epik_Ionization_Penalty>  (29) 
1.52082e-06

>  <r_epik_Ionization_Penalty_Charging>  (29) 
0

>  <r_epik_Ionization_Penalty_Neutral>  (29) 
1.52082e-06

>  <r_epik_State_Penalty>  (29) 
-0

>  <r_epik_Charging_Adjusted_Penalty>  (29) 
0

>  <i_epik_Tot_Q>  (29) 
0

>  <i_epik_Tot_abs_Q>  (29) 
0

>  <s_lp_Force_Field>  (29) 
OPLS3e

>  <r_lp_Energy>  (29) 
38.6727

>  <b_lp_Chiralities_Consistent>  (29) 
1

>  <s_lp_Variant>  (29) 
8:0-1

>  <s_i_glide_gridfile>  (29) 
pfpi4k_grid

>  <i_i_glide_lignum>  (29) 
14

>  <i_i_glide_rotatable_bonds>  (29) 
1

>  <r_i_docking_score>  (29) 
-3.0905

>  <r_i_glide_ligand_efficiency>  (29) 
-0.110375

>  <r_i_glide_ligand_efficiency_sa>  (29) 
-0.335163

>  <r_i_glide_ligand_efficiency_ln>  (29) 
-0.713377

>  <r_i_glide_gscore>  (29) 
-3.0905

>  <r_i_glide_lipo>  (29) 
-0.147724

>  <r_i_glide_hbond>  (29) 
-0.16

>  <r_i_glide_metal>  (29) 
-0

>  <r_i_glide_rewards>  (29) 
-0.831674

>  <r_i_glide_evdw>  (29) 
-25.7573

>  <r_i_glide_ecoul>  (29) 
-3.51803

>  <r_i_glide_erotb>  (29) 
0

>  <r_i_glide_esite>  (29) 
-0.135528

>  <r_i_glide_emodel>  (29) 
-33.8249

>  <r_i_glide_energy>  (29) 
-29.2754

>  <r_i_glide_einternal>  (29) 
1.53618

>  <r_i_glide_intrahb_reward>  (29) 
-0

>  <i_i_glide_confnum>  (29) 
1

>  <i_i_glide_posenum>  (29) 
35

>  <r_i_glide_eff_state_penalty>  (29) 
0

>  <ligand_id>  (29) 
8

>  <original_smiles>  (29) 
C=C1CC2C(CCC3C2CCC2(C)C(C(C)=O)CCC32)CC12NC(=O)OC2=C

>  <smiles>  (29) 
[H]C([H])=C1OC(=O)N([H])C12C(=C([H])[H])C([H])([H])C1([H])C([H])(C2([H])[H])C([H])([H])C([H])([H])C2([H])C1([H])C([H])([H])C([H])([H])C1(C([H])([H])[H])C([H])(C(=O)C([H])([H])[H])C([H])([H])C([H])([H])C21[H]

$$$$
8:0:1
     RDKit          3D

 61 65  0  0  1  0  0  0  0  0999 V2000
    2.3729    2.3056    2.7201 C   0  0  0  0  0  0  0  0  0  0  0  0
    1.3420    1.5056    3.0249 C   0  0  0  0  0  0  0  0  0  0  0  0
    1.0237    0.2824    2.1745 C   0  0  0  0  0  0  0  0  0  0  0  0
    1.0577   -1.0167    3.0058 C   0  0  2  0  0  0  0  0  0  0  0  0
    0.0904   -0.8821    4.2053 C   0  0  1  0  0  0  0  0  0  0  0  0
    0.0543   -2.1930    5.0002 C   0  0  0  0  0  0  0  0  0  0  0  0
    1.4346   -2.5793    5.5402 C   0  0  0  0  0  0  0  0  0  0  0  0
    2.5485   -2.6014    4.4676 C   0  0  2  0  0  0  0  0  0  0  0  0
    2.4919   -1.4391    3.4316 C   0  0  1  0  0  0  0  0  0  0  0  0
    3.3884   -1.7374    2.2050 C   0  0  0  0  0  0  0  0  0  0  0  0
    4.5699   -2.6649    2.5310 C   0  0  0  0  0  0  0  0  0  0  0  0
    4.1247   -4.0753    2.9929 C   0  0  2  0  0  0  0  0  0  0  0  0
    5.2635   -4.7002    3.8350 C   0  0  0  0  0  0  0  0  0  0  0  0
    3.6863   -4.9588    1.7703 C   0  0  1  0  0  0  0  0  0  0  0  0
    4.7456   -5.9038    1.1574 C   0  0  0  0  0  0  0  0  0  0  0  0
    5.9875   -5.2737    0.5430 C   0  0  0  0  0  0  0  0  0  0  0  0
    4.5782   -7.1169    1.1228 O   0  0  0  0  0  0  0  0  0  0  0  0
    2.3992   -5.6721    2.2080 C   0  0  0  0  0  0  0  0  0  0  0  0
    1.7119   -4.6505    3.1056 C   0  0  0  0  0  0  0  0  0  0  0  0
    2.8452   -4.0087    3.8855 C   0  0  2  0  0  0  0  0  0  0  0  0
    0.4188    0.3584    5.0736 C   0  0  0  0  0  0  0  0  0  0  0  0
    0.4413    1.6714    4.2452 C   0  0  2  0  0  0  0  0  0  0  0  0
   -0.8567    2.0663    3.7780 N   0  0  0  0  0  0  0  0  0  0  0  0
   -1.1849    3.3841    4.0571 C   0  0  0  0  0  0  0  0  0  0  0  0
   -2.1782    4.0068    3.6995 O   0  0  0  0  0  0  0  0  0  0  0  0
   -0.2107    3.8693    4.8321 O   0  0  0  0  0  0  0  0  0  0  0  0
    0.7579    2.9225    5.0631 C   0  0  0  0  0  0  0  0  0  0  0  0
    1.6510    3.0698    6.0489 C   0  0  0  0  0  0  0  0  0  0  0  0
    2.6272    3.1797    3.3073 H   0  0  0  0  0  0  0  0  0  0  0  0
    2.9785    2.1059    1.8480 H   0  0  0  0  0  0  0  0  0  0  0  0
    0.0302    0.4213    1.7579 H   0  0  0  0  0  0  0  0  0  0  0  0
    1.6914    0.2226    1.3148 H   0  0  0  0  0  0  0  0  0  0  0  0
    0.6419   -1.8010    2.3651 H   0  0  0  0  0  0  0  0  0  0  0  0
   -0.9124   -0.7317    3.8168 H   0  0  0  0  0  0  0  0  0  0  0  0
   -0.6650   -2.1279    5.8202 H   0  0  0  0  0  0  0  0  0  0  0  0
   -0.3099   -2.9946    4.3564 H   0  0  0  0  0  0  0  0  0  0  0  0
    1.7130   -1.8775    6.3303 H   0  0  0  0  0  0  0  0  0  0  0  0
    1.3697   -3.5527    6.0242 H   0  0  0  0  0  0  0  0  0  0  0  0
    3.4474   -2.4149    5.0423 H   0  0  0  0  0  0  0  0  0  0  0  0
    2.9359   -0.5755    3.9397 H   0  0  0  0  0  0  0  0  0  0  0  0
    2.7990   -2.1506    1.3799 H   0  0  0  0  0  0  0  0  0  0  0  0
    3.7881   -0.8022    1.8260 H   0  0  0  0  0  0  0  0  0  0  0  0
    5.2083   -2.7449    1.6555 H   0  0  0  0  0  0  0  0  0  0  0  0
    5.1972   -2.1877    3.2940 H   0  0  0  0  0  0  0  0  0  0  0  0
    5.0450   -5.7306    4.1223 H   0  0  0  0  0  0  0  0  0  0  0  0
    5.4314   -4.1274    4.7505 H   0  0  0  0  0  0  0  0  0  0  0  0
    6.2230   -4.7046    3.3206 H   0  0  0  0  0  0  0  0  0  0  0  0
    3.3999   -4.2868    0.9675 H   0  0  0  0  0  0  0  0  0  0  0  0
    5.7107   -4.5209   -0.1900 H   0  0  0  0  0  0  0  0  0  0  0  0
    6.5922   -6.0421    0.0662 H   0  0  0  0  0  0  0  0  0  0  0  0
    6.6144   -4.7994    1.2900 H   0  0  0  0  0  0  0  0  0  0  0  0
    1.7747   -5.9573    1.3590 H   0  0  0  0  0  0  0  0  0  0  0  0
    2.6201   -6.5734    2.7817 H   0  0  0  0  0  0  0  0  0  0  0  0
    1.2226   -3.9092    2.4808 H   0  0  0  0  0  0  0  0  0  0  0  0
    0.9558   -5.1006    3.7534 H   0  0  0  0  0  0  0  0  0  0  0  0
    3.0177   -4.6705    4.7338 H   0  0  0  0  0  0  0  0  0  0  0  0
   -0.2821    0.4499    5.9014 H   0  0  0  0  0  0  0  0  0  0  0  0
    1.3991    0.2358    5.5220 H   0  0  0  0  0  0  0  0  0  0  0  0
   -1.4651    1.5386    3.1675 H   0  0  0  0  0  0  0  0  0  0  0  0
    2.3439    2.2823    6.3341 H   0  0  0  0  0  0  0  0  0  0  0  0
    1.6989    4.0080    6.5853 H   0  0  0  0  0  0  0  0  0  0  0  0
  1  2  2  0
  1 29  1  0
  1 30  1  0
  2 22  1  0
  2  3  1  0
  3  4  1  0
  3 31  1  0
  3 32  1  0
  4  9  1  0
  4  5  1  0
  4 33  1  6
  5  6  1  0
  5 21  1  0
  5 34  1  6
  6  7  1  0
  6 35  1  0
  6 36  1  0
  7  8  1  0
  7 37  1  0
  7 38  1  0
  8 20  1  0
  8  9  1  0
  8 39  1  1
  9 10  1  0
  9 40  1  1
 10 11  1  0
 10 41  1  0
 10 42  1  0
 11 12  1  0
 11 43  1  0
 11 44  1  0
 12 20  1  0
 12 13  1  1
 12 14  1  0
 13 45  1  0
 13 46  1  0
 13 47  1  0
 14 15  1  0
 14 18  1  0
 14 48  1  6
 15 16  1  0
 15 17  2  0
 16 49  1  0
 16 50  1  0
 16 51  1  0
 18 19  1  0
 18 52  1  0
 18 53  1  0
 19 20  1  0
 19 54  1  0
 19 55  1  0
 20 56  1  1
 21 22  1  0
 21 57  1  0
 21 58  1  0
 22 27  1  0
 22 23  1  6
 23 24  1  0
 23 59  1  0
 24 25  2  0
 24 26  1  0
 26 27  1  0
 27 28  2  0
 28 60  1  0
 28 61  1  0
M  END
>  <i_m_ct_stereo_status>  (30) 
1

>  <s_m_source_file>  (30) 
/var/tmp/pbs.5076255.sched01/tmp44bw07az/09l6mph0o.sdf

>  <i_m_source_file_index>  (30) 
14

>  <i_lp_mmshare_version>  (30) 
48012

>  <i_f3d_flags>  (30) 
0

>  <s_epik_input>  (30) 
W0NIMl09QzFPQyg9TylbTkhdW0NAQF0xMkMoPVtDSDJdKVtDSDJdW0NAQEhdM1tDQEhdKFtDSDJdMilbQ0gyXVtDSDJdW0NAQEhdNFtDQEhdM1tDSDJdW0NIMl1bQ0BAXTUoW0NIM10pW0NAQEhdNFtDSDJdW0NIMl1bQ0BASF01Qyg9TylbQ0gzXQ==

>  <s_epik_cmdline>  (30) 
J2VwaWtfcHl0aG9uJywgJy1waHQnLCAnMi4wJywgJy1waCcsICc3LjAnLCAnLXRuJywgJzgnLCAnLW1hJywgJzIwMCcsICctaW1hZScsICc8aW5maWxlLm1hZT4nLCAnLW9tYWUnLCAnPG91dGZpbGUubWFlPic=

>  <r_lp_tautomer_probability>  (30) 
1

>  <r_epik_Ionization_Penalty>  (30) 
1.52082e-06

>  <r_epik_Ionization_Penalty_Charging>  (30) 
0

>  <r_epik_Ionization_Penalty_Neutral>  (30) 
1.52082e-06

>  <r_epik_State_Penalty>  (30) 
-0

>  <r_epik_Charging_Adjusted_Penalty>  (30) 
0

>  <i_epik_Tot_Q>  (30) 
0

>  <i_epik_Tot_abs_Q>  (30) 
0

>  <s_lp_Force_Field>  (30) 
OPLS3e

>  <r_lp_Energy>  (30) 
38.6727

>  <b_lp_Chiralities_Consistent>  (30) 
1

>  <s_lp_Variant>  (30) 
8:0-1

>  <s_i_glide_gridfile>  (30) 
pfpi4k_grid

>  <i_i_glide_lignum>  (30) 
14

>  <i_i_glide_rotatable_bonds>  (30) 
1

>  <r_i_docking_score>  (30) 
-2.87546

>  <r_i_glide_ligand_efficiency>  (30) 
-0.102695

>  <r_i_glide_ligand_efficiency_sa>  (30) 
-0.311843

>  <r_i_glide_ligand_efficiency_ln>  (30) 
-0.663741

>  <r_i_glide_gscore>  (30) 
-2.87546

>  <r_i_glide_lipo>  (30) 
-0.163683

>  <r_i_glide_hbond>  (30) 
-0.0369302

>  <r_i_glide_metal>  (30) 
-0

>  <r_i_glide_rewards>  (30) 
-0.894406

>  <r_i_glide_evdw>  (30) 
-25.1377

>  <r_i_glide_ecoul>  (30) 
-2.92459

>  <r_i_glide_erotb>  (30) 
0

>  <r_i_glide_esite>  (30) 
-0.0848703

>  <r_i_glide_emodel>  (30) 
-32.9526

>  <r_i_glide_energy>  (30) 
-28.0623

>  <r_i_glide_einternal>  (30) 
0.0330148

>  <r_i_glide_intrahb_reward>  (30) 
-0

>  <i_i_glide_confnum>  (30) 
1

>  <i_i_glide_posenum>  (30) 
8

>  <r_i_glide_eff_state_penalty>  (30) 
0

>  <ligand_id>  (30) 
8

>  <original_smiles>  (30) 
C=C1CC2C(CCC3C2CCC2(C)C(C(C)=O)CCC32)CC12NC(=O)OC2=C

>  <smiles>  (30) 
[H]C([H])=C1OC(=O)N([H])C12C(=C([H])[H])C([H])([H])C1([H])C([H])(C2([H])[H])C([H])([H])C([H])([H])C2([H])C1([H])C([H])([H])C([H])([H])C1(C([H])([H])[H])C([H])(C(=O)C([H])([H])[H])C([H])([H])C([H])([H])C21[H]

$$$$
8:0:2
     RDKit          3D

 61 65  0  0  1  0  0  0  0  0999 V2000
    2.0152    2.0576    2.2645 C   0  0  0  0  0  0  0  0  0  0  0  0
    0.9921    1.4872    2.9241 C   0  0  0  0  0  0  0  0  0  0  0  0
    0.4442    0.1411    2.4892 C   0  0  0  0  0  0  0  0  0  0  0  0
    0.5123   -0.9005    3.6306 C   0  0  2  0  0  0  0  0  0  0  0  0
   -0.2341   -0.3586    4.8688 C   0  0  1  0  0  0  0  0  0  0  0  0
   -0.2408   -1.4172    5.9795 C   0  0  0  0  0  0  0  0  0  0  0  0
    1.1794   -1.8055    6.4100 C   0  0  0  0  0  0  0  0  0  0  0  0
    2.1069   -2.2242    5.2461 C   0  0  2  0  0  0  0  0  0  0  0  0
    1.9630   -1.3693    3.9505 C   0  0  1  0  0  0  0  0  0  0  0  0
    2.6231   -2.0646    2.7319 C   0  0  0  0  0  0  0  0  0  0  0  0
    3.7670   -3.0125    3.1220 C   0  0  0  0  0  0  0  0  0  0  0  0
    3.2988   -4.1977    4.0074 C   0  0  2  0  0  0  0  0  0  0  0  0
    4.5299   -4.7173    4.8010 C   0  0  0  0  0  0  0  0  0  0  0  0
    2.5993   -5.3057    3.1463 C   0  0  1  0  0  0  0  0  0  0  0  0
    3.4706   -6.4870    2.6795 C   0  0  0  0  0  0  0  0  0  0  0  0
    4.5013   -6.2207    1.5935 C   0  0  0  0  0  0  0  0  0  0  0  0
    3.3318   -7.6193    3.1469 O   0  0  0  0  0  0  0  0  0  0  0  0
    1.3547   -5.7303    3.9373 C   0  0  0  0  0  0  0  0  0  0  0  0
    0.8968   -4.4425    4.6034 C   0  0  0  0  0  0  0  0  0  0  0  0
    2.1969   -3.7531    5.0228 C   0  0  2  0  0  0  0  0  0  0  0  0
    0.3249    1.0209    5.3086 C   0  0  0  0  0  0  0  0  0  0  0  0
    0.3076    2.0657    4.1636 C   0  0  2  0  0  0  0  0  0  0  0  0
   -1.0285    2.4705    3.7989 N   0  0  0  0  0  0  0  0  0  0  0  0
   -1.1951    3.8365    3.7503 C   0  0  0  0  0  0  0  0  0  0  0  0
   -2.1865    4.4720    3.4001 O   0  0  0  0  0  0  0  0  0  0  0  0
   -0.0612    4.3875    4.2061 O   0  0  0  0  0  0  0  0  0  0  0  0
    0.8403    3.4293    4.5735 C   0  0  0  0  0  0  0  0  0  0  0  0
    1.9003    3.7342    5.3352 C   0  0  0  0  0  0  0  0  0  0  0  0
    2.4179    3.0183    2.5538 H   0  0  0  0  0  0  0  0  0  0  0  0
    2.4406    1.5764    1.3930 H   0  0  0  0  0  0  0  0  0  0  0  0
   -0.5953    0.2837    2.1972 H   0  0  0  0  0  0  0  0  0  0  0  0
    0.9533   -0.2178    1.5958 H   0  0  0  0  0  0  0  0  0  0  0  0
   -0.0371   -1.7741    3.2893 H   0  0  0  0  0  0  0  0  0  0  0  0
   -1.2738   -0.2049    4.5906 H   0  0  0  0  0  0  0  0  0  0  0  0
   -0.7955   -1.0571    6.8447 H   0  0  0  0  0  0  0  0  0  0  0  0
   -0.7646   -2.3079    5.6341 H   0  0  0  0  0  0  0  0  0  0  0  0
    1.6297   -0.9608    6.9317 H   0  0  0  0  0  0  0  0  0  0  0  0
    1.1332   -2.6034    7.1536 H   0  0  0  0  0  0  0  0  0  0  0  0
    3.1047   -1.9912    5.6191 H   0  0  0  0  0  0  0  0  0  0  0  0
    2.5432   -0.4700    4.1374 H   0  0  0  0  0  0  0  0  0  0  0  0
    1.8847   -2.6072    2.1469 H   0  0  0  0  0  0  0  0  0  0  0  0
    3.0177   -1.3041    2.0581 H   0  0  0  0  0  0  0  0  0  0  0  0
    4.2531   -3.3873    2.2221 H   0  0  0  0  0  0  0  0  0  0  0  0
    4.5362   -2.4332    3.6347 H   0  0  0  0  0  0  0  0  0  0  0  0
    4.2851   -5.6011    5.3941 H   0  0  0  0  0  0  0  0  0  0  0  0
    4.8974   -3.9528    5.4908 H   0  0  0  0  0  0  0  0  0  0  0  0
    5.3669   -4.9752    4.1480 H   0  0  0  0  0  0  0  0  0  0  0  0
    2.2344   -4.8318    2.2344 H   0  0  0  0  0  0  0  0  0  0  0  0
    4.0314   -5.7547    0.7282 H   0  0  0  0  0  0  0  0  0  0  0  0
    4.9669   -7.1540    1.2743 H   0  0  0  0  0  0  0  0  0  0  0  0
    5.2813   -5.5586    1.9638 H   0  0  0  0  0  0  0  0  0  0  0  0
    0.5811   -6.1526    3.2950 H   0  0  0  0  0  0  0  0  0  0  0  0
    1.5999   -6.4724    4.7022 H   0  0  0  0  0  0  0  0  0  0  0  0
    0.3599   -3.8366    3.8776 H   0  0  0  0  0  0  0  0  0  0  0  0
    0.2328   -4.6239    5.4489 H   0  0  0  0  0  0  0  0  0  0  0  0
    2.4552   -4.1988    5.9854 H   0  0  0  0  0  0  0  0  0  0  0  0
   -0.2175    1.3922    6.1737 H   0  0  0  0  0  0  0  0  0  0  0  0
    1.3534    0.8974    5.6381 H   0  0  0  0  0  0  0  0  0  0  0  0
   -1.7422    1.8632    3.4256 H   0  0  0  0  0  0  0  0  0  0  0  0
    2.5627    2.9742    5.7276 H   0  0  0  0  0  0  0  0  0  0  0  0
    2.0971    4.7692    5.5816 H   0  0  0  0  0  0  0  0  0  0  0  0
  1  2  2  0
  1 29  1  0
  1 30  1  0
  2 22  1  0
  2  3  1  0
  3  4  1  0
  3 31  1  0
  3 32  1  0
  4  9  1  0
  4  5  1  0
  4 33  1  6
  5  6  1  0
  5 21  1  0
  5 34  1  6
  6  7  1  0
  6 35  1  0
  6 36  1  0
  7  8  1  0
  7 37  1  0
  7 38  1  0
  8 20  1  0
  8  9  1  0
  8 39  1  1
  9 10  1  0
  9 40  1  1
 10 11  1  0
 10 41  1  0
 10 42  1  0
 11 12  1  0
 11 43  1  0
 11 44  1  0
 12 20  1  0
 12 13  1  1
 12 14  1  0
 13 45  1  0
 13 46  1  0
 13 47  1  0
 14 15  1  0
 14 18  1  0
 14 48  1  6
 15 16  1  0
 15 17  2  0
 16 49  1  0
 16 50  1  0
 16 51  1  0
 18 19  1  0
 18 52  1  0
 18 53  1  0
 19 20  1  0
 19 54  1  0
 19 55  1  0
 20 56  1  1
 21 22  1  0
 21 57  1  0
 21 58  1  0
 22 27  1  0
 22 23  1  6
 23 24  1  0
 23 59  1  0
 24 25  2  0
 24 26  1  0
 26 27  1  0
 27 28  2  0
 28 60  1  0
 28 61  1  0
M  END
>  <i_m_ct_stereo_status>  (31) 
1

>  <s_m_source_file>  (31) 
/var/tmp/pbs.5076255.sched01/tmp44bw07az/09l6mph0o.sdf

>  <i_m_source_file_index>  (31) 
14

>  <i_lp_mmshare_version>  (31) 
48012

>  <i_f3d_flags>  (31) 
0

>  <s_epik_input>  (31) 
W0NIMl09QzFPQyg9TylbTkhdW0NAQF0xMkMoPVtDSDJdKVtDSDJdW0NAQEhdM1tDQEhdKFtDSDJdMilbQ0gyXVtDSDJdW0NAQEhdNFtDQEhdM1tDSDJdW0NIMl1bQ0BAXTUoW0NIM10pW0NAQEhdNFtDSDJdW0NIMl1bQ0BASF01Qyg9TylbQ0gzXQ==

>  <s_epik_cmdline>  (31) 
J2VwaWtfcHl0aG9uJywgJy1waHQnLCAnMi4wJywgJy1waCcsICc3LjAnLCAnLXRuJywgJzgnLCAnLW1hJywgJzIwMCcsICctaW1hZScsICc8aW5maWxlLm1hZT4nLCAnLW9tYWUnLCAnPG91dGZpbGUubWFlPic=

>  <r_lp_tautomer_probability>  (31) 
1

>  <r_epik_Ionization_Penalty>  (31) 
1.52082e-06

>  <r_epik_Ionization_Penalty_Charging>  (31) 
0

>  <r_epik_Ionization_Penalty_Neutral>  (31) 
1.52082e-06

>  <r_epik_State_Penalty>  (31) 
-0

>  <r_epik_Charging_Adjusted_Penalty>  (31) 
0

>  <i_epik_Tot_Q>  (31) 
0

>  <i_epik_Tot_abs_Q>  (31) 
0

>  <s_lp_Force_Field>  (31) 
OPLS3e

>  <r_lp_Energy>  (31) 
38.6727

>  <b_lp_Chiralities_Consistent>  (31) 
1

>  <s_lp_Variant>  (31) 
8:0-1

>  <s_i_glide_gridfile>  (31) 
pfpi4k_grid

>  <i_i_glide_lignum>  (31) 
14

>  <i_i_glide_rotatable_bonds>  (31) 
1

>  <r_i_docking_score>  (31) 
-2.77626

>  <r_i_glide_ligand_efficiency>  (31) 
-0.0991522

>  <r_i_glide_ligand_efficiency_sa>  (31) 
-0.301084

>  <r_i_glide_ligand_efficiency_ln>  (31) 
-0.640843

>  <r_i_glide_gscore>  (31) 
-2.77626

>  <r_i_glide_lipo>  (31) 
-0.0530876

>  <r_i_glide_hbond>  (31) 
-0.16

>  <r_i_glide_metal>  (31) 
-0

>  <r_i_glide_rewards>  (31) 
-0.794156

>  <r_i_glide_evdw>  (31) 
-22.9591

>  <r_i_glide_ecoul>  (31) 
-3.32101

>  <r_i_glide_erotb>  (31) 
0

>  <r_i_glide_esite>  (31) 
-0.122911

>  <r_i_glide_emodel>  (31) 
-31.1659

>  <r_i_glide_energy>  (31) 
-26.2801

>  <r_i_glide_einternal>  (31) 
0.0276803

>  <r_i_glide_intrahb_reward>  (31) 
-0

>  <i_i_glide_confnum>  (31) 
2

>  <i_i_glide_posenum>  (31) 
2

>  <r_i_glide_eff_state_penalty>  (31) 
0

>  <ligand_id>  (31) 
8

>  <original_smiles>  (31) 
C=C1CC2C(CCC3C2CCC2(C)C(C(C)=O)CCC32)CC12NC(=O)OC2=C

>  <smiles>  (31) 
[H]C([H])=C1OC(=O)N([H])C12C(=C([H])[H])C([H])([H])C1([H])C([H])(C2([H])[H])C([H])([H])C([H])([H])C2([H])C1([H])C([H])([H])C([H])([H])C1(C([H])([H])[H])C([H])(C(=O)C([H])([H])[H])C([H])([H])C([H])([H])C21[H]

$$$$
9:0:0
     RDKit          3D

 67 73  0  0  1  0  0  0  0  0999 V2000
    7.7236   -3.1809   -0.6917 C   0  0  0  0  0  0  0  0  0  0  0  0
    6.3302   -2.8930   -0.0921 C   0  0  0  0  0  0  0  0  0  0  0  0
    6.2623   -1.3698   -0.1308 C   0  0  0  0  0  0  0  0  0  0  0  0
    5.1419   -3.7228   -0.6737 C   0  0  1  0  0  0  0  0  0  0  0  0
    5.4633   -4.7603    0.4084 C   0  0  2  0  0  0  0  0  0  0  0  0
    4.4182   -5.7902    0.8274 C   0  0  0  0  0  0  0  0  0  0  0  0
    3.5695   -5.4860    2.0423 C   0  0  2  0  0  0  0  0  0  0  0  0
    3.9308   -6.1257    3.3813 C   0  0  0  0  0  0  0  0  0  0  0  0
    2.7761   -6.6427    2.5396 C   0  0  2  0  0  0  0  0  0  0  0  0
    2.6018   -8.1263    2.3290 C   0  0  1  0  0  0  0  0  0  0  0  0
    3.6220   -8.9927    2.7571 O   0  0  0  0  0  0  0  0  0  0  0  0
    1.2840   -8.0527    3.1506 C   0  0  0  0  0  0  0  0  0  0  0  0
    0.0868   -8.8364    2.6382 C   0  0  0  0  0  0  0  0  0  0  0  0
    1.4342   -8.3717    4.6445 C   0  0  0  0  0  0  0  0  0  0  0  0
    1.3356   -6.5421    2.8770 C   0  0  1  0  0  0  0  0  0  0  0  0
    1.0743   -5.3725    3.7862 C   0  0  0  0  0  0  0  0  0  0  0  0
    1.7139   -4.0709    3.2235 C   0  0  0  0  0  0  0  0  0  0  0  0
    2.7291   -4.1796    2.0016 C   0  0  1  0  0  0  0  0  0  0  0  0
    3.5367   -2.8432    1.7440 C   0  0  2  0  0  0  0  0  0  0  0  0
    2.8970   -1.6069    2.4302 C   0  0  0  0  0  0  0  0  0  0  0  0
    3.3984   -2.3958    0.3748 O   0  0  0  0  0  0  0  0  0  0  0  0
    3.6804   -3.2182   -0.7357 C   0  0  1  0  0  0  0  0  0  0  0  0
    3.4098   -2.4161   -1.9661 N   0  0  0  0  0  0  0  0  0  0  0  0
    3.7407   -1.1074   -2.2408 C   0  0  0  0  0  0  0  0  0  0  0  0
    3.3140   -0.8392   -3.4878 C   0  0  0  0  0  0  0  0  0  0  0  0
    2.6549   -1.9418   -3.9240 N   0  0  0  0  0  0  0  0  0  0  0  0
    2.7075   -2.8986   -2.9945 C   0  0  0  0  0  0  0  0  0  0  0  0
    5.0300   -2.8548    2.1969 C   0  0  1  0  0  0  0  0  0  0  0  0
    5.1776   -3.3465    3.5110 O   0  0  0  0  0  0  0  0  0  0  0  0
    5.9756   -3.5870    1.2487 C   0  0  2  0  0  0  0  0  0  0  0  0
    7.7981   -2.8299   -1.7215 H   0  0  0  0  0  0  0  0  0  0  0  0
    7.9811   -4.2329   -0.7111 H   0  0  0  0  0  0  0  0  0  0  0  0
    8.5094   -2.6818   -0.1287 H   0  0  0  0  0  0  0  0  0  0  0  0
    5.3292   -0.9860    0.2720 H   0  0  0  0  0  0  0  0  0  0  0  0
    6.3321   -1.0500   -1.1656 H   0  0  0  0  0  0  0  0  0  0  0  0
    7.0529   -0.8857    0.4516 H   0  0  0  0  0  0  0  0  0  0  0  0
    5.4485   -4.1549   -1.6266 H   0  0  0  0  0  0  0  0  0  0  0  0
    6.3359   -5.3167    0.0758 H   0  0  0  0  0  0  0  0  0  0  0  0
    3.7397   -6.0102    0.0084 H   0  0  0  0  0  0  0  0  0  0  0  0
    4.9235   -6.7412    1.0212 H   0  0  0  0  0  0  0  0  0  0  0  0
    4.8539   -6.7104    3.4097 H   0  0  0  0  0  0  0  0  0  0  0  0
    3.6838   -5.6087    4.3094 H   0  0  0  0  0  0  0  0  0  0  0  0
    2.3646   -8.3469    1.2853 H   0  0  0  0  0  0  0  0  0  0  0  0
    3.3689   -9.8431    2.4310 H   0  0  0  0  0  0  0  0  0  0  0  0
   -0.8278   -8.5692    3.1596 H   0  0  0  0  0  0  0  0  0  0  0  0
    0.2363   -9.9061    2.7487 H   0  0  0  0  0  0  0  0  0  0  0  0
   -0.0777   -8.6379    1.5888 H   0  0  0  0  0  0  0  0  0  0  0  0
    0.5614   -8.0327    5.2075 H   0  0  0  0  0  0  0  0  0  0  0  0
    2.3006   -7.8491    5.0594 H   0  0  0  0  0  0  0  0  0  0  0  0
    1.5815   -9.4405    4.8256 H   0  0  0  0  0  0  0  0  0  0  0  0
    0.8055   -6.4047    1.9370 H   0  0  0  0  0  0  0  0  0  0  0  0
    0.0048   -5.2488    3.9314 H   0  0  0  0  0  0  0  0  0  0  0  0
    1.4661   -5.5689    4.7876 H   0  0  0  0  0  0  0  0  0  0  0  0
    0.8881   -3.4472    2.8889 H   0  0  0  0  0  0  0  0  0  0  0  0
    2.1423   -3.5443    4.0742 H   0  0  0  0  0  0  0  0  0  0  0  0
    2.0686   -4.3011    1.1462 H   0  0  0  0  0  0  0  0  0  0  0  0
    2.9846   -1.6336    3.5181 H   0  0  0  0  0  0  0  0  0  0  0  0
    1.8458   -1.4863    2.1672 H   0  0  0  0  0  0  0  0  0  0  0  0
    3.4007   -0.6857    2.1245 H   0  0  0  0  0  0  0  0  0  0  0  0
    2.9771   -4.0523   -0.7673 H   0  0  0  0  0  0  0  0  0  0  0  0
    4.2253   -0.4354   -1.5364 H   0  0  0  0  0  0  0  0  0  0  0  0
    3.3843    0.0914   -4.0427 H   0  0  0  0  0  0  0  0  0  0  0  0
    2.2165   -3.8531   -3.0605 H   0  0  0  0  0  0  0  0  0  0  0  0
    5.3812   -1.8273    2.2887 H   0  0  0  0  0  0  0  0  0  0  0  0
    4.9317   -4.2573    3.5197 H   0  0  0  0  0  0  0  0  0  0  0  0
    6.9170   -3.8612    1.7202 H   0  0  0  0  0  0  0  0  0  0  0  0
    2.1454   -2.0074   -4.7995 H   0  0  0  0  0  0  0  0  0  0  0  0
  1  2  1  0
  1 31  1  0
  1 32  1  0
  1 33  1  0
  2 30  1  0
  2  3  1  0
  2  4  1  0
  3 34  1  0
  3 35  1  0
  3 36  1  0
  4 22  1  0
  4  5  1  0
  4 37  1  6
  5 30  1  0
  5  6  1  0
  5 38  1  6
  7  6  1  6
  6 39  1  0
  6 40  1  0
  7  9  1  0
  7 18  1  0
  7  8  1  0
  9  8  1  1
  8 41  1  0
  8 42  1  0
  9 15  1  0
  9 10  1  0
 10 11  1  0
 10 12  1  0
 10 43  1  6
 11 44  1  0
 12 13  1  0
 12 14  1  0
 12 15  1  0
 13 45  1  0
 13 46  1  0
 13 47  1  0
 14 48  1  0
 14 49  1  0
 14 50  1  0
 15 16  1  0
 15 51  1  6
 16 17  1  0
 16 52  1  0
 16 53  1  0
 17 18  1  0
 17 54  1  0
 17 55  1  0
 18 19  1  0
 18 56  1  6
 19 20  1  1
 19 21  1  0
 19 28  1  0
 20 57  1  0
 20 58  1  0
 20 59  1  0
 21 22  1  0
 22 23  1  0
 22 60  1  6
 23 27  1  0
 23 24  1  0
 24 25  2  0
 24 61  1  0
 25 26  1  0
 25 62  1  0
 26 27  2  0
 26 67  1  0
 27 63  1  0
 28 29  1  0
 28 30  1  0
 28 64  1  1
 29 65  1  0
 30 66  1  1
M  CHG  1  26   1
M  END
>  <i_m_ct_stereo_status>  (32) 
1

>  <s_m_source_file>  (32) 
/var/tmp/pbs.5076255.sched01/tmp44bw07az/09l6mph0o.sdf

>  <i_m_source_file_index>  (32) 
15

>  <i_lp_mmshare_version>  (32) 
48012

>  <i_f3d_flags>  (32) 
0

>  <s_epik_input>  (32) 
W0NIM11DMShbQ0gzXSlbQ0BASF0oW0NAQEhdMltPSF0pW0NAQEhdKFtDSDJdMylbQ0BIXTFbQ0BIXShuNFtjSF1bY0hdbltjSF00KU9bQ0BAXTIoW0NIM10pW0NAQEhdNVtDSDJdW0NIMl1bQ0BASF0oW0NAQF02KFtDQEBdMzU3KVtDSDJdNylDKFtDSDNdKShbQ0gzXSlbQ0BASF02W09IXQ==

>  <s_epik_cmdline>  (32) 
J2VwaWtfcHl0aG9uJywgJy1waHQnLCAnMi4wJywgJy1waCcsICc3LjAnLCAnLXRuJywgJzgnLCAnLW1hJywgJzIwMCcsICctaW1hZScsICc8aW5maWxlLm1hZT4nLCAnLW9tYWUnLCAnPG91dGZpbGUubWFlPic=

>  <r_lp_tautomer_probability>  (32) 
1

>  <r_epik_Ionization_Penalty>  (32) 
0.237683

>  <r_epik_Ionization_Penalty_Charging>  (32) 
0

>  <r_epik_Ionization_Penalty_Neutral>  (32) 
0.237683

>  <r_epik_State_Penalty>  (32) 
0.228552

>  <r_epik_Charging_Adjusted_Penalty>  (32) 
0.228552

>  <i_epik_Tot_Q>  (32) 
1

>  <i_epik_Tot_abs_Q>  (32) 
1

>  <s_epik_Chemistry_Notes>  (32) 
This compound contains an acetal/aminal-like group ( X-CH(R)-Y where X, Y are N, S, or O) that may be acid/base labile, releasing an aldehyde.

>  <s_lp_Force_Field>  (32) 
OPLS3e

>  <r_lp_Energy>  (32) 
100.008

>  <b_lp_Chiralities_Consistent>  (32) 
1

>  <s_lp_Variant>  (32) 
9:0-1

>  <s_i_glide_gridfile>  (32) 
pfpi4k_grid

>  <i_i_glide_lignum>  (32) 
15

>  <i_i_glide_rotatable_bonds>  (32) 
3

>  <r_i_docking_score>  (32) 
-3.95059

>  <r_i_glide_ligand_efficiency>  (32) 
-0.131686

>  <r_i_glide_ligand_efficiency_sa>  (32) 
-0.40918

>  <r_i_glide_ligand_efficiency_ln>  (32) 
-0.897618

>  <r_i_glide_gscore>  (32) 
-3.95059

>  <r_i_glide_lipo>  (32) 
-0.71735

>  <r_i_glide_hbond>  (32) 
0

>  <r_i_glide_metal>  (32) 
-0

>  <r_i_glide_rewards>  (32) 
-0.7079

>  <r_i_glide_evdw>  (32) 
-26.9427

>  <r_i_glide_ecoul>  (32) 
-8.35998

>  <r_i_glide_erotb>  (32) 
0.115348

>  <r_i_glide_esite>  (32) 
-0.03956

>  <r_i_glide_emodel>  (32) 
-43.3175

>  <r_i_glide_energy>  (32) 
-35.3027

>  <r_i_glide_einternal>  (32) 
0.0579394

>  <r_i_glide_intrahb_reward>  (32) 
-0

>  <i_i_glide_confnum>  (32) 
3

>  <i_i_glide_posenum>  (32) 
36

>  <r_i_glide_eff_state_penalty>  (32) 
0

>  <ligand_id>  (32) 
9

>  <original_smiles>  (32) 
CC1(C)C2C3CC45CC46C(O)C(C)(C)C6CCC5C(C)(OC2n2ccnc2)C(O)C31

>  <smiles>  (32) 
[H]OC1([H])C2([H])C3([H])C([H])([H])C45C([H])([H])C46C([H])(O[H])C(C([H])([H])[H])(C([H])([H])[H])C6([H])C([H])([H])C([H])([H])C5([H])C1(C([H])([H])[H])OC([H])(n1c([H])c([H])[n+]([H])c1[H])C3([H])C2(C([H])([H])[H])C([H])([H])[H]

$$$$
9:0:1
     RDKit          3D

 67 73  0  0  1  0  0  0  0  0999 V2000
    7.7716   -3.8360   -0.1585 C   0  0  0  0  0  0  0  0  0  0  0  0
    6.4137   -3.4287    0.4452 C   0  0  0  0  0  0  0  0  0  0  0  0
    6.5193   -1.9038    0.5648 C   0  0  0  0  0  0  0  0  0  0  0  0
    5.1555   -4.0355   -0.2407 C   0  0  1  0  0  0  0  0  0  0  0  0
    5.3030   -5.2275    0.7082 C   0  0  2  0  0  0  0  0  0  0  0  0
    4.1110   -6.1494    0.9869 C   0  0  0  0  0  0  0  0  0  0  0  0
    3.2701   -5.8819    2.2196 C   0  0  2  0  0  0  0  0  0  0  0  0
    3.5194   -6.7122    3.4768 C   0  0  0  0  0  0  0  0  0  0  0  0
    2.3227   -6.9817    2.5711 C   0  0  2  0  0  0  0  0  0  0  0  0
    1.9533   -8.3916    2.1602 C   0  0  1  0  0  0  0  0  0  0  0  0
    2.8470   -9.4269    2.4921 O   0  0  0  0  0  0  0  0  0  0  0  0
    0.6382   -8.2379    2.9797 C   0  0  0  0  0  0  0  0  0  0  0  0
   -0.6364   -8.7844    2.3455 C   0  0  0  0  0  0  0  0  0  0  0  0
    0.7051   -8.7510    4.4245 C   0  0  0  0  0  0  0  0  0  0  0  0
    0.8899   -6.7241    2.8736 C   0  0  1  0  0  0  0  0  0  0  0  0
    0.7616   -5.6549    3.9317 C   0  0  0  0  0  0  0  0  0  0  0  0
    1.5709   -4.3845    3.5331 C   0  0  0  0  0  0  0  0  0  0  0  0
    2.6093   -4.4770    2.3360 C   0  0  1  0  0  0  0  0  0  0  0  0
    3.5939   -3.2333    2.2539 C   0  0  2  0  0  0  0  0  0  0  0  0
    3.0989   -2.0176    3.0762 C   0  0  0  0  0  0  0  0  0  0  0  0
    3.5591   -2.6034    0.9525 O   0  0  0  0  0  0  0  0  0  0  0  0
    3.7863   -3.3222   -0.2348 C   0  0  1  0  0  0  0  0  0  0  0  0
    3.6264   -2.4222   -1.4024 N   0  0  0  0  0  0  0  0  0  0  0  0
    2.9327   -2.7230   -2.5501 C   0  0  0  0  0  0  0  0  0  0  0  0
    3.0326   -1.6299   -3.3666 C   0  0  0  0  0  0  0  0  0  0  0  0
    3.7793   -0.7045   -2.6924 N   0  0  0  0  0  0  0  0  0  0  0  0
    4.1122   -1.1722   -1.4878 C   0  0  0  0  0  0  0  0  0  0  0  0
    5.0627   -3.5050    2.7111 C   0  0  1  0  0  0  0  0  0  0  0  0
    5.1151   -4.1683    3.9572 O   0  0  0  0  0  0  0  0  0  0  0  0
    5.9391   -4.2341    1.6916 C   0  0  2  0  0  0  0  0  0  0  0  0
    7.9205   -3.3805   -1.1386 H   0  0  0  0  0  0  0  0  0  0  0  0
    7.8889   -4.9057   -0.2922 H   0  0  0  0  0  0  0  0  0  0  0  0
    8.5948   -3.5149    0.4766 H   0  0  0  0  0  0  0  0  0  0  0  0
    5.6213   -1.4532    0.9890 H   0  0  0  0  0  0  0  0  0  0  0  0
    6.6831   -1.4551   -0.4151 H   0  0  0  0  0  0  0  0  0  0  0  0
    7.3396   -1.5966    1.2174 H   0  0  0  0  0  0  0  0  0  0  0  0
    5.4073   -4.3799   -1.2472 H   0  0  0  0  0  0  0  0  0  0  0  0
    6.0941   -5.8626    0.3129 H   0  0  0  0  0  0  0  0  0  0  0  0
    3.4349   -6.1807    0.1349 H   0  0  0  0  0  0  0  0  0  0  0  0
    4.4810   -7.1769    1.0679 H   0  0  0  0  0  0  0  0  0  0  0  0
    4.3482   -7.4204    3.4475 H   0  0  0  0  0  0  0  0  0  0  0  0
    3.3087   -6.2981    4.4612 H   0  0  0  0  0  0  0  0  0  0  0  0
    1.7333   -8.4500    1.0950 H   0  0  0  0  0  0  0  0  0  0  0  0
    2.5161  -10.1989    2.0532 H   0  0  0  0  0  0  0  0  0  0  0  0
   -1.5204   -8.4667    2.8907 H   0  0  0  0  0  0  0  0  0  0  0  0
   -0.6290   -9.8717    2.3338 H   0  0  0  0  0  0  0  0  0  0  0  0
   -0.7497   -8.4460    1.3207 H   0  0  0  0  0  0  0  0  0  0  0  0
   -0.1343   -8.3706    5.0154 H   0  0  0  0  0  0  0  0  0  0  0  0
    1.6248   -8.4020    4.9151 H   0  0  0  0  0  0  0  0  0  0  0  0
    0.7060   -9.8454    4.4770 H   0  0  0  0  0  0  0  0  0  0  0  0
    0.4016   -6.3957    1.9527 H   0  0  0  0  0  0  0  0  0  0  0  0
   -0.2864   -5.4090    4.0801 H   0  0  0  0  0  0  0  0  0  0  0  0
    1.1007   -6.0175    4.9034 H   0  0  0  0  0  0  0  0  0  0  0  0
    0.8421   -3.6173    3.2725 H   0  0  0  0  0  0  0  0  0  0  0  0
    2.0454   -4.0318    4.4468 H   0  0  0  0  0  0  0  0  0  0  0  0
    1.9675   -4.4140    1.4636 H   0  0  0  0  0  0  0  0  0  0  0  0
    3.1495   -2.1922    4.1523 H   0  0  0  0  0  0  0  0  0  0  0  0
    2.0797   -1.7348    2.8130 H   0  0  0  0  0  0  0  0  0  0  0  0
    3.7267   -1.1433    2.8880 H   0  0  0  0  0  0  0  0  0  0  0  0
    2.9841   -4.0494   -0.3618 H   0  0  0  0  0  0  0  0  0  0  0  0
    2.4046   -3.6619   -2.6941 H   0  0  0  0  0  0  0  0  0  0  0  0
    2.6043   -1.4304   -4.3383 H   0  0  0  0  0  0  0  0  0  0  0  0
    4.6316   -0.6117   -0.7336 H   0  0  0  0  0  0  0  0  0  0  0  0
    5.5416   -2.5518    2.9278 H   0  0  0  0  0  0  0  0  0  0  0  0
    4.7616   -5.0396    3.8542 H   0  0  0  0  0  0  0  0  0  0  0  0
    6.8160   -4.6883    2.1590 H   0  0  0  0  0  0  0  0  0  0  0  0
    3.9784    0.2334   -3.0196 H   0  0  0  0  0  0  0  0  0  0  0  0
  1  2  1  0
  1 31  1  0
  1 32  1  0
  1 33  1  0
  2 30  1  0
  2  3  1  0
  2  4  1  0
  3 34  1  0
  3 35  1  0
  3 36  1  0
  4 22  1  0
  4  5  1  0
  4 37  1  6
  5 30  1  0
  5  6  1  0
  5 38  1  6
  7  6  1  6
  6 39  1  0
  6 40  1  0
  7  9  1  0
  7 18  1  0
  7  8  1  0
  9  8  1  1
  8 41  1  0
  8 42  1  0
  9 15  1  0
  9 10  1  0
 10 11  1  0
 10 12  1  0
 10 43  1  6
 11 44  1  0
 12 13  1  0
 12 14  1  0
 12 15  1  0
 13 45  1  0
 13 46  1  0
 13 47  1  0
 14 48  1  0
 14 49  1  0
 14 50  1  0
 15 16  1  0
 15 51  1  6
 16 17  1  0
 16 52  1  0
 16 53  1  0
 17 18  1  0
 17 54  1  0
 17 55  1  0
 18 19  1  0
 18 56  1  6
 19 20  1  1
 19 21  1  0
 19 28  1  0
 20 57  1  0
 20 58  1  0
 20 59  1  0
 21 22  1  0
 22 23  1  0
 22 60  1  6
 23 27  1  0
 23 24  1  0
 24 25  2  0
 24 61  1  0
 25 26  1  0
 25 62  1  0
 26 27  2  0
 26 67  1  0
 27 63  1  0
 28 29  1  0
 28 30  1  0
 28 64  1  1
 29 65  1  0
 30 66  1  1
M  CHG  1  26   1
M  END
>  <i_m_ct_stereo_status>  (33) 
1

>  <s_m_source_file>  (33) 
/var/tmp/pbs.5076255.sched01/tmp44bw07az/09l6mph0o.sdf

>  <i_m_source_file_index>  (33) 
15

>  <i_lp_mmshare_version>  (33) 
48012

>  <i_f3d_flags>  (33) 
0

>  <s_epik_input>  (33) 
W0NIM11DMShbQ0gzXSlbQ0BASF0oW0NAQEhdMltPSF0pW0NAQEhdKFtDSDJdMylbQ0BIXTFbQ0BIXShuNFtjSF1bY0hdbltjSF00KU9bQ0BAXTIoW0NIM10pW0NAQEhdNVtDSDJdW0NIMl1bQ0BASF0oW0NAQF02KFtDQEBdMzU3KVtDSDJdNylDKFtDSDNdKShbQ0gzXSlbQ0BASF02W09IXQ==

>  <s_epik_cmdline>  (33) 
J2VwaWtfcHl0aG9uJywgJy1waHQnLCAnMi4wJywgJy1waCcsICc3LjAnLCAnLXRuJywgJzgnLCAnLW1hJywgJzIwMCcsICctaW1hZScsICc8aW5maWxlLm1hZT4nLCAnLW9tYWUnLCAnPG91dGZpbGUubWFlPic=

>  <r_lp_tautomer_probability>  (33) 
1

>  <r_epik_Ionization_Penalty>  (33) 
0.237683

>  <r_epik_Ionization_Penalty_Charging>  (33) 
0

>  <r_epik_Ionization_Penalty_Neutral>  (33) 
0.237683

>  <r_epik_State_Penalty>  (33) 
0.228552

>  <r_epik_Charging_Adjusted_Penalty>  (33) 
0.228552

>  <i_epik_Tot_Q>  (33) 
1

>  <i_epik_Tot_abs_Q>  (33) 
1

>  <s_epik_Chemistry_Notes>  (33) 
This compound contains an acetal/aminal-like group ( X-CH(R)-Y where X, Y are N, S, or O) that may be acid/base labile, releasing an aldehyde.

>  <s_lp_Force_Field>  (33) 
OPLS3e

>  <r_lp_Energy>  (33) 
100.008

>  <b_lp_Chiralities_Consistent>  (33) 
1

>  <s_lp_Variant>  (33) 
9:0-1

>  <s_i_glide_gridfile>  (33) 
pfpi4k_grid

>  <i_i_glide_lignum>  (33) 
15

>  <i_i_glide_rotatable_bonds>  (33) 
3

>  <r_i_docking_score>  (33) 
-3.49742

>  <r_i_glide_ligand_efficiency>  (33) 
-0.116581

>  <r_i_glide_ligand_efficiency_sa>  (33) 
-0.362243

>  <r_i_glide_ligand_efficiency_ln>  (33) 
-0.794651

>  <r_i_glide_gscore>  (33) 
-3.49742

>  <r_i_glide_lipo>  (33) 
-0.747889

>  <r_i_glide_hbond>  (33) 
0

>  <r_i_glide_metal>  (33) 
-0

>  <r_i_glide_rewards>  (33) 
-0.634406

>  <r_i_glide_evdw>  (33) 
-27.0746

>  <r_i_glide_ecoul>  (33) 
-5.26113

>  <r_i_glide_erotb>  (33) 
0.115348

>  <r_i_glide_esite>  (33) 
-0.0875684

>  <r_i_glide_emodel>  (33) 
-39.4402

>  <r_i_glide_energy>  (33) 
-32.3358

>  <r_i_glide_einternal>  (33) 
0.0551617

>  <r_i_glide_intrahb_reward>  (33) 
-0

>  <i_i_glide_confnum>  (33) 
3

>  <i_i_glide_posenum>  (33) 
1

>  <r_i_glide_eff_state_penalty>  (33) 
0

>  <ligand_id>  (33) 
9

>  <original_smiles>  (33) 
CC1(C)C2C3CC45CC46C(O)C(C)(C)C6CCC5C(C)(OC2n2ccnc2)C(O)C31

>  <smiles>  (33) 
[H]OC1([H])C2([H])C3([H])C([H])([H])C45C([H])([H])C46C([H])(O[H])C(C([H])([H])[H])(C([H])([H])[H])C6([H])C([H])([H])C([H])([H])C5([H])C1(C([H])([H])[H])OC([H])(n1c([H])c([H])[n+]([H])c1[H])C3([H])C2(C([H])([H])[H])C([H])([H])[H]

$$$$
9:0:2
     RDKit          3D

 67 73  0  0  1  0  0  0  0  0999 V2000
    7.6030   -3.7097   -0.2556 C   0  0  0  0  0  0  0  0  0  0  0  0
    6.2249   -3.3200    0.3085 C   0  0  0  0  0  0  0  0  0  0  0  0
    6.3045   -1.7957    0.3148 C   0  0  0  0  0  0  0  0  0  0  0  0
    4.9920   -4.0447   -0.3314 C   0  0  1  0  0  0  0  0  0  0  0  0
    5.1978   -5.1319    0.7252 C   0  0  2  0  0  0  0  0  0  0  0  0
    4.0624   -6.0939    1.0915 C   0  0  0  0  0  0  0  0  0  0  0  0
    3.2048   -5.7534    2.2880 C   0  0  2  0  0  0  0  0  0  0  0  0
    3.4841   -6.4519    3.6198 C   0  0  0  0  0  0  0  0  0  0  0  0
    2.3169   -6.8687    2.7425 C   0  0  2  0  0  0  0  0  0  0  0  0
    2.0341   -8.3238    2.4721 C   0  0  1  0  0  0  0  0  0  0  0  0
    3.0144   -9.2563    2.8831 O   0  0  0  0  0  0  0  0  0  0  0  0
    0.7057   -8.1735    3.2710 C   0  0  0  0  0  0  0  0  0  0  0  0
   -0.5390   -8.8399    2.6858 C   0  0  0  0  0  0  0  0  0  0  0  0
    0.7775   -8.5458    4.7494 C   0  0  0  0  0  0  0  0  0  0  0  0
    0.8772   -6.6623    3.0270 C   0  0  1  0  0  0  0  0  0  0  0  0
    0.6870   -5.5032    3.9816 C   0  0  0  0  0  0  0  0  0  0  0  0
    1.4376   -4.2364    3.4692 C   0  0  0  0  0  0  0  0  0  0  0  0
    2.4697   -4.3862    2.2729 C   0  0  1  0  0  0  0  0  0  0  0  0
    3.3870   -3.1086    2.0735 C   0  0  2  0  0  0  0  0  0  0  0  0
    2.8279   -1.8507    2.7819 C   0  0  0  0  0  0  0  0  0  0  0  0
    3.3169   -2.6169    0.7143 O   0  0  0  0  0  0  0  0  0  0  0  0
    3.5769   -3.4234   -0.3989 C   0  0  1  0  0  0  0  0  0  0  0  0
    3.3912   -2.5795   -1.6267 N   0  0  0  0  0  0  0  0  0  0  0  0
    3.8626   -1.3079   -1.8534 C   0  0  0  0  0  0  0  0  0  0  0  0
    3.4701   -0.9683   -3.1254 C   0  0  0  0  0  0  0  0  0  0  0  0
    2.7059   -2.0113   -3.5898 N   0  0  0  0  0  0  0  0  0  0  0  0
    2.6538   -2.9687   -2.6592 C   0  0  0  0  0  0  0  0  0  0  0  0
    4.8634   -3.2549    2.5619 C   0  0  1  0  0  0  0  0  0  0  0  0
    4.9482   -3.7989    3.8624 O   0  0  0  0  0  0  0  0  0  0  0  0
    5.7792   -4.0305    1.6157 C   0  0  2  0  0  0  0  0  0  0  0  0
    7.7327   -3.3336   -1.2701 H   0  0  0  0  0  0  0  0  0  0  0  0
    7.7809   -4.7775   -0.2956 H   0  0  0  0  0  0  0  0  0  0  0  0
    8.4068   -3.2865    0.3452 H   0  0  0  0  0  0  0  0  0  0  0  0
    5.3765   -1.3490    0.6611 H   0  0  0  0  0  0  0  0  0  0  0  0
    6.5155   -1.4311   -0.6912 H   0  0  0  0  0  0  0  0  0  0  0  0
    7.0904   -1.4174    0.9779 H   0  0  0  0  0  0  0  0  0  0  0  0
    5.2885   -4.4780   -1.2835 H   0  0  0  0  0  0  0  0  0  0  0  0
    6.0290   -5.7464    0.3908 H   0  0  0  0  0  0  0  0  0  0  0  0
    3.3915   -6.2370    0.2475 H   0  0  0  0  0  0  0  0  0  0  0  0
    4.4875   -7.0859    1.2689 H   0  0  0  0  0  0  0  0  0  0  0  0
    4.3471   -7.1124    3.6531 H   0  0  0  0  0  0  0  0  0  0  0  0
    3.2452   -5.9532    4.5528 H   0  0  0  0  0  0  0  0  0  0  0  0
    1.7959   -8.4869    1.4183 H   0  0  0  0  0  0  0  0  0  0  0  0
    3.1373   -9.1453    3.8171 H   0  0  0  0  0  0  0  0  0  0  0  0
   -1.4444   -8.5165    3.1937 H   0  0  0  0  0  0  0  0  0  0  0  0
   -0.4806   -9.9220    2.7801 H   0  0  0  0  0  0  0  0  0  0  0  0
   -0.6630   -8.6166    1.6319 H   0  0  0  0  0  0  0  0  0  0  0  0
   -0.0866   -8.1514    5.2920 H   0  0  0  0  0  0  0  0  0  0  0  0
    1.6689   -8.1002    5.2028 H   0  0  0  0  0  0  0  0  0  0  0  0
    0.8301   -9.6282    4.8995 H   0  0  0  0  0  0  0  0  0  0  0  0
    0.3777   -6.4512    2.0839 H   0  0  0  0  0  0  0  0  0  0  0  0
   -0.3739   -5.2997    4.0912 H   0  0  0  0  0  0  0  0  0  0  0  0
    1.0293   -5.7530    4.9851 H   0  0  0  0  0  0  0  0  0  0  0  0
    0.6734   -3.5386    3.1387 H   0  0  0  0  0  0  0  0  0  0  0  0
    1.8900   -3.7706    4.3463 H   0  0  0  0  0  0  0  0  0  0  0  0
    1.8224   -4.4368    1.3983 H   0  0  0  0  0  0  0  0  0  0  0  0
    2.8810   -1.9221    3.8687 H   0  0  0  0  0  0  0  0  0  0  0  0
    1.7973   -1.6453    2.4948 H   0  0  0  0  0  0  0  0  0  0  0  0
    3.4102   -0.9667    2.5171 H   0  0  0  0  0  0  0  0  0  0  0  0
    2.8083   -4.2003   -0.4864 H   0  0  0  0  0  0  0  0  0  0  0  0
    4.4088   -0.6823   -1.1505 H   0  0  0  0  0  0  0  0  0  0  0  0
    3.6437   -0.0527   -3.6689 H   0  0  0  0  0  0  0  0  0  0  0  0
    2.0510   -3.8677   -2.7358 H   0  0  0  0  0  0  0  0  0  0  0  0
    5.2892   -2.2620    2.6968 H   0  0  0  0  0  0  0  0  0  0  0  0
    4.6297   -4.6889    3.8361 H   0  0  0  0  0  0  0  0  0  0  0  0
    6.6769   -4.3984    2.1100 H   0  0  0  0  0  0  0  0  0  0  0  0
    2.1751   -1.9971   -4.4600 H   0  0  0  0  0  0  0  0  0  0  0  0
  1  2  1  0
  1 31  1  0
  1 32  1  0
  1 33  1  0
  2 30  1  0
  2  3  1  0
  2  4  1  0
  3 34  1  0
  3 35  1  0
  3 36  1  0
  4 22  1  0
  4  5  1  0
  4 37  1  6
  5 30  1  0
  5  6  1  0
  5 38  1  6
  7  6  1  6
  6 39  1  0
  6 40  1  0
  7  9  1  0
  7 18  1  0
  7  8  1  0
  9  8  1  1
  8 41  1  0
  8 42  1  0
  9 15  1  0
  9 10  1  0
 10 11  1  0
 10 12  1  0
 10 43  1  6
 11 44  1  0
 12 13  1  0
 12 14  1  0
 12 15  1  0
 13 45  1  0
 13 46  1  0
 13 47  1  0
 14 48  1  0
 14 49  1  0
 14 50  1  0
 15 16  1  0
 15 51  1  6
 16 17  1  0
 16 52  1  0
 16 53  1  0
 17 18  1  0
 17 54  1  0
 17 55  1  0
 18 19  1  0
 18 56  1  6
 19 20  1  1
 19 21  1  0
 19 28  1  0
 20 57  1  0
 20 58  1  0
 20 59  1  0
 21 22  1  0
 22 23  1  0
 22 60  1  6
 23 27  1  0
 23 24  1  0
 24 25  2  0
 24 61  1  0
 25 26  1  0
 25 62  1  0
 26 27  2  0
 26 67  1  0
 27 63  1  0
 28 29  1  0
 28 30  1  0
 28 64  1  1
 29 65  1  0
 30 66  1  1
M  CHG  1  26   1
M  END
>  <i_m_ct_stereo_status>  (34) 
1

>  <s_m_source_file>  (34) 
/var/tmp/pbs.5076255.sched01/tmp44bw07az/09l6mph0o.sdf

>  <i_m_source_file_index>  (34) 
15

>  <i_lp_mmshare_version>  (34) 
48012

>  <i_f3d_flags>  (34) 
0

>  <s_epik_input>  (34) 
W0NIM11DMShbQ0gzXSlbQ0BASF0oW0NAQEhdMltPSF0pW0NAQEhdKFtDSDJdMylbQ0BIXTFbQ0BIXShuNFtjSF1bY0hdbltjSF00KU9bQ0BAXTIoW0NIM10pW0NAQEhdNVtDSDJdW0NIMl1bQ0BASF0oW0NAQF02KFtDQEBdMzU3KVtDSDJdNylDKFtDSDNdKShbQ0gzXSlbQ0BASF02W09IXQ==

>  <s_epik_cmdline>  (34) 
J2VwaWtfcHl0aG9uJywgJy1waHQnLCAnMi4wJywgJy1waCcsICc3LjAnLCAnLXRuJywgJzgnLCAnLW1hJywgJzIwMCcsICctaW1hZScsICc8aW5maWxlLm1hZT4nLCAnLW9tYWUnLCAnPG91dGZpbGUubWFlPic=

>  <r_lp_tautomer_probability>  (34) 
1

>  <r_epik_Ionization_Penalty>  (34) 
0.237683

>  <r_epik_Ionization_Penalty_Charging>  (34) 
0

>  <r_epik_Ionization_Penalty_Neutral>  (34) 
0.237683

>  <r_epik_State_Penalty>  (34) 
0.228552

>  <r_epik_Charging_Adjusted_Penalty>  (34) 
0.228552

>  <i_epik_Tot_Q>  (34) 
1

>  <i_epik_Tot_abs_Q>  (34) 
1

>  <s_epik_Chemistry_Notes>  (34) 
This compound contains an acetal/aminal-like group ( X-CH(R)-Y where X, Y are N, S, or O) that may be acid/base labile, releasing an aldehyde.

>  <s_lp_Force_Field>  (34) 
OPLS3e

>  <r_lp_Energy>  (34) 
100.008

>  <b_lp_Chiralities_Consistent>  (34) 
1

>  <s_lp_Variant>  (34) 
9:0-1

>  <s_i_glide_gridfile>  (34) 
pfpi4k_grid

>  <i_i_glide_lignum>  (34) 
15

>  <i_i_glide_rotatable_bonds>  (34) 
3

>  <r_i_docking_score>  (34) 
-3.47561

>  <r_i_glide_ligand_efficiency>  (34) 
-0.115854

>  <r_i_glide_ligand_efficiency_sa>  (34) 
-0.359984

>  <r_i_glide_ligand_efficiency_ln>  (34) 
-0.789696

>  <r_i_glide_gscore>  (34) 
-3.47561

>  <r_i_glide_lipo>  (34) 
-0.623349

>  <r_i_glide_hbond>  (34) 
0

>  <r_i_glide_metal>  (34) 
-0

>  <r_i_glide_rewards>  (34) 
-0.643281

>  <r_i_glide_evdw>  (34) 
-27.1552

>  <r_i_glide_ecoul>  (34) 
-6.15079

>  <r_i_glide_erotb>  (34) 
0.115348

>  <r_i_glide_esite>  (34) 
-0.0439485

>  <r_i_glide_emodel>  (34) 
-40.2475

>  <r_i_glide_energy>  (34) 
-33.306

>  <r_i_glide_einternal>  (34) 
0.105798

>  <r_i_glide_intrahb_reward>  (34) 
-0

>  <i_i_glide_confnum>  (34) 
2

>  <i_i_glide_posenum>  (34) 
12

>  <r_i_glide_eff_state_penalty>  (34) 
0

>  <ligand_id>  (34) 
9

>  <original_smiles>  (34) 
CC1(C)C2C3CC45CC46C(O)C(C)(C)C6CCC5C(C)(OC2n2ccnc2)C(O)C31

>  <smiles>  (34) 
[H]OC1([H])C2([H])C3([H])C([H])([H])C45C([H])([H])C46C([H])(O[H])C(C([H])([H])[H])(C([H])([H])[H])C6([H])C([H])([H])C([H])([H])C5([H])C1(C([H])([H])[H])OC([H])(n1c([H])c([H])[n+]([H])c1[H])C3([H])C2(C([H])([H])[H])C([H])([H])[H]

$$$$
9:1:0
     RDKit          3D

 66 72  0  0  1  0  0  0  0  0999 V2000
    8.1340   -2.6238   -0.5284 C   0  0  0  0  0  0  0  0  0  0  0  0
    6.6624   -2.6958   -0.0608 C   0  0  0  0  0  0  0  0  0  0  0  0
    6.1687   -1.2440   -0.1606 C   0  0  0  0  0  0  0  0  0  0  0  0
    5.7850   -3.8038   -0.6931 C   0  0  1  0  0  0  0  0  0  0  0  0
    6.2766   -4.7457    0.3942 C   0  0  2  0  0  0  0  0  0  0  0  0
    5.4783   -6.0017    0.7275 C   0  0  0  0  0  0  0  0  0  0  0  0
    4.4836   -5.9357    1.8680 C   0  0  2  0  0  0  0  0  0  0  0  0
    4.8790   -6.4990    3.2359 C   0  0  0  0  0  0  0  0  0  0  0  0
    3.9677   -7.2658    2.2938 C   0  0  2  0  0  0  0  0  0  0  0  0
    4.1800   -8.7409    2.0711 C   0  0  1  0  0  0  0  0  0  0  0  0
    5.3228   -9.3663    2.5891 O   0  0  0  0  0  0  0  0  0  0  0  0
    2.8210   -9.0014    2.7736 C   0  0  0  0  0  0  0  0  0  0  0  0
    1.9119  -10.0387    2.1508 C   0  0  0  0  0  0  0  0  0  0  0  0
    2.9099   -9.3024    4.2763 C   0  0  0  0  0  0  0  0  0  0  0  0
    2.5221   -7.5247    2.4935 C   0  0  1  0  0  0  0  0  0  0  0  0
    1.8916   -6.4832    3.3697 C   0  0  0  0  0  0  0  0  0  0  0  0
    2.2282   -5.0523    2.8685 C   0  0  0  0  0  0  0  0  0  0  0  0
    3.3463   -4.8799    1.7508 C   0  0  1  0  0  0  0  0  0  0  0  0
    3.8184   -3.3803    1.5761 C   0  0  2  0  0  0  0  0  0  0  0  0
    2.8380   -2.3488    2.1921 C   0  0  0  0  0  0  0  0  0  0  0  0
    3.6911   -2.9628    0.2089 O   0  0  0  0  0  0  0  0  0  0  0  0
    4.2684   -3.6756   -0.8597 C   0  0  1  0  0  0  0  0  0  0  0  0
    3.9545   -2.9743   -2.0978 N   0  0  0  0  0  0  0  0  0  0  0  0
    3.3593   -1.7287   -2.2520 C   0  0  0  0  0  0  0  0  0  0  0  0
    3.2233   -1.5108   -3.6046 C   0  0  0  0  0  0  0  0  0  0  0  0
    3.7698   -2.6174   -4.2711 N   0  0  0  0  0  0  0  0  0  0  0  0
    4.1602   -3.4358   -3.3266 C   0  0  0  0  0  0  0  0  0  0  0  0
    5.2316   -3.0287    2.1319 C   0  0  1  0  0  0  0  0  0  0  0  0
    5.3955   -3.4977    3.4554 O   0  0  0  0  0  0  0  0  0  0  0  0
    6.3945   -3.4824    1.2543 C   0  0  2  0  0  0  0  0  0  0  0  0
    8.2246   -2.2562   -1.5513 H   0  0  0  0  0  0  0  0  0  0  0  0
    8.6433   -3.5864   -0.5236 H   0  0  0  0  0  0  0  0  0  0  0  0
    8.7323   -1.9657    0.1040 H   0  0  0  0  0  0  0  0  0  0  0  0
    5.1383   -1.1247    0.1521 H   0  0  0  0  0  0  0  0  0  0  0  0
    6.1918   -0.8847   -1.1869 H   0  0  0  0  0  0  0  0  0  0  0  0
    6.7495   -0.5715    0.4731 H   0  0  0  0  0  0  0  0  0  0  0  0
    6.2398   -4.1024   -1.6322 H   0  0  0  0  0  0  0  0  0  0  0  0
    7.2814   -5.0626    0.1255 H   0  0  0  0  0  0  0  0  0  0  0  0
    4.9455   -6.3625   -0.1510 H   0  0  0  0  0  0  0  0  0  0  0  0
    6.1796   -6.8065    0.9602 H   0  0  0  0  0  0  0  0  0  0  0  0
    5.9151   -6.8167    3.3352 H   0  0  0  0  0  0  0  0  0  0  0  0
    4.4380   -6.0771    4.1330 H   0  0  0  0  0  0  0  0  0  0  0  0
    4.0977   -8.9887    1.0068 H   0  0  0  0  0  0  0  0  0  0  0  0
    5.2574  -10.2612    2.2901 H   0  0  0  0  0  0  0  0  0  0  0  0
    0.9076  -10.0160    2.5727 H   0  0  0  0  0  0  0  0  0  0  0  0
    2.3122  -11.0411    2.3054 H   0  0  0  0  0  0  0  0  0  0  0  0
    1.8155   -9.8696    1.0775 H   0  0  0  0  0  0  0  0  0  0  0  0
    1.9384   -9.1979    4.7583 H   0  0  0  0  0  0  0  0  0  0  0  0
    3.5786   -8.5965    4.7649 H   0  0  0  0  0  0  0  0  0  0  0  0
    3.2944  -10.3015    4.4802 H   0  0  0  0  0  0  0  0  0  0  0  0
    2.0456   -7.5053    1.5081 H   0  0  0  0  0  0  0  0  0  0  0  0
    0.8120   -6.6351    3.4155 H   0  0  0  0  0  0  0  0  0  0  0  0
    2.2381   -6.5946    4.3989 H   0  0  0  0  0  0  0  0  0  0  0  0
    1.3025   -4.6451    2.4661 H   0  0  0  0  0  0  0  0  0  0  0  0
    2.4338   -4.4547    3.7548 H   0  0  0  0  0  0  0  0  0  0  0  0
    2.8122   -5.1473    0.8384 H   0  0  0  0  0  0  0  0  0  0  0  0
    2.8319   -2.3712    3.2816 H   0  0  0  0  0  0  0  0  0  0  0  0
    1.8183   -2.4854    1.8366 H   0  0  0  0  0  0  0  0  0  0  0  0
    3.1175   -1.3296    1.9195 H   0  0  0  0  0  0  0  0  0  0  0  0
    3.7959   -4.6505   -0.9671 H   0  0  0  0  0  0  0  0  0  0  0  0
    3.0321   -1.1138   -1.4134 H   0  0  0  0  0  0  0  0  0  0  0  0
    2.7816   -0.7016   -4.1388 H   0  0  0  0  0  0  0  0  0  0  0  0
    4.6034   -4.4006   -3.5409 H   0  0  0  0  0  0  0  0  0  0  0  0
    5.3094   -1.9475    2.2389 H   0  0  0  0  0  0  0  0  0  0  0  0
    5.3561   -4.4368    3.4391 H   0  0  0  0  0  0  0  0  0  0  0  0
    7.3359   -3.5303    1.7928 H   0  0  0  0  0  0  0  0  0  0  0  0
  1  2  1  0
  1 31  1  0
  1 32  1  0
  1 33  1  0
  2 30  1  0
  2  3  1  0
  2  4  1  0
  3 34  1  0
  3 35  1  0
  3 36  1  0
  4 22  1  0
  4  5  1  0
  4 37  1  6
  5 30  1  0
  5  6  1  0
  5 38  1  6
  7  6  1  6
  6 39  1  0
  6 40  1  0
  7  9  1  0
  7 18  1  0
  7  8  1  0
  9  8  1  1
  8 41  1  0
  8 42  1  0
  9 15  1  0
  9 10  1  0
 10 11  1  0
 10 12  1  0
 10 43  1  6
 11 44  1  0
 12 13  1  0
 12 14  1  0
 12 15  1  0
 13 45  1  0
 13 46  1  0
 13 47  1  0
 14 48  1  0
 14 49  1  0
 14 50  1  0
 15 16  1  0
 15 51  1  6
 16 17  1  0
 16 52  1  0
 16 53  1  0
 17 18  1  0
 17 54  1  0
 17 55  1  0
 18 19  1  0
 18 56  1  6
 19 20  1  1
 19 21  1  0
 19 28  1  0
 20 57  1  0
 20 58  1  0
 20 59  1  0
 21 22  1  0
 22 23  1  0
 22 60  1  6
 23 27  1  0
 23 24  1  0
 24 25  2  0
 24 61  1  0
 25 26  1  0
 25 62  1  0
 26 27  2  0
 27 63  1  0
 28 29  1  0
 28 30  1  0
 28 64  1  1
 29 65  1  0
 30 66  1  1
M  END
>  <i_m_ct_stereo_status>  (35) 
1

>  <s_m_source_file>  (35) 
/var/tmp/pbs.5076255.sched01/tmp44bw07az/09l6mph0o.sdf

>  <i_m_source_file_index>  (35) 
16

>  <i_lp_mmshare_version>  (35) 
48012

>  <i_f3d_flags>  (35) 
0

>  <s_epik_input>  (35) 
W0NIM11DMShbQ0gzXSlbQ0BASF0oW0NAQEhdMltPSF0pW0NAQEhdKFtDSDJdMylbQ0BIXTFbQ0BIXShuNFtjSF1bY0hdbltjSF00KU9bQ0BAXTIoW0NIM10pW0NAQEhdNVtDSDJdW0NIMl1bQ0BASF0oW0NAQF02KFtDQEBdMzU3KVtDSDJdNylDKFtDSDNdKShbQ0gzXSlbQ0BASF02W09IXQ==

>  <s_epik_cmdline>  (35) 
J2VwaWtfcHl0aG9uJywgJy1waHQnLCAnMi4wJywgJy1waCcsICc3LjAnLCAnLXRuJywgJzgnLCAnLW1hJywgJzIwMCcsICctaW1hZScsICc8aW5maWxlLm1hZT4nLCAnLW9tYWUnLCAnPG91dGZpbGUubWFlPic=

>  <r_lp_tautomer_probability>  (35) 
1

>  <r_epik_Ionization_Penalty>  (35) 
0.656054

>  <r_epik_Ionization_Penalty_Charging>  (35) 
0.656051

>  <r_epik_Ionization_Penalty_Neutral>  (35) 
3.07236e-06

>  <r_epik_State_Penalty>  (35) 
0.674987

>  <r_epik_Charging_Adjusted_Penalty>  (35) 
1.33104

>  <i_epik_Tot_Q>  (35) 
0

>  <i_epik_Tot_abs_Q>  (35) 
0

>  <s_epik_Chemistry_Notes>  (35) 
This compound contains an acetal/aminal-like group ( X-CH(R)-Y where X, Y are N, S, or O) that may be acid/base labile, releasing an aldehyde.

>  <s_lp_Force_Field>  (35) 
OPLS3e

>  <r_lp_Energy>  (35) 
94.4294

>  <b_lp_Chiralities_Consistent>  (35) 
1

>  <s_lp_Variant>  (35) 
9:0-2

>  <s_i_glide_gridfile>  (35) 
pfpi4k_grid

>  <i_i_glide_lignum>  (35) 
16

>  <i_i_glide_rotatable_bonds>  (35) 
3

>  <r_i_docking_score>  (35) 
-3.93374

>  <r_i_glide_ligand_efficiency>  (35) 
-0.131125

>  <r_i_glide_ligand_efficiency_sa>  (35) 
-0.407434

>  <r_i_glide_ligand_efficiency_ln>  (35) 
-0.893788

>  <r_i_glide_gscore>  (35) 
-3.93374

>  <r_i_glide_lipo>  (35) 
-0.801027

>  <r_i_glide_hbond>  (35) 
-0.32

>  <r_i_glide_metal>  (35) 
-0

>  <r_i_glide_rewards>  (35) 
-0.722566

>  <r_i_glide_evdw>  (35) 
-26.744

>  <r_i_glide_ecoul>  (35) 
-5.63911

>  <r_i_glide_erotb>  (35) 
0.115858

>  <r_i_glide_esite>  (35) 
-0.0229325

>  <r_i_glide_emodel>  (35) 
-39.3128

>  <r_i_glide_energy>  (35) 
-32.3831

>  <r_i_glide_einternal>  (35) 
0.501374

>  <r_i_glide_intrahb_reward>  (35) 
-0

>  <i_i_glide_confnum>  (35) 
2

>  <i_i_glide_posenum>  (35) 
37

>  <r_i_glide_eff_state_penalty>  (35) 
0

>  <ligand_id>  (35) 
9

>  <original_smiles>  (35) 
CC1(C)C2C3CC45CC46C(O)C(C)(C)C6CCC5C(C)(OC2n2ccnc2)C(O)C31

>  <smiles>  (35) 
[H]OC1([H])C2([H])C3([H])C([H])([H])C45C([H])([H])C46C([H])(O[H])C(C([H])([H])[H])(C([H])([H])[H])C6([H])C([H])([H])C([H])([H])C5([H])C1(C([H])([H])[H])OC([H])(n1c([H])nc([H])c1[H])C3([H])C2(C([H])([H])[H])C([H])([H])[H]

$$$$
9:1:1
     RDKit          3D

 66 72  0  0  1  0  0  0  0  0999 V2000
    7.8310   -4.1396    0.0436 C   0  0  0  0  0  0  0  0  0  0  0  0
    6.4118   -3.7443    0.4794 C   0  0  0  0  0  0  0  0  0  0  0  0
    6.4141   -2.1962    0.3675 C   0  0  0  0  0  0  0  0  0  0  0  0
    5.2490   -4.5647   -0.1587 C   0  0  1  0  0  0  0  0  0  0  0  0
    5.4098   -5.5680    0.9777 C   0  0  2  0  0  0  0  0  0  0  0  0
    4.2654   -6.5199    1.3316 C   0  0  0  0  0  0  0  0  0  0  0  0
    3.3105   -6.1180    2.4393 C   0  0  2  0  0  0  0  0  0  0  0  0
    3.5084   -6.7034    3.8351 C   0  0  0  0  0  0  0  0  0  0  0  0
    2.4102   -7.2093    2.9028 C   0  0  2  0  0  0  0  0  0  0  0  0
    2.1743   -8.6892    2.7329 C   0  0  1  0  0  0  0  0  0  0  0  0
    3.0917   -9.5824    3.3061 O   0  0  0  0  0  0  0  0  0  0  0  0
    0.7857   -8.5057    3.4077 C   0  0  0  0  0  0  0  0  0  0  0  0
   -0.3904   -9.2487    2.7975 C   0  0  0  0  0  0  0  0  0  0  0  0
    0.7634   -8.7598    4.9251 C   0  0  0  0  0  0  0  0  0  0  0  0
    0.9502   -7.0147    3.0742 C   0  0  1  0  0  0  0  0  0  0  0  0
    0.6678   -5.7990    3.9068 C   0  0  0  0  0  0  0  0  0  0  0  0
    1.4211   -4.5547    3.3563 C   0  0  0  0  0  0  0  0  0  0  0  0
    2.5535   -4.7712    2.2604 C   0  0  1  0  0  0  0  0  0  0  0  0
    3.4595   -3.4906    2.0322 C   0  0  2  0  0  0  0  0  0  0  0  0
    2.8224   -2.1905    2.5979 C   0  0  0  0  0  0  0  0  0  0  0  0
    3.4761   -3.1049    0.6389 O   0  0  0  0  0  0  0  0  0  0  0  0
    3.8444   -3.9924   -0.3922 C   0  0  1  0  0  0  0  0  0  0  0  0
    3.7433   -3.2754   -1.6644 N   0  0  0  0  0  0  0  0  0  0  0  0
    2.5794   -3.0332   -2.3767 C   0  0  0  0  0  0  0  0  0  0  0  0
    2.9045   -2.3196   -3.5122 C   0  0  0  0  0  0  0  0  0  0  0  0
    4.3103   -2.1354   -3.5298 N   0  0  0  0  0  0  0  0  0  0  0  0
    4.7301   -2.7487   -2.4337 C   0  0  0  0  0  0  0  0  0  0  0  0
    4.9047   -3.5590    2.6292 C   0  0  1  0  0  0  0  0  0  0  0  0
    4.9066   -4.0015    3.9744 O   0  0  0  0  0  0  0  0  0  0  0  0
    5.8980   -4.3732    1.8104 C   0  0  2  0  0  0  0  0  0  0  0  0
    8.0329   -3.8306   -0.9836 H   0  0  0  0  0  0  0  0  0  0  0  0
    8.0246   -5.2118    0.0829 H   0  0  0  0  0  0  0  0  0  0  0  0
    8.5885   -3.6711    0.6706 H   0  0  0  0  0  0  0  0  0  0  0  0
    5.4341   -1.7650    0.5907 H   0  0  0  0  0  0  0  0  0  0  0  0
    6.6936   -1.8327   -0.6105 H   0  0  0  0  0  0  0  0  0  0  0  0
    7.1155   -1.7508    1.0885 H   0  0  0  0  0  0  0  0  0  0  0  0
    5.6004   -5.0747   -1.0581 H   0  0  0  0  0  0  0  0  0  0  0  0
    6.2703   -6.1938    0.7470 H   0  0  0  0  0  0  0  0  0  0  0  0
    3.6591   -6.7388    0.4542 H   0  0  0  0  0  0  0  0  0  0  0  0
    4.6853   -7.4922    1.6112 H   0  0  0  0  0  0  0  0  0  0  0  0
    4.3873   -7.3313    3.9797 H   0  0  0  0  0  0  0  0  0  0  0  0
    3.1975   -6.1373    4.7098 H   0  0  0  0  0  0  0  0  0  0  0  0
    2.0422   -8.9462    1.6763 H   0  0  0  0  0  0  0  0  0  0  0  0
    2.8316  -10.4371    2.9994 H   0  0  0  0  0  0  0  0  0  0  0  0
   -1.3378   -8.9079    3.2079 H   0  0  0  0  0  0  0  0  0  0  0  0
   -0.3183  -10.3181    2.9848 H   0  0  0  0  0  0  0  0  0  0  0  0
   -0.4355   -9.1070    1.7186 H   0  0  0  0  0  0  0  0  0  0  0  0
   -0.1417   -8.3479    5.3750 H   0  0  0  0  0  0  0  0  0  0  0  0
    1.6130   -8.2660    5.4056 H   0  0  0  0  0  0  0  0  0  0  0  0
    0.8260   -9.8229    5.1687 H   0  0  0  0  0  0  0  0  0  0  0  0
    0.5191   -6.8886    2.0714 H   0  0  0  0  0  0  0  0  0  0  0  0
   -0.4035   -5.6179    3.9460 H   0  0  0  0  0  0  0  0  0  0  0  0
    0.9542   -5.9645    4.9500 H   0  0  0  0  0  0  0  0  0  0  0  0
    0.6683   -3.9030    2.9127 H   0  0  0  0  0  0  0  0  0  0  0  0
    1.7966   -4.0120    4.2210 H   0  0  0  0  0  0  0  0  0  0  0  0
    1.9801   -4.9005    1.3478 H   0  0  0  0  0  0  0  0  0  0  0  0
    2.7977   -2.1709    3.6898 H   0  0  0  0  0  0  0  0  0  0  0  0
    1.8117   -2.0330    2.2210 H   0  0  0  0  0  0  0  0  0  0  0  0
    3.4030   -1.3139    2.2995 H   0  0  0  0  0  0  0  0  0  0  0  0
    3.1058   -4.7843   -0.4653 H   0  0  0  0  0  0  0  0  0  0  0  0
    1.6096   -3.3852   -2.0444 H   0  0  0  0  0  0  0  0  0  0  0  0
    2.3077   -1.9577   -4.3121 H   0  0  0  0  0  0  0  0  0  0  0  0
    5.7772   -2.8404   -2.2238 H   0  0  0  0  0  0  0  0  0  0  0  0
    5.2961   -2.5456    2.7063 H   0  0  0  0  0  0  0  0  0  0  0  0
    4.6015   -4.8913    3.9862 H   0  0  0  0  0  0  0  0  0  0  0  0
    6.7649   -4.6825    2.4015 H   0  0  0  0  0  0  0  0  0  0  0  0
  1  2  1  0
  1 31  1  0
  1 32  1  0
  1 33  1  0
  2 30  1  0
  2  3  1  0
  2  4  1  0
  3 34  1  0
  3 35  1  0
  3 36  1  0
  4 22  1  0
  4  5  1  0
  4 37  1  6
  5 30  1  0
  5  6  1  0
  5 38  1  6
  7  6  1  6
  6 39  1  0
  6 40  1  0
  7  9  1  0
  7 18  1  0
  7  8  1  0
  9  8  1  1
  8 41  1  0
  8 42  1  0
  9 15  1  0
  9 10  1  0
 10 11  1  0
 10 12  1  0
 10 43  1  6
 11 44  1  0
 12 13  1  0
 12 14  1  0
 12 15  1  0
 13 45  1  0
 13 46  1  0
 13 47  1  0
 14 48  1  0
 14 49  1  0
 14 50  1  0
 15 16  1  0
 15 51  1  6
 16 17  1  0
 16 52  1  0
 16 53  1  0
 17 18  1  0
 17 54  1  0
 17 55  1  0
 18 19  1  0
 18 56  1  6
 19 20  1  1
 19 21  1  0
 19 28  1  0
 20 57  1  0
 20 58  1  0
 20 59  1  0
 21 22  1  0
 22 23  1  0
 22 60  1  6
 23 27  1  0
 23 24  1  0
 24 25  2  0
 24 61  1  0
 25 26  1  0
 25 62  1  0
 26 27  2  0
 27 63  1  0
 28 29  1  0
 28 30  1  0
 28 64  1  1
 29 65  1  0
 30 66  1  1
M  END
>  <i_m_ct_stereo_status>  (36) 
1

>  <s_m_source_file>  (36) 
/var/tmp/pbs.5076255.sched01/tmp44bw07az/09l6mph0o.sdf

>  <i_m_source_file_index>  (36) 
16

>  <i_lp_mmshare_version>  (36) 
48012

>  <i_f3d_flags>  (36) 
0

>  <s_epik_input>  (36) 
W0NIM11DMShbQ0gzXSlbQ0BASF0oW0NAQEhdMltPSF0pW0NAQEhdKFtDSDJdMylbQ0BIXTFbQ0BIXShuNFtjSF1bY0hdbltjSF00KU9bQ0BAXTIoW0NIM10pW0NAQEhdNVtDSDJdW0NIMl1bQ0BASF0oW0NAQF02KFtDQEBdMzU3KVtDSDJdNylDKFtDSDNdKShbQ0gzXSlbQ0BASF02W09IXQ==

>  <s_epik_cmdline>  (36) 
J2VwaWtfcHl0aG9uJywgJy1waHQnLCAnMi4wJywgJy1waCcsICc3LjAnLCAnLXRuJywgJzgnLCAnLW1hJywgJzIwMCcsICctaW1hZScsICc8aW5maWxlLm1hZT4nLCAnLW9tYWUnLCAnPG91dGZpbGUubWFlPic=

>  <r_lp_tautomer_probability>  (36) 
1

>  <r_epik_Ionization_Penalty>  (36) 
0.656054

>  <r_epik_Ionization_Penalty_Charging>  (36) 
0.656051

>  <r_epik_Ionization_Penalty_Neutral>  (36) 
3.07236e-06

>  <r_epik_State_Penalty>  (36) 
0.674987

>  <r_epik_Charging_Adjusted_Penalty>  (36) 
1.33104

>  <i_epik_Tot_Q>  (36) 
0

>  <i_epik_Tot_abs_Q>  (36) 
0

>  <s_epik_Chemistry_Notes>  (36) 
This compound contains an acetal/aminal-like group ( X-CH(R)-Y where X, Y are N, S, or O) that may be acid/base labile, releasing an aldehyde.

>  <s_lp_Force_Field>  (36) 
OPLS3e

>  <r_lp_Energy>  (36) 
94.4294

>  <b_lp_Chiralities_Consistent>  (36) 
1

>  <s_lp_Variant>  (36) 
9:0-2

>  <s_i_glide_gridfile>  (36) 
pfpi4k_grid

>  <i_i_glide_lignum>  (36) 
16

>  <i_i_glide_rotatable_bonds>  (36) 
3

>  <r_i_docking_score>  (36) 
-3.34313

>  <r_i_glide_ligand_efficiency>  (36) 
-0.111438

>  <r_i_glide_ligand_efficiency_sa>  (36) 
-0.346262

>  <r_i_glide_ligand_efficiency_ln>  (36) 
-0.759595

>  <r_i_glide_gscore>  (36) 
-3.34313

>  <r_i_glide_lipo>  (36) 
-0.826606

>  <r_i_glide_hbond>  (36) 
0

>  <r_i_glide_metal>  (36) 
-0

>  <r_i_glide_rewards>  (36) 
-0.727382

>  <r_i_glide_evdw>  (36) 
-28.1305

>  <r_i_glide_ecoul>  (36) 
-3.21419

>  <r_i_glide_erotb>  (36) 
0.115858

>  <r_i_glide_esite>  (36) 
-0.0163384

>  <r_i_glide_emodel>  (36) 
-37.107

>  <r_i_glide_energy>  (36) 
-31.3447

>  <r_i_glide_einternal>  (36) 
0.346745

>  <r_i_glide_intrahb_reward>  (36) 
-0

>  <i_i_glide_confnum>  (36) 
2

>  <i_i_glide_posenum>  (36) 
16

>  <r_i_glide_eff_state_penalty>  (36) 
0

>  <ligand_id>  (36) 
9

>  <original_smiles>  (36) 
CC1(C)C2C3CC45CC46C(O)C(C)(C)C6CCC5C(C)(OC2n2ccnc2)C(O)C31

>  <smiles>  (36) 
[H]OC1([H])C2([H])C3([H])C([H])([H])C45C([H])([H])C46C([H])(O[H])C(C([H])([H])[H])(C([H])([H])[H])C6([H])C([H])([H])C([H])([H])C5([H])C1(C([H])([H])[H])OC([H])(n1c([H])nc([H])c1[H])C3([H])C2(C([H])([H])[H])C([H])([H])[H]

$$$$
9:1:2
     RDKit          3D

 66 72  0  0  1  0  0  0  0  0999 V2000
    7.9358   -4.1400    0.0463 C   0  0  0  0  0  0  0  0  0  0  0  0
    6.5331   -3.6928    0.5041 C   0  0  0  0  0  0  0  0  0  0  0  0
    6.5667   -2.1595    0.3742 C   0  0  0  0  0  0  0  0  0  0  0  0
    5.3376   -4.4468   -0.1394 C   0  0  1  0  0  0  0  0  0  0  0  0
    5.4641   -5.4765    0.9790 C   0  0  2  0  0  0  0  0  0  0  0  0
    4.2754   -6.3779    1.3185 C   0  0  0  0  0  0  0  0  0  0  0  0
    3.3560   -5.9625    2.4501 C   0  0  2  0  0  0  0  0  0  0  0  0
    3.5477   -6.5963    3.8231 C   0  0  0  0  0  0  0  0  0  0  0  0
    2.4162   -7.0273    2.9002 C   0  0  2  0  0  0  0  0  0  0  0  0
    2.1117   -8.4921    2.6794 C   0  0  1  0  0  0  0  0  0  0  0  0
    3.0210   -9.4410    3.1987 O   0  0  0  0  0  0  0  0  0  0  0  0
    0.7419   -8.2623    3.3866 C   0  0  0  0  0  0  0  0  0  0  0  0
   -0.4799   -8.9294    2.7610 C   0  0  0  0  0  0  0  0  0  0  0  0
    0.7232   -8.5548    4.8934 C   0  0  0  0  0  0  0  0  0  0  0  0
    0.9602   -6.7693    3.0780 C   0  0  1  0  0  0  0  0  0  0  0  0
    0.7503   -5.5656    3.9686 C   0  0  0  0  0  0  0  0  0  0  0  0
    1.5475   -4.3393    3.4343 C   0  0  0  0  0  0  0  0  0  0  0  0
    2.6629   -4.5759    2.3290 C   0  0  1  0  0  0  0  0  0  0  0  0
    3.6247   -3.3343    2.1250 C   0  0  2  0  0  0  0  0  0  0  0  0
    3.0594   -2.0202    2.7329 C   0  0  0  0  0  0  0  0  0  0  0  0
    3.6378   -2.9184    0.7429 O   0  0  0  0  0  0  0  0  0  0  0  0
    3.9566   -3.7863   -0.3240 C   0  0  1  0  0  0  0  0  0  0  0  0
    3.9047   -3.0255   -1.5685 N   0  0  0  0  0  0  0  0  0  0  0  0
    3.4292   -1.7345   -1.7589 C   0  0  0  0  0  0  0  0  0  0  0  0
    3.5213   -1.4590   -3.0989 C   0  0  0  0  0  0  0  0  0  0  0  0
    4.0494   -2.5608   -3.7689 N   0  0  0  0  0  0  0  0  0  0  0  0
    4.2370   -3.4461   -2.8002 C   0  0  0  0  0  0  0  0  0  0  0  0
    5.0724   -3.4864    2.6890 C   0  0  1  0  0  0  0  0  0  0  0  0
    5.0704   -3.9614    4.0194 O   0  0  0  0  0  0  0  0  0  0  0  0
    6.0202   -4.3268    1.8343 C   0  0  2  0  0  0  0  0  0  0  0  0
    8.1370   -3.8253   -0.9779 H   0  0  0  0  0  0  0  0  0  0  0  0
    8.0816   -5.2173    0.0751 H   0  0  0  0  0  0  0  0  0  0  0  0
    8.7169   -3.7115    0.6724 H   0  0  0  0  0  0  0  0  0  0  0  0
    5.6368   -1.6798    0.6778 H   0  0  0  0  0  0  0  0  0  0  0  0
    6.7380   -1.8535   -0.6588 H   0  0  0  0  0  0  0  0  0  0  0  0
    7.3501   -1.7213    0.9971 H   0  0  0  0  0  0  0  0  0  0  0  0
    5.6704   -4.9382   -1.0523 H   0  0  0  0  0  0  0  0  0  0  0  0
    6.2886   -6.1401    0.7182 H   0  0  0  0  0  0  0  0  0  0  0  0
    3.6536   -6.5403    0.4411 H   0  0  0  0  0  0  0  0  0  0  0  0
    4.6547   -7.3747    1.5597 H   0  0  0  0  0  0  0  0  0  0  0  0
    4.4043   -7.2600    3.9344 H   0  0  0  0  0  0  0  0  0  0  0  0
    3.2846   -6.0416    4.7211 H   0  0  0  0  0  0  0  0  0  0  0  0
    1.9438   -8.6976    1.6192 H   0  0  0  0  0  0  0  0  0  0  0  0
    3.0698   -9.3055    4.1310 H   0  0  0  0  0  0  0  0  0  0  0  0
   -1.4049   -8.5537    3.1912 H   0  0  0  0  0  0  0  0  0  0  0  0
   -0.4580  -10.0048    2.9198 H   0  0  0  0  0  0  0  0  0  0  0  0
   -0.5257   -8.7602    1.6885 H   0  0  0  0  0  0  0  0  0  0  0  0
   -0.1581   -8.1140    5.3693 H   0  0  0  0  0  0  0  0  0  0  0  0
    1.6002   -8.1132    5.3823 H   0  0  0  0  0  0  0  0  0  0  0  0
    0.7357   -9.6277    5.1047 H   0  0  0  0  0  0  0  0  0  0  0  0
    0.5211   -6.5835    2.0951 H   0  0  0  0  0  0  0  0  0  0  0  0
   -0.3087   -5.3387    4.0421 H   0  0  0  0  0  0  0  0  0  0  0  0
    1.0535   -5.7771    4.9938 H   0  0  0  0  0  0  0  0  0  0  0  0
    0.8241   -3.6375    3.0187 H   0  0  0  0  0  0  0  0  0  0  0  0
    1.9593   -3.8434    4.3110 H   0  0  0  0  0  0  0  0  0  0  0  0
    2.0777   -4.6534    1.4177 H   0  0  0  0  0  0  0  0  0  0  0  0
    3.0433   -2.0301    3.8247 H   0  0  0  0  0  0  0  0  0  0  0  0
    2.0521   -1.8063    2.3722 H   0  0  0  0  0  0  0  0  0  0  0  0
    3.6776   -1.1637    2.4496 H   0  0  0  0  0  0  0  0  0  0  0  0
    3.1743   -4.5348   -0.4238 H   0  0  0  0  0  0  0  0  0  0  0  0
    3.0443   -1.1311   -0.9457 H   0  0  0  0  0  0  0  0  0  0  0  0
    3.2317   -0.5693   -3.6432 H   0  0  0  0  0  0  0  0  0  0  0  0
    4.6157   -4.4351   -2.9954 H   0  0  0  0  0  0  0  0  0  0  0  0
    5.5194   -2.4977    2.7803 H   0  0  0  0  0  0  0  0  0  0  0  0
    4.5945   -3.3446    4.5546 H   0  0  0  0  0  0  0  0  0  0  0  0
    6.8780   -4.6812    2.4108 H   0  0  0  0  0  0  0  0  0  0  0  0
  1  2  1  0
  1 31  1  0
  1 32  1  0
  1 33  1  0
  2 30  1  0
  2  3  1  0
  2  4  1  0
  3 34  1  0
  3 35  1  0
  3 36  1  0
  4 22  1  0
  4  5  1  0
  4 37  1  6
  5 30  1  0
  5  6  1  0
  5 38  1  6
  7  6  1  6
  6 39  1  0
  6 40  1  0
  7  9  1  0
  7 18  1  0
  7  8  1  0
  9  8  1  1
  8 41  1  0
  8 42  1  0
  9 15  1  0
  9 10  1  0
 10 11  1  0
 10 12  1  0
 10 43  1  6
 11 44  1  0
 12 13  1  0
 12 14  1  0
 12 15  1  0
 13 45  1  0
 13 46  1  0
 13 47  1  0
 14 48  1  0
 14 49  1  0
 14 50  1  0
 15 16  1  0
 15 51  1  6
 16 17  1  0
 16 52  1  0
 16 53  1  0
 17 18  1  0
 17 54  1  0
 17 55  1  0
 18 19  1  0
 18 56  1  6
 19 20  1  1
 19 21  1  0
 19 28  1  0
 20 57  1  0
 20 58  1  0
 20 59  1  0
 21 22  1  0
 22 23  1  0
 22 60  1  6
 23 27  1  0
 23 24  1  0
 24 25  2  0
 24 61  1  0
 25 26  1  0
 25 62  1  0
 26 27  2  0
 27 63  1  0
 28 29  1  0
 28 30  1  0
 28 64  1  1
 29 65  1  0
 30 66  1  1
M  END
>  <i_m_ct_stereo_status>  (37) 
1

>  <s_m_source_file>  (37) 
/var/tmp/pbs.5076255.sched01/tmp44bw07az/09l6mph0o.sdf

>  <i_m_source_file_index>  (37) 
16

>  <i_lp_mmshare_version>  (37) 
48012

>  <i_f3d_flags>  (37) 
0

>  <s_epik_input>  (37) 
W0NIM11DMShbQ0gzXSlbQ0BASF0oW0NAQEhdMltPSF0pW0NAQEhdKFtDSDJdMylbQ0BIXTFbQ0BIXShuNFtjSF1bY0hdbltjSF00KU9bQ0BAXTIoW0NIM10pW0NAQEhdNVtDSDJdW0NIMl1bQ0BASF0oW0NAQF02KFtDQEBdMzU3KVtDSDJdNylDKFtDSDNdKShbQ0gzXSlbQ0BASF02W09IXQ==

>  <s_epik_cmdline>  (37) 
J2VwaWtfcHl0aG9uJywgJy1waHQnLCAnMi4wJywgJy1waCcsICc3LjAnLCAnLXRuJywgJzgnLCAnLW1hJywgJzIwMCcsICctaW1hZScsICc8aW5maWxlLm1hZT4nLCAnLW9tYWUnLCAnPG91dGZpbGUubWFlPic=

>  <r_lp_tautomer_probability>  (37) 
1

>  <r_epik_Ionization_Penalty>  (37) 
0.656054

>  <r_epik_Ionization_Penalty_Charging>  (37) 
0.656051

>  <r_epik_Ionization_Penalty_Neutral>  (37) 
3.07236e-06

>  <r_epik_State_Penalty>  (37) 
0.674987

>  <r_epik_Charging_Adjusted_Penalty>  (37) 
1.33104

>  <i_epik_Tot_Q>  (37) 
0

>  <i_epik_Tot_abs_Q>  (37) 
0

>  <s_epik_Chemistry_Notes>  (37) 
This compound contains an acetal/aminal-like group ( X-CH(R)-Y where X, Y are N, S, or O) that may be acid/base labile, releasing an aldehyde.

>  <s_lp_Force_Field>  (37) 
OPLS3e

>  <r_lp_Energy>  (37) 
94.4294

>  <b_lp_Chiralities_Consistent>  (37) 
1

>  <s_lp_Variant>  (37) 
9:0-2

>  <s_i_glide_gridfile>  (37) 
pfpi4k_grid

>  <i_i_glide_lignum>  (37) 
16

>  <i_i_glide_rotatable_bonds>  (37) 
3

>  <r_i_docking_score>  (37) 
-3.13247

>  <r_i_glide_ligand_efficiency>  (37) 
-0.104416

>  <r_i_glide_ligand_efficiency_sa>  (37) 
-0.324444

>  <r_i_glide_ligand_efficiency_ln>  (37) 
-0.711732

>  <r_i_glide_gscore>  (37) 
-3.13247

>  <r_i_glide_lipo>  (37) 
-0.643688

>  <r_i_glide_hbond>  (37) 
-0.0455663

>  <r_i_glide_metal>  (37) 
-0

>  <r_i_glide_rewards>  (37) 
-0.596148

>  <r_i_glide_evdw>  (37) 
-27.6301

>  <r_i_glide_ecoul>  (37) 
-3.6516

>  <r_i_glide_erotb>  (37) 
0.115858

>  <r_i_glide_esite>  (37) 
-0.0336829

>  <r_i_glide_emodel>  (37) 
-36.0697

>  <r_i_glide_energy>  (37) 
-31.2817

>  <r_i_glide_einternal>  (37) 
1.69164

>  <r_i_glide_intrahb_reward>  (37) 
-0

>  <i_i_glide_confnum>  (37) 
1

>  <i_i_glide_posenum>  (37) 
22

>  <r_i_glide_eff_state_penalty>  (37) 
0

>  <ligand_id>  (37) 
9

>  <original_smiles>  (37) 
CC1(C)C2C3CC45CC46C(O)C(C)(C)C6CCC5C(C)(OC2n2ccnc2)C(O)C31

>  <smiles>  (37) 
[H]OC1([H])C2([H])C3([H])C([H])([H])C45C([H])([H])C46C([H])(O[H])C(C([H])([H])[H])(C([H])([H])[H])C6([H])C([H])([H])C([H])([H])C5([H])C1(C([H])([H])[H])OC([H])(n1c([H])nc([H])c1[H])C3([H])C2(C([H])([H])[H])C([H])([H])[H]

$$$$
10:0:0
     RDKit          3D

 68 72  0  0  1  0  0  0  0  0999 V2000
    4.7388   -6.1115    0.0318 C   0  0  0  0  0  0  0  0  0  0  0  0
    4.4027   -4.8598    0.8499 C   0  0  2  0  0  0  0  0  0  0  0  0
    5.6862   -4.0181    1.0256 C   0  0  0  0  0  0  0  0  0  0  0  0
    5.5897   -2.9618    2.1273 C   0  0  0  0  0  0  0  0  0  0  0  0
    4.1340   -2.5939    2.4004 C   0  0  2  0  0  0  0  0  0  0  0  0
    3.9347   -1.3715    3.3020 C   0  0  1  0  0  0  0  0  0  0  0  0
    4.7165   -0.1232    2.8132 C   0  0  0  0  0  0  0  0  0  0  0  0
    2.4113   -1.1016    3.3337 C   0  0  1  0  0  0  0  0  0  0  0  0
    1.9870   -0.6863    2.0661 O   0  0  0  0  0  0  0  0  0  0  0  0
    1.2625    0.5500    2.0221 C   0  0  0  0  0  0  0  0  0  0  0  0
    2.2166    1.7129    2.4519 C   0  0  0  0  0  0  0  0  0  0  0  0
    1.5498    3.0233    2.7038 N   0  0  0  0  0  0  0  0  0  0  0  0
    2.5764    4.0816    2.9364 C   0  0  0  0  0  0  0  0  0  0  0  0
    1.8873    5.4293    3.2015 C   0  0  0  0  0  0  0  0  0  0  0  0
    1.0082    5.3189    4.3646 N   0  0  0  0  0  0  0  0  0  0  0  0
    0.3458    6.5885    4.5831 C   0  0  0  0  0  0  0  0  0  0  0  0
   -0.0160    4.3098    4.1055 C   0  0  0  0  0  0  0  0  0  0  0  0
    0.6492    2.9560    3.8777 C   0  0  0  0  0  0  0  0  0  0  0  0
    1.7392   -2.2233    3.8102 O   0  0  0  0  0  0  0  0  0  0  0  0
    1.8770   -3.3868    3.0503 C   0  0  2  0  0  0  0  0  0  0  0  0
    1.0536   -4.3720    3.6111 O   0  0  0  0  0  0  0  0  0  0  0  0
    1.7017   -5.3295    4.4367 C   0  0  1  0  0  0  0  0  0  0  0  0
    0.6843   -5.7190    5.5213 C   0  0  0  0  0  0  0  0  0  0  0  0
    2.0286   -6.5378    3.5382 C   0  0  0  0  0  0  0  0  0  0  0  0
    2.5643   -6.1454    2.1562 C   0  0  0  0  0  0  0  0  0  0  0  0
    3.7087   -5.1215    2.2212 C   0  0  2  0  0  0  0  0  0  0  0  0
    3.3774   -3.8072    3.0118 C   0  0  1  0  0  0  0  0  0  0  0  0
    3.8077   -4.0372    4.3393 O   0  0  0  0  0  0  0  0  0  0  0  0
    2.8233   -4.8150    5.1666 O   0  0  0  0  0  0  0  0  0  0  0  0
    5.3821   -6.7938    0.5846 H   0  0  0  0  0  0  0  0  0  0  0  0
    5.2598   -5.8139   -0.8719 H   0  0  0  0  0  0  0  0  0  0  0  0
    3.8451   -6.6403   -0.2806 H   0  0  0  0  0  0  0  0  0  0  0  0
    3.7083   -4.2749    0.2389 H   0  0  0  0  0  0  0  0  0  0  0  0
    6.5609   -4.6498    1.2087 H   0  0  0  0  0  0  0  0  0  0  0  0
    5.8817   -3.5028    0.0881 H   0  0  0  0  0  0  0  0  0  0  0  0
    6.0060   -3.3570    3.0470 H   0  0  0  0  0  0  0  0  0  0  0  0
    6.1879   -2.1057    1.8329 H   0  0  0  0  0  0  0  0  0  0  0  0
    3.6694   -2.3496    1.4379 H   0  0  0  0  0  0  0  0  0  0  0  0
    4.2598   -1.5764    4.3234 H   0  0  0  0  0  0  0  0  0  0  0  0
    4.4778    0.0924    1.7626 H   0  0  0  0  0  0  0  0  0  0  0  0
    5.8069   -0.2840    2.8235 H   0  0  0  0  0  0  0  0  0  0  0  0
    4.4609    0.7550    3.4131 H   0  0  0  0  0  0  0  0  0  0  0  0
    2.1717   -0.3654    4.1029 H   0  0  0  0  0  0  0  0  0  0  0  0
    0.9070    0.7211    0.9929 H   0  0  0  0  0  0  0  0  0  0  0  0
    0.3675    0.4538    2.6461 H   0  0  0  0  0  0  0  0  0  0  0  0
    2.7926    1.4890    3.3413 H   0  0  0  0  0  0  0  0  0  0  0  0
    2.9800    1.8171    1.6878 H   0  0  0  0  0  0  0  0  0  0  0  0
    3.2080    3.8210    3.7804 H   0  0  0  0  0  0  0  0  0  0  0  0
    3.2471    4.1747    2.0867 H   0  0  0  0  0  0  0  0  0  0  0  0
    2.6369    6.2057    3.3806 H   0  0  0  0  0  0  0  0  0  0  0  0
    1.3138    5.7325    2.3271 H   0  0  0  0  0  0  0  0  0  0  0  0
   -0.3626    6.4978    5.4055 H   0  0  0  0  0  0  0  0  0  0  0  0
   -0.1876    6.9046    3.6901 H   0  0  0  0  0  0  0  0  0  0  0  0
    1.0839    7.3475    4.8341 H   0  0  0  0  0  0  0  0  0  0  0  0
   -0.6778    4.2324    4.9674 H   0  0  0  0  0  0  0  0  0  0  0  0
   -0.6185    4.5686    3.2356 H   0  0  0  0  0  0  0  0  0  0  0  0
   -0.1432    2.2187    3.7447 H   0  0  0  0  0  0  0  0  0  0  0  0
    1.2089    2.6697    4.7686 H   0  0  0  0  0  0  0  0  0  0  0  0
    1.4785   -3.1724    2.0673 H   0  0  0  0  0  0  0  0  0  0  0  0
    0.4600   -4.8596    6.1432 H   0  0  0  0  0  0  0  0  0  0  0  0
    1.0845   -6.5006    6.1602 H   0  0  0  0  0  0  0  0  0  0  0  0
   -0.2544   -6.0760    5.0931 H   0  0  0  0  0  0  0  0  0  0  0  0
    2.7149   -7.2020    4.0617 H   0  0  0  0  0  0  0  0  0  0  0  0
    1.1142   -7.1168    3.3756 H   0  0  0  0  0  0  0  0  0  0  0  0
    2.9024   -7.0697    1.6886 H   0  0  0  0  0  0  0  0  0  0  0  0
    1.7632   -5.7633    1.5198 H   0  0  0  0  0  0  0  0  0  0  0  0
    4.4793   -5.6224    2.8059 H   0  0  0  0  0  0  0  0  0  0  0  0
    0.9994    3.3687    1.9097 H   0  0  0  0  0  0  0  0  0  0  0  0
  1  2  1  0
  1 30  1  0
  1 31  1  0
  1 32  1  0
  2 26  1  0
  2  3  1  0
  2 33  1  6
  3  4  1  0
  3 34  1  0
  3 35  1  0
  4  5  1  0
  4 36  1  0
  4 37  1  0
  5 27  1  0
  5  6  1  0
  5 38  1  6
  6  7  1  0
  6  8  1  0
  6 39  1  1
  7 40  1  0
  7 41  1  0
  7 42  1  0
  8  9  1  0
  8 19  1  0
  8 43  1  1
  9 10  1  0
 10 11  1  0
 10 44  1  0
 10 45  1  0
 11 12  1  0
 11 46  1  0
 11 47  1  0
 12 18  1  0
 12 13  1  0
 12 68  1  0
 13 14  1  0
 13 48  1  0
 13 49  1  0
 14 15  1  0
 14 50  1  0
 14 51  1  0
 15 16  1  0
 15 17  1  0
 16 52  1  0
 16 53  1  0
 16 54  1  0
 17 18  1  0
 17 55  1  0
 17 56  1  0
 18 57  1  0
 18 58  1  0
 19 20  1  0
 20 27  1  0
 20 21  1  0
 20 59  1  6
 21 22  1  0
 22 29  1  0
 22 23  1  1
 22 24  1  0
 23 60  1  0
 23 61  1  0
 23 62  1  0
 24 25  1  0
 24 63  1  0
 24 64  1  0
 25 26  1  0
 25 65  1  0
 25 66  1  0
 26 27  1  0
 26 67  1  1
 27 28  1  1
 28 29  1  0
M  CHG  1  12   1
M  END
>  <i_m_ct_stereo_status>  (38) 
1

>  <s_m_source_file>  (38) 
/var/tmp/pbs.5076255.sched01/tmp44bw07az/09l6mph0o.sdf

>  <i_m_source_file_index>  (38) 
17

>  <i_lp_mmshare_version>  (38) 
48012

>  <i_f3d_flags>  (38) 
0

>  <s_epik_input>  (38) 
W0NAXTEyM1tDQEBIXTRbQ0gyXVtDSDJdW0NAQEhdKFtDSDNdKVtDQEBIXTJbQ0gyXVtDSDJdW0NAQF0oW0NIM10pKE9PMylPW0NASF0xT1tDQEBIXShbQ0BASF00W0NIM10pT1tDSDJdW0NIMl1ONVtDSDJdW0NIMl1OKFtDSDNdKVtDSDJdW0NIMl01

>  <s_epik_cmdline>  (38) 
J2VwaWtfcHl0aG9uJywgJy1waHQnLCAnMi4wJywgJy1waCcsICc3LjAnLCAnLXRuJywgJzgnLCAnLW1hJywgJzIwMCcsICctaW1hZScsICc8aW5maWxlLm1hZT4nLCAnLW9tYWUnLCAnPG91dGZpbGUubWFlPic=

>  <r_epik_Ionization_Penalty>  (38) 
0.0280474

>  <r_epik_Ionization_Penalty_Charging>  (38) 
0.026436

>  <r_epik_Ionization_Penalty_Neutral>  (38) 
0.0016114

>  <r_epik_State_Penalty>  (38) 
0.389882

>  <r_epik_Charging_Adjusted_Penalty>  (38) 
0.416318

>  <i_epik_Tot_Q>  (38) 
1

>  <i_epik_Tot_abs_Q>  (38) 
1

>  <s_epik_Chemistry_Notes>  (38) 
This compound contains an acetal/aminal-like group ( X-CH(R)-Y where X, Y are N, S, or O) that may be acid/base labile, releasing an aldehyde.

>  <s_lp_Force_Field>  (38) 
OPLS3e

>  <r_lp_Energy>  (38) 
62.4

>  <b_lp_Chiralities_Consistent>  (38) 
1

>  <s_lp_Variant>  (38) 
10:0-1

>  <s_i_glide_gridfile>  (38) 
pfpi4k_grid

>  <i_i_glide_lignum>  (38) 
17

>  <i_i_glide_rotatable_bonds>  (38) 
4

>  <r_i_docking_score>  (38) 
-2.47614

>  <r_i_glide_ligand_efficiency>  (38) 
-0.0853843

>  <r_i_glide_ligand_efficiency_sa>  (38) 
-0.262328

>  <r_i_glide_ligand_efficiency_ln>  (38) 
-0.566974

>  <r_i_glide_gscore>  (38) 
-2.47614

>  <r_i_glide_lipo>  (38) 
-0.348541

>  <r_i_glide_hbond>  (38) 
-0.2

>  <r_i_glide_metal>  (38) 
-0

>  <r_i_glide_rewards>  (38) 
-0.611887

>  <r_i_glide_evdw>  (38) 
-19.6131

>  <r_i_glide_ecoul>  (38) 
-4.72658

>  <r_i_glide_erotb>  (38) 
0.465484

>  <r_i_glide_esite>  (38) 
-0.0915601

>  <r_i_glide_emodel>  (38) 
-25.0189

>  <r_i_glide_energy>  (38) 
-24.3397

>  <r_i_glide_einternal>  (38) 
4.38346

>  <r_i_glide_intrahb_reward>  (38) 
-0

>  <i_i_glide_confnum>  (38) 
3

>  <i_i_glide_posenum>  (38) 
11

>  <r_i_glide_eff_state_penalty>  (38) 
0

>  <ligand_id>  (38) 
10

>  <original_smiles>  (38) 
CC1CCC2C(C)C(OCCN3CCN(C)CC3)OC3OC4(C)CCC1C32OO4

>  <smiles>  (38) 
[H]C([H])([H])N1C([H])([H])C([H])([H])[N+]([H])(C([H])([H])C([H])([H])OC2([H])OC3([H])OC4(C([H])([H])[H])OOC35C([H])(C([H])([H])C([H])([H])C([H])(C([H])([H])[H])C5([H])C([H])([H])C4([H])[H])C2([H])C([H])([H])[H])C([H])([H])C1([H])[H]

$$$$
10:0:1
     RDKit          3D

 68 72  0  0  1  0  0  0  0  0999 V2000
    6.3202   -5.4887    4.5859 C   0  0  0  0  0  0  0  0  0  0  0  0
    5.2571   -4.5593    3.9790 C   0  0  2  0  0  0  0  0  0  0  0  0
    3.8693   -4.9664    4.5427 C   0  0  0  0  0  0  0  0  0  0  0  0
    2.6813   -4.3893    3.7669 C   0  0  0  0  0  0  0  0  0  0  0  0
    3.1128   -3.1417    2.9915 C   0  0  2  0  0  0  0  0  0  0  0  0
    1.9640   -2.3361    2.3918 C   0  0  1  0  0  0  0  0  0  0  0  0
    0.8924   -1.8840    3.4075 C   0  0  0  0  0  0  0  0  0  0  0  0
    2.5547   -1.0951    1.7004 C   0  0  1  0  0  0  0  0  0  0  0  0
    2.9709   -0.2063    2.6842 O   0  0  0  0  0  0  0  0  0  0  0  0
    3.0540    1.1459    2.2784 C   0  0  0  0  0  0  0  0  0  0  0  0
    1.6800    1.7459    1.9278 C   0  0  0  0  0  0  0  0  0  0  0  0
    0.7991    1.8214    3.1256 N   0  0  0  0  0  0  0  0  0  0  0  0
   -0.6365    1.7611    2.7734 C   0  0  0  0  0  0  0  0  0  0  0  0
   -1.5384    1.8408    4.0216 C   0  0  0  0  0  0  0  0  0  0  0  0
   -1.2447    3.0719    4.7613 N   0  0  0  0  0  0  0  0  0  0  0  0
   -2.1008    3.1458    5.9290 C   0  0  0  0  0  0  0  0  0  0  0  0
    0.1506    3.0674    5.1902 C   0  0  0  0  0  0  0  0  0  0  0  0
    1.0717    3.0184    3.9578 C   0  0  0  0  0  0  0  0  0  0  0  0
    3.5585   -1.4486    0.7896 O   0  0  0  0  0  0  0  0  0  0  0  0
    4.6414   -2.1795    1.2893 C   0  0  2  0  0  0  0  0  0  0  0  0
    5.5350   -2.3521    0.2345 O   0  0  0  0  0  0  0  0  0  0  0  0
    5.4833   -3.6061   -0.4391 C   0  0  1  0  0  0  0  0  0  0  0  0
    5.8293   -3.3272   -1.9141 C   0  0  0  0  0  0  0  0  0  0  0  0
    6.5603   -4.4755    0.2292 C   0  0  0  0  0  0  0  0  0  0  0  0
    6.5921   -4.3388    1.7526 C   0  0  0  0  0  0  0  0  0  0  0  0
    5.2149   -4.5106    2.4183 C   0  0  2  0  0  0  0  0  0  0  0  0
    4.1244   -3.5324    1.8764 C   0  0  1  0  0  0  0  0  0  0  0  0
    3.4484   -4.2300    0.8354 O   0  0  0  0  0  0  0  0  0  0  0  0
    4.1845   -4.2128   -0.4836 O   0  0  0  0  0  0  0  0  0  0  0  0
    6.2256   -6.5046    4.2123 H   0  0  0  0  0  0  0  0  0  0  0  0
    6.2215   -5.5181    5.6674 H   0  0  0  0  0  0  0  0  0  0  0  0
    7.3279   -5.1472    4.3868 H   0  0  0  0  0  0  0  0  0  0  0  0
    5.4837   -3.5479    4.3361 H   0  0  0  0  0  0  0  0  0  0  0  0
    3.7693   -6.0523    4.6358 H   0  0  0  0  0  0  0  0  0  0  0  0
    3.8047   -4.5729    5.5527 H   0  0  0  0  0  0  0  0  0  0  0  0
    2.3230   -5.1398    3.0634 H   0  0  0  0  0  0  0  0  0  0  0  0
    1.8574   -4.1756    4.4529 H   0  0  0  0  0  0  0  0  0  0  0  0
    3.6183   -2.4792    3.6967 H   0  0  0  0  0  0  0  0  0  0  0  0
    1.4819   -2.9114    1.6095 H   0  0  0  0  0  0  0  0  0  0  0  0
    1.3248   -1.3913    4.2818 H   0  0  0  0  0  0  0  0  0  0  0  0
    0.2885   -2.7188    3.7558 H   0  0  0  0  0  0  0  0  0  0  0  0
    0.2114   -1.1764    2.9466 H   0  0  0  0  0  0  0  0  0  0  0  0
    1.7741   -0.6472    1.1225 H   0  0  0  0  0  0  0  0  0  0  0  0
    3.5219    1.6763    3.1086 H   0  0  0  0  0  0  0  0  0  0  0  0
    3.7424    1.2539    1.4425 H   0  0  0  0  0  0  0  0  0  0  0  0
    1.8236    2.7601    1.5346 H   0  0  0  0  0  0  0  0  0  0  0  0
    1.2247    1.1696    1.1165 H   0  0  0  0  0  0  0  0  0  0  0  0
   -0.8641    2.5780    2.0942 H   0  0  0  0  0  0  0  0  0  0  0  0
   -0.8551    0.8385    2.2406 H   0  0  0  0  0  0  0  0  0  0  0  0
   -2.5862    1.8490    3.7074 H   0  0  0  0  0  0  0  0  0  0  0  0
   -1.3993    0.9645    4.6581 H   0  0  0  0  0  0  0  0  0  0  0  0
   -1.8451    4.0223    6.5251 H   0  0  0  0  0  0  0  0  0  0  0  0
   -1.9970    2.2569    6.5530 H   0  0  0  0  0  0  0  0  0  0  0  0
   -3.1381    3.2392    5.6125 H   0  0  0  0  0  0  0  0  0  0  0  0
    0.3536    3.9862    5.7480 H   0  0  0  0  0  0  0  0  0  0  0  0
    0.3468    2.2275    5.8631 H   0  0  0  0  0  0  0  0  0  0  0  0
    2.0990    3.0369    4.3173 H   0  0  0  0  0  0  0  0  0  0  0  0
    0.9309    3.9143    3.3525 H   0  0  0  0  0  0  0  0  0  0  0  0
    5.1542   -1.5668    2.0391 H   0  0  0  0  0  0  0  0  0  0  0  0
    5.0647   -2.7035   -2.3671 H   0  0  0  0  0  0  0  0  0  0  0  0
    5.8550   -4.2525   -2.4805 H   0  0  0  0  0  0  0  0  0  0  0  0
    6.7863   -2.8169   -2.0297 H   0  0  0  0  0  0  0  0  0  0  0  0
    6.4193   -5.5110   -0.0681 H   0  0  0  0  0  0  0  0  0  0  0  0
    7.5393   -4.1626   -0.1379 H   0  0  0  0  0  0  0  0  0  0  0  0
    7.2818   -5.0926    2.1193 H   0  0  0  0  0  0  0  0  0  0  0  0
    6.9957   -3.3677    2.0373 H   0  0  0  0  0  0  0  0  0  0  0  0
    4.8870   -5.5106    2.1208 H   0  0  0  0  0  0  0  0  0  0  0  0
    0.9740    1.0215    3.7199 H   0  0  0  0  0  0  0  0  0  0  0  0
  1  2  1  0
  1 30  1  0
  1 31  1  0
  1 32  1  0
  2 26  1  0
  2  3  1  0
  2 33  1  1
  3  4  1  0
  3 34  1  0
  3 35  1  0
  4  5  1  0
  4 36  1  0
  4 37  1  0
  5 27  1  0
  5  6  1  0
  5 38  1  1
  6  7  1  0
  6  8  1  0
  6 39  1  6
  7 40  1  0
  7 41  1  0
  7 42  1  0
  8  9  1  0
  8 19  1  0
  8 43  1  6
  9 10  1  0
 10 11  1  0
 10 44  1  0
 10 45  1  0
 11 12  1  0
 11 46  1  0
 11 47  1  0
 12 18  1  0
 12 13  1  0
 12 68  1  0
 13 14  1  0
 13 48  1  0
 13 49  1  0
 14 15  1  0
 14 50  1  0
 14 51  1  0
 15 16  1  0
 15 17  1  0
 16 52  1  0
 16 53  1  0
 16 54  1  0
 17 18  1  0
 17 55  1  0
 17 56  1  0
 18 57  1  0
 18 58  1  0
 19 20  1  0
 20 27  1  0
 20 21  1  0
 20 59  1  1
 21 22  1  0
 22 29  1  0
 22 23  1  6
 22 24  1  0
 23 60  1  0
 23 61  1  0
 23 62  1  0
 24 25  1  0
 24 63  1  0
 24 64  1  0
 25 26  1  0
 25 65  1  0
 25 66  1  0
 26 27  1  0
 26 67  1  6
 27 28  1  6
 28 29  1  0
M  CHG  1  12   1
M  END
>  <i_m_ct_stereo_status>  (39) 
1

>  <s_m_source_file>  (39) 
/var/tmp/pbs.5076255.sched01/tmp44bw07az/09l6mph0o.sdf

>  <i_m_source_file_index>  (39) 
17

>  <i_lp_mmshare_version>  (39) 
48012

>  <i_f3d_flags>  (39) 
0

>  <s_epik_input>  (39) 
W0NAXTEyM1tDQEBIXTRbQ0gyXVtDSDJdW0NAQEhdKFtDSDNdKVtDQEBIXTJbQ0gyXVtDSDJdW0NAQF0oW0NIM10pKE9PMylPW0NASF0xT1tDQEBIXShbQ0BASF00W0NIM10pT1tDSDJdW0NIMl1ONVtDSDJdW0NIMl1OKFtDSDNdKVtDSDJdW0NIMl01

>  <s_epik_cmdline>  (39) 
J2VwaWtfcHl0aG9uJywgJy1waHQnLCAnMi4wJywgJy1waCcsICc3LjAnLCAnLXRuJywgJzgnLCAnLW1hJywgJzIwMCcsICctaW1hZScsICc8aW5maWxlLm1hZT4nLCAnLW9tYWUnLCAnPG91dGZpbGUubWFlPic=

>  <r_epik_Ionization_Penalty>  (39) 
0.0280474

>  <r_epik_Ionization_Penalty_Charging>  (39) 
0.026436

>  <r_epik_Ionization_Penalty_Neutral>  (39) 
0.0016114

>  <r_epik_State_Penalty>  (39) 
0.389882

>  <r_epik_Charging_Adjusted_Penalty>  (39) 
0.416318

>  <i_epik_Tot_Q>  (39) 
1

>  <i_epik_Tot_abs_Q>  (39) 
1

>  <s_epik_Chemistry_Notes>  (39) 
This compound contains an acetal/aminal-like group ( X-CH(R)-Y where X, Y are N, S, or O) that may be acid/base labile, releasing an aldehyde.

>  <s_lp_Force_Field>  (39) 
OPLS3e

>  <r_lp_Energy>  (39) 
62.4

>  <b_lp_Chiralities_Consistent>  (39) 
1

>  <s_lp_Variant>  (39) 
10:0-1

>  <s_i_glide_gridfile>  (39) 
pfpi4k_grid

>  <i_i_glide_lignum>  (39) 
17

>  <i_i_glide_rotatable_bonds>  (39) 
4

>  <r_i_docking_score>  (39) 
-2.34168

>  <r_i_glide_ligand_efficiency>  (39) 
-0.0807476

>  <r_i_glide_ligand_efficiency_sa>  (39) 
-0.248082

>  <r_i_glide_ligand_efficiency_ln>  (39) 
-0.536185

>  <r_i_glide_gscore>  (39) 
-2.34168

>  <r_i_glide_lipo>  (39) 
-0.46958

>  <r_i_glide_hbond>  (39) 
0

>  <r_i_glide_metal>  (39) 
-0

>  <r_i_glide_rewards>  (39) 
-0.713786

>  <r_i_glide_evdw>  (39) 
-19.5479

>  <r_i_glide_ecoul>  (39) 
-3.67507

>  <r_i_glide_erotb>  (39) 
0.465484

>  <r_i_glide_esite>  (39) 
-0.0951412

>  <r_i_glide_emodel>  (39) 
-25.0412

>  <r_i_glide_energy>  (39) 
-23.223

>  <r_i_glide_einternal>  (39) 
3.72507

>  <r_i_glide_intrahb_reward>  (39) 
-0

>  <i_i_glide_confnum>  (39) 
5

>  <i_i_glide_posenum>  (39) 
1

>  <r_i_glide_eff_state_penalty>  (39) 
0

>  <ligand_id>  (39) 
10

>  <original_smiles>  (39) 
CC1CCC2C(C)C(OCCN3CCN(C)CC3)OC3OC4(C)CCC1C32OO4

>  <smiles>  (39) 
[H]C([H])([H])N1C([H])([H])C([H])([H])[N+]([H])(C([H])([H])C([H])([H])OC2([H])OC3([H])OC4(C([H])([H])[H])OOC35C([H])(C([H])([H])C([H])([H])C([H])(C([H])([H])[H])C5([H])C([H])([H])C4([H])[H])C2([H])C([H])([H])[H])C([H])([H])C1([H])[H]

$$$$
10:0:2
     RDKit          3D

 68 72  0  0  1  0  0  0  0  0999 V2000
    4.4360   -8.7780    1.0921 C   0  0  0  0  0  0  0  0  0  0  0  0
    3.9955   -7.7303    2.1305 C   0  0  2  0  0  0  0  0  0  0  0  0
    5.0625   -7.6540    3.2561 C   0  0  0  0  0  0  0  0  0  0  0  0
    4.5763   -6.9542    4.5334 C   0  0  0  0  0  0  0  0  0  0  0  0
    3.4060   -6.0107    4.2104 C   0  0  2  0  0  0  0  0  0  0  0  0
    3.0261   -5.0456    5.3451 C   0  0  1  0  0  0  0  0  0  0  0  0
    4.1889   -4.1758    5.8742 C   0  0  0  0  0  0  0  0  0  0  0  0
    1.9319   -4.1220    4.7943 C   0  0  1  0  0  0  0  0  0  0  0  0
    2.4562   -3.2933    3.7864 O   0  0  0  0  0  0  0  0  0  0  0  0
    1.5798   -2.2356    3.4133 C   0  0  0  0  0  0  0  0  0  0  0  0
    2.4083   -1.0442    2.8794 C   0  0  0  0  0  0  0  0  0  0  0  0
    1.7044    0.2669    2.9331 N   0  0  0  0  0  0  0  0  0  0  0  0
    2.4230    1.3284    2.1814 C   0  0  0  0  0  0  0  0  0  0  0  0
    1.6397    2.6532    2.2260 C   0  0  0  0  0  0  0  0  0  0  0  0
    1.4478    3.0769    3.6179 N   0  0  0  0  0  0  0  0  0  0  0  0
    0.6896    4.3171    3.6312 C   0  0  0  0  0  0  0  0  0  0  0  0
    0.6623    2.0667    4.3100 C   0  0  0  0  0  0  0  0  0  0  0  0
    1.4450    0.7579    4.3231 C   0  0  0  0  0  0  0  0  0  0  0  0
    0.8383   -4.8891    4.3631 O   0  0  0  0  0  0  0  0  0  0  0  0
    1.1284   -5.7645    3.2965 C   0  0  2  0  0  0  0  0  0  0  0  0
   -0.0771   -6.3388    2.8793 O   0  0  0  0  0  0  0  0  0  0  0  0
   -0.3392   -7.6425    3.3788 C   0  0  1  0  0  0  0  0  0  0  0  0
   -1.8609   -7.7428    3.5530 C   0  0  0  0  0  0  0  0  0  0  0  0
    0.1394   -8.6339    2.3092 C   0  0  0  0  0  0  0  0  0  0  0  0
    1.4879   -8.2491    1.6801 C   0  0  0  0  0  0  0  0  0  0  0  0
    2.5641   -7.9359    2.7190 C   0  0  2  0  0  0  0  0  0  0  0  0
    2.1672   -6.8280    3.7701 C   0  0  1  0  0  0  0  0  0  0  0  0
    1.6289   -7.5225    4.8907 O   0  0  0  0  0  0  0  0  0  0  0  0
    0.1756   -7.8964    4.7029 O   0  0  0  0  0  0  0  0  0  0  0  0
    4.3860   -9.7951    1.4863 H   0  0  0  0  0  0  0  0  0  0  0  0
    5.4656   -8.6026    0.7797 H   0  0  0  0  0  0  0  0  0  0  0  0
    3.8342   -8.7448    0.1863 H   0  0  0  0  0  0  0  0  0  0  0  0
    3.9978   -6.7645    1.6030 H   0  0  0  0  0  0  0  0  0  0  0  0
    5.4432   -8.6607    3.5027 H   0  0  0  0  0  0  0  0  0  0  0  0
    5.9103   -7.1070    2.8655 H   0  0  0  0  0  0  0  0  0  0  0  0
    4.2503   -7.6989    5.2447 H   0  0  0  0  0  0  0  0  0  0  0  0
    5.4242   -6.4277    4.9845 H   0  0  0  0  0  0  0  0  0  0  0  0
    3.7367   -5.3804    3.3826 H   0  0  0  0  0  0  0  0  0  0  0  0
    2.6030   -5.5981    6.1933 H   0  0  0  0  0  0  0  0  0  0  0  0
    4.7162   -3.6692    5.0617 H   0  0  0  0  0  0  0  0  0  0  0  0
    4.9215   -4.7730    6.4201 H   0  0  0  0  0  0  0  0  0  0  0  0
    3.8384   -3.4052    6.5686 H   0  0  0  0  0  0  0  0  0  0  0  0
    1.5894   -3.5092    5.6165 H   0  0  0  0  0  0  0  0  0  0  0  0
    0.8605   -2.5853    2.6782 H   0  0  0  0  0  0  0  0  0  0  0  0
    0.9945   -1.9485    4.2851 H   0  0  0  0  0  0  0  0  0  0  0  0
    3.3394   -0.9776    3.4396 H   0  0  0  0  0  0  0  0  0  0  0  0
    2.7162   -1.2885    1.8557 H   0  0  0  0  0  0  0  0  0  0  0  0
    3.4180    1.4726    2.6024 H   0  0  0  0  0  0  0  0  0  0  0  0
    2.5583    1.0155    1.1407 H   0  0  0  0  0  0  0  0  0  0  0  0
    2.1865    3.4365    1.6951 H   0  0  0  0  0  0  0  0  0  0  0  0
    0.6753    2.5399    1.7174 H   0  0  0  0  0  0  0  0  0  0  0  0
    0.4584    4.6175    4.6543 H   0  0  0  0  0  0  0  0  0  0  0  0
   -0.2558    4.2285    3.0837 H   0  0  0  0  0  0  0  0  0  0  0  0
    1.2705    5.1122    3.1716 H   0  0  0  0  0  0  0  0  0  0  0  0
    0.4997    2.3894    5.3379 H   0  0  0  0  0  0  0  0  0  0  0  0
   -0.3234    1.9338    3.8480 H   0  0  0  0  0  0  0  0  0  0  0  0
    0.8365    0.0777    4.9202 H   0  0  0  0  0  0  0  0  0  0  0  0
    2.3936    0.8772    4.8512 H   0  0  0  0  0  0  0  0  0  0  0  0
    1.5033   -5.1947    2.4471 H   0  0  0  0  0  0  0  0  0  0  0  0
   -2.1969   -7.0445    4.3189 H   0  0  0  0  0  0  0  0  0  0  0  0
   -2.1572   -8.7412    3.8737 H   0  0  0  0  0  0  0  0  0  0  0  0
   -2.4030   -7.5138    2.6348 H   0  0  0  0  0  0  0  0  0  0  0  0
    0.1608   -9.6432    2.7140 H   0  0  0  0  0  0  0  0  0  0  0  0
   -0.6027   -8.6469    1.5152 H   0  0  0  0  0  0  0  0  0  0  0  0
    1.8149   -9.0850    1.0720 H   0  0  0  0  0  0  0  0  0  0  0  0
    1.3741   -7.4036    0.9985 H   0  0  0  0  0  0  0  0  0  0  0  0
    2.6609   -8.8553    3.3031 H   0  0  0  0  0  0  0  0  0  0  0  0
    0.8145    0.1826    2.4614 H   0  0  0  0  0  0  0  0  0  0  0  0
  1  2  1  0
  1 30  1  0
  1 31  1  0
  1 32  1  0
  2 26  1  0
  2  3  1  0
  2 33  1  6
  3  4  1  0
  3 34  1  0
  3 35  1  0
  4  5  1  0
  4 36  1  0
  4 37  1  0
  5 27  1  0
  5  6  1  0
  5 38  1  6
  6  7  1  0
  6  8  1  0
  6 39  1  1
  7 40  1  0
  7 41  1  0
  7 42  1  0
  8  9  1  0
  8 19  1  0
  8 43  1  1
  9 10  1  0
 10 11  1  0
 10 44  1  0
 10 45  1  0
 11 12  1  0
 11 46  1  0
 11 47  1  0
 12 18  1  0
 12 13  1  0
 12 68  1  0
 13 14  1  0
 13 48  1  0
 13 49  1  0
 14 15  1  0
 14 50  1  0
 14 51  1  0
 15 16  1  0
 15 17  1  0
 16 52  1  0
 16 53  1  0
 16 54  1  0
 17 18  1  0
 17 55  1  0
 17 56  1  0
 18 57  1  0
 18 58  1  0
 19 20  1  0
 20 27  1  0
 20 21  1  0
 20 59  1  6
 21 22  1  0
 22 29  1  0
 22 23  1  1
 22 24  1  0
 23 60  1  0
 23 61  1  0
 23 62  1  0
 24 25  1  0
 24 63  1  0
 24 64  1  0
 25 26  1  0
 25 65  1  0
 25 66  1  0
 26 27  1  0
 26 67  1  1
 27 28  1  1
 28 29  1  0
M  CHG  1  12   1
M  END
>  <i_m_ct_stereo_status>  (40) 
1

>  <s_m_source_file>  (40) 
/var/tmp/pbs.5076255.sched01/tmp44bw07az/09l6mph0o.sdf

>  <i_m_source_file_index>  (40) 
17

>  <i_lp_mmshare_version>  (40) 
48012

>  <i_f3d_flags>  (40) 
0

>  <s_epik_input>  (40) 
W0NAXTEyM1tDQEBIXTRbQ0gyXVtDSDJdW0NAQEhdKFtDSDNdKVtDQEBIXTJbQ0gyXVtDSDJdW0NAQF0oW0NIM10pKE9PMylPW0NASF0xT1tDQEBIXShbQ0BASF00W0NIM10pT1tDSDJdW0NIMl1ONVtDSDJdW0NIMl1OKFtDSDNdKVtDSDJdW0NIMl01

>  <s_epik_cmdline>  (40) 
J2VwaWtfcHl0aG9uJywgJy1waHQnLCAnMi4wJywgJy1waCcsICc3LjAnLCAnLXRuJywgJzgnLCAnLW1hJywgJzIwMCcsICctaW1hZScsICc8aW5maWxlLm1hZT4nLCAnLW9tYWUnLCAnPG91dGZpbGUubWFlPic=

>  <r_epik_Ionization_Penalty>  (40) 
0.0280474

>  <r_epik_Ionization_Penalty_Charging>  (40) 
0.026436

>  <r_epik_Ionization_Penalty_Neutral>  (40) 
0.0016114

>  <r_epik_State_Penalty>  (40) 
0.389882

>  <r_epik_Charging_Adjusted_Penalty>  (40) 
0.416318

>  <i_epik_Tot_Q>  (40) 
1

>  <i_epik_Tot_abs_Q>  (40) 
1

>  <s_epik_Chemistry_Notes>  (40) 
This compound contains an acetal/aminal-like group ( X-CH(R)-Y where X, Y are N, S, or O) that may be acid/base labile, releasing an aldehyde.

>  <s_lp_Force_Field>  (40) 
OPLS3e

>  <r_lp_Energy>  (40) 
62.4

>  <b_lp_Chiralities_Consistent>  (40) 
1

>  <s_lp_Variant>  (40) 
10:0-1

>  <s_i_glide_gridfile>  (40) 
pfpi4k_grid

>  <i_i_glide_lignum>  (40) 
17

>  <i_i_glide_rotatable_bonds>  (40) 
4

>  <r_i_docking_score>  (40) 
-2.22595

>  <r_i_glide_ligand_efficiency>  (40) 
-0.076757

>  <r_i_glide_ligand_efficiency_sa>  (40) 
-0.235822

>  <r_i_glide_ligand_efficiency_ln>  (40) 
-0.509687

>  <r_i_glide_gscore>  (40) 
-2.22595

>  <r_i_glide_lipo>  (40) 
-0.0492884

>  <r_i_glide_hbond>  (40) 
-0.14672

>  <r_i_glide_metal>  (40) 
-0

>  <r_i_glide_rewards>  (40) 
-0.604555

>  <r_i_glide_evdw>  (40) 
-19.5965

>  <r_i_glide_ecoul>  (40) 
-5.45095

>  <r_i_glide_erotb>  (40) 
0.465484

>  <r_i_glide_esite>  (40) 
-0.0934076

>  <r_i_glide_emodel>  (40) 
-28.0621

>  <r_i_glide_energy>  (40) 
-25.0474

>  <r_i_glide_einternal>  (40) 
1.97775

>  <r_i_glide_intrahb_reward>  (40) 
-0

>  <i_i_glide_confnum>  (40) 
1

>  <i_i_glide_posenum>  (40) 
5

>  <r_i_glide_eff_state_penalty>  (40) 
0

>  <ligand_id>  (40) 
10

>  <original_smiles>  (40) 
CC1CCC2C(C)C(OCCN3CCN(C)CC3)OC3OC4(C)CCC1C32OO4

>  <smiles>  (40) 
[H]C([H])([H])N1C([H])([H])C([H])([H])[N+]([H])(C([H])([H])C([H])([H])OC2([H])OC3([H])OC4(C([H])([H])[H])OOC35C([H])(C([H])([H])C([H])([H])C([H])(C([H])([H])[H])C5([H])C([H])([H])C4([H])[H])C2([H])C([H])([H])[H])C([H])([H])C1([H])[H]

$$$$
10:1:0
     RDKit          3D

 68 72  0  0  1  0  0  0  0  0999 V2000
   -0.9600   -8.4553    2.4880 C   0  0  0  0  0  0  0  0  0  0  0  0
    0.0607   -7.3008    2.5690 C   0  0  2  0  0  0  0  0  0  0  0  0
    1.0912   -7.4392    1.4221 C   0  0  0  0  0  0  0  0  0  0  0  0
    2.3707   -6.6048    1.6184 C   0  0  0  0  0  0  0  0  0  0  0  0
    2.0966   -5.4112    2.5471 C   0  0  2  0  0  0  0  0  0  0  0  0
    3.1961   -4.3329    2.5910 C   0  0  1  0  0  0  0  0  0  0  0  0
    3.6108   -3.7783    1.2122 C   0  0  0  0  0  0  0  0  0  0  0  0
    2.6634   -3.1775    3.4755 C   0  0  1  0  0  0  0  0  0  0  0  0
    1.5516   -2.5842    2.8733 O   0  0  0  0  0  0  0  0  0  0  0  0
    1.1447   -1.3437    3.4443 C   0  0  0  0  0  0  0  0  0  0  0  0
    1.7052   -0.1468    2.6477 C   0  0  0  0  0  0  0  0  0  0  0  0
    1.5030    1.1573    3.2880 N   0  0  0  0  0  0  0  0  0  0  0  0
    0.1075    1.5946    3.2062 C   0  0  0  0  0  0  0  0  0  0  0  0
   -0.1134    2.9607    3.8773 C   0  0  0  0  0  0  0  0  0  0  0  0
    0.7670    3.9977    3.2831 N   0  0  0  0  0  0  0  0  0  0  0  0
    0.5638    5.3344    3.8913 C   0  0  0  0  0  0  0  0  0  0  0  0
    2.1861    3.5590    3.3324 C   0  0  0  0  0  0  0  0  0  0  0  0
    2.3475    2.1800    2.6715 C   0  0  0  0  0  0  0  0  0  0  0  0
    2.3715   -3.6886    4.7455 O   0  0  0  0  0  0  0  0  0  0  0  0
    1.3396   -4.6446    4.7831 C   0  0  2  0  0  0  0  0  0  0  0  0
    1.0615   -4.9290    6.1159 O   0  0  0  0  0  0  0  0  0  0  0  0
    1.6275   -6.1127    6.6410 C   0  0  1  0  0  0  0  0  0  0  0  0
    1.9319   -5.8332    8.1247 C   0  0  0  0  0  0  0  0  0  0  0  0
    0.5746   -7.2250    6.5061 C   0  0  0  0  0  0  0  0  0  0  0  0
   -0.1726   -7.2010    5.1651 C   0  0  0  0  0  0  0  0  0  0  0  0
    0.7643   -7.1244    3.9519 C   0  0  2  0  0  0  0  0  0  0  0  0
    1.7819   -5.9162    3.9830 C   0  0  1  0  0  0  0  0  0  0  0  0
    2.9722   -6.4152    4.5686 O   0  0  0  0  0  0  0  0  0  0  0  0
    2.9067   -6.4599    6.0967 O   0  0  0  0  0  0  0  0  0  0  0  0
   -0.5024   -9.4130    2.7463 H   0  0  0  0  0  0  0  0  0  0  0  0
   -1.3565   -8.5483    1.4759 H   0  0  0  0  0  0  0  0  0  0  0  0
   -1.8158   -8.2979    3.1456 H   0  0  0  0  0  0  0  0  0  0  0  0
   -0.5066   -6.3917    2.3858 H   0  0  0  0  0  0  0  0  0  0  0  0
    1.3702   -8.4867    1.2829 H   0  0  0  0  0  0  0  0  0  0  0  0
    0.6068   -7.1330    0.4933 H   0  0  0  0  0  0  0  0  0  0  0  0
    3.1528   -7.2307    2.0504 H   0  0  0  0  0  0  0  0  0  0  0  0
    2.7300   -6.2872    0.6423 H   0  0  0  0  0  0  0  0  0  0  0  0
    1.2107   -4.9127    2.1528 H   0  0  0  0  0  0  0  0  0  0  0  0
    4.0906   -4.7270    3.0755 H   0  0  0  0  0  0  0  0  0  0  0  0
    2.7416   -3.4648    0.6292 H   0  0  0  0  0  0  0  0  0  0  0  0
    4.1506   -4.5281    0.6307 H   0  0  0  0  0  0  0  0  0  0  0  0
    4.2753   -2.9175    1.3094 H   0  0  0  0  0  0  0  0  0  0  0  0
    3.4437   -2.4201    3.5884 H   0  0  0  0  0  0  0  0  0  0  0  0
    0.0552   -1.3225    3.4211 H   0  0  0  0  0  0  0  0  0  0  0  0
    1.4271   -1.2717    4.4965 H   0  0  0  0  0  0  0  0  0  0  0  0
    2.7742   -0.3029    2.5048 H   0  0  0  0  0  0  0  0  0  0  0  0
    1.2738   -0.1392    1.6458 H   0  0  0  0  0  0  0  0  0  0  0  0
   -0.2107    1.6491    2.1627 H   0  0  0  0  0  0  0  0  0  0  0  0
   -0.5377    0.8663    3.6926 H   0  0  0  0  0  0  0  0  0  0  0  0
   -1.1599    3.2559    3.7791 H   0  0  0  0  0  0  0  0  0  0  0  0
    0.0886    2.8815    4.9473 H   0  0  0  0  0  0  0  0  0  0  0  0
    0.8137    5.3096    4.9586 H   0  0  0  0  0  0  0  0  0  0  0  0
   -0.4796    5.6484    3.7971 H   0  0  0  0  0  0  0  0  0  0  0  0
    1.1887    6.0921    3.4110 H   0  0  0  0  0  0  0  0  0  0  0  0
    2.8171    4.2938    2.8321 H   0  0  0  0  0  0  0  0  0  0  0  0
    2.5135    3.5157    4.3721 H   0  0  0  0  0  0  0  0  0  0  0  0
    3.3926    1.8842    2.7545 H   0  0  0  0  0  0  0  0  0  0  0  0
    2.1262    2.2591    1.6078 H   0  0  0  0  0  0  0  0  0  0  0  0
    0.4298   -4.2122    4.3666 H   0  0  0  0  0  0  0  0  0  0  0  0
    2.6806   -5.0452    8.2176 H   0  0  0  0  0  0  0  0  0  0  0  0
    2.3248   -6.7210    8.6221 H   0  0  0  0  0  0  0  0  0  0  0  0
    1.0443   -5.5086    8.6714 H   0  0  0  0  0  0  0  0  0  0  0  0
    1.0377   -8.1954    6.6803 H   0  0  0  0  0  0  0  0  0  0  0  0
   -0.1711   -7.0990    7.2948 H   0  0  0  0  0  0  0  0  0  0  0  0
   -0.7679   -8.1111    5.1232 H   0  0  0  0  0  0  0  0  0  0  0  0
   -0.8849   -6.3765    5.1331 H   0  0  0  0  0  0  0  0  0  0  0  0
    1.3833   -8.0181    4.0322 H   0  0  0  0  0  0  0  0  0  0  0  0
    0.5231    4.0816    2.2818 H   0  0  0  0  0  0  0  0  0  0  0  0
  1  2  1  0
  1 30  1  0
  1 31  1  0
  1 32  1  0
  2 26  1  0
  2  3  1  0
  2 33  1  6
  3  4  1  0
  3 34  1  0
  3 35  1  0
  4  5  1  0
  4 36  1  0
  4 37  1  0
  5 27  1  0
  5  6  1  0
  5 38  1  6
  6  7  1  0
  6  8  1  0
  6 39  1  1
  7 40  1  0
  7 41  1  0
  7 42  1  0
  8  9  1  0
  8 19  1  0
  8 43  1  1
  9 10  1  0
 10 11  1  0
 10 44  1  0
 10 45  1  0
 11 12  1  0
 11 46  1  0
 11 47  1  0
 12 18  1  0
 12 13  1  0
 13 14  1  0
 13 48  1  0
 13 49  1  0
 14 15  1  0
 14 50  1  0
 14 51  1  0
 15 16  1  0
 15 17  1  0
 15 68  1  0
 16 52  1  0
 16 53  1  0
 16 54  1  0
 17 18  1  0
 17 55  1  0
 17 56  1  0
 18 57  1  0
 18 58  1  0
 19 20  1  0
 20 27  1  0
 20 21  1  0
 20 59  1  6
 21 22  1  0
 22 29  1  0
 22 23  1  1
 22 24  1  0
 23 60  1  0
 23 61  1  0
 23 62  1  0
 24 25  1  0
 24 63  1  0
 24 64  1  0
 25 26  1  0
 25 65  1  0
 25 66  1  0
 26 27  1  0
 26 67  1  1
 27 28  1  1
 28 29  1  0
M  CHG  1  15   1
M  END
>  <i_m_ct_stereo_status>  (41) 
1

>  <s_m_source_file>  (41) 
/var/tmp/pbs.5076255.sched01/tmp44bw07az/09l6mph0o.sdf

>  <i_m_source_file_index>  (41) 
18

>  <i_lp_mmshare_version>  (41) 
48012

>  <i_f3d_flags>  (41) 
0

>  <s_epik_input>  (41) 
W0NAXTEyM1tDQEBIXTRbQ0gyXVtDSDJdW0NAQEhdKFtDSDNdKVtDQEBIXTJbQ0gyXVtDSDJdW0NAQF0oW0NIM10pKE9PMylPW0NASF0xT1tDQEBIXShbQ0BASF00W0NIM10pT1tDSDJdW0NIMl1ONVtDSDJdW0NIMl1OKFtDSDNdKVtDSDJdW0NIMl01

>  <s_epik_cmdline>  (41) 
J2VwaWtfcHl0aG9uJywgJy1waHQnLCAnMi4wJywgJy1waCcsICc3LjAnLCAnLXRuJywgJzgnLCAnLW1hJywgJzIwMCcsICctaW1hZScsICc8aW5maWxlLm1hZT4nLCAnLW9tYWUnLCAnPG91dGZpbGUubWFlPic=

>  <r_epik_Ionization_Penalty>  (41) 
0.0576662

>  <r_epik_Ionization_Penalty_Charging>  (41) 
0.0292942

>  <r_epik_Ionization_Penalty_Neutral>  (41) 
0.028372

>  <r_epik_State_Penalty>  (41) 
0.456324

>  <r_epik_Charging_Adjusted_Penalty>  (41) 
0.485618

>  <i_epik_Tot_Q>  (41) 
1

>  <i_epik_Tot_abs_Q>  (41) 
1

>  <s_epik_Chemistry_Notes>  (41) 
This compound contains an acetal/aminal-like group ( X-CH(R)-Y where X, Y are N, S, or O) that may be acid/base labile, releasing an aldehyde.

>  <s_lp_Force_Field>  (41) 
OPLS3e

>  <r_lp_Energy>  (41) 
67.0201

>  <b_lp_Chiralities_Consistent>  (41) 
1

>  <s_lp_Variant>  (41) 
10:0-2

>  <s_i_glide_gridfile>  (41) 
pfpi4k_grid

>  <i_i_glide_lignum>  (41) 
18

>  <i_i_glide_rotatable_bonds>  (41) 
4

>  <r_i_docking_score>  (41) 
-2.23698

>  <r_i_glide_ligand_efficiency>  (41) 
-0.0771373

>  <r_i_glide_ligand_efficiency_sa>  (41) 
-0.23699

>  <r_i_glide_ligand_efficiency_ln>  (41) 
-0.512212

>  <r_i_glide_gscore>  (41) 
-2.23698

>  <r_i_glide_lipo>  (41) 
-0.0042303

>  <r_i_glide_hbond>  (41) 
-0.2

>  <r_i_glide_metal>  (41) 
-0

>  <r_i_glide_rewards>  (41) 
-0.604947

>  <r_i_glide_evdw>  (41) 
-20.3772

>  <r_i_glide_ecoul>  (41) 
-5.1624

>  <r_i_glide_erotb>  (41) 
0.465484

>  <r_i_glide_esite>  (41) 
-0.100071

>  <r_i_glide_emodel>  (41) 
-29.2708

>  <r_i_glide_energy>  (41) 
-25.5396

>  <r_i_glide_einternal>  (41) 
2.24868

>  <r_i_glide_intrahb_reward>  (41) 
-0

>  <i_i_glide_confnum>  (41) 
3

>  <i_i_glide_posenum>  (41) 
13

>  <r_i_glide_eff_state_penalty>  (41) 
0

>  <ligand_id>  (41) 
10

>  <original_smiles>  (41) 
CC1CCC2C(C)C(OCCN3CCN(C)CC3)OC3OC4(C)CCC1C32OO4

>  <smiles>  (41) 
[H]C([H])([H])C12OOC34C([H])(OC([H])(OC([H])([H])C([H])([H])N5C([H])([H])C([H])([H])[N+]([H])(C([H])([H])[H])C([H])([H])C5([H])[H])C([H])(C([H])([H])[H])C3([H])C([H])([H])C([H])([H])C([H])(C([H])([H])[H])C4([H])C([H])([H])C1([H])[H])O2

$$$$
10:1:1
     RDKit          3D

 68 72  0  0  1  0  0  0  0  0999 V2000
   -1.3861   -8.4976    2.6868 C   0  0  0  0  0  0  0  0  0  0  0  0
    0.1010   -8.3703    3.0800 C   0  0  2  0  0  0  0  0  0  0  0  0
    0.7408   -9.7806    3.1346 C   0  0  0  0  0  0  0  0  0  0  0  0
    2.0825   -9.8333    3.8911 C   0  0  0  0  0  0  0  0  0  0  0  0
    2.7551   -8.4514    3.8905 C   0  0  2  0  0  0  0  0  0  0  0  0
    4.2265   -8.4258    4.3481 C   0  0  1  0  0  0  0  0  0  0  0  0
    5.1517   -9.4064    3.5936 C   0  0  0  0  0  0  0  0  0  0  0  0
    4.7341   -6.9762    4.1454 C   0  0  1  0  0  0  0  0  0  0  0  0
    4.7620   -6.6718    2.7823 O   0  0  0  0  0  0  0  0  0  0  0  0
    5.2594   -5.3779    2.4674 C   0  0  0  0  0  0  0  0  0  0  0  0
    5.5830   -5.3261    0.9601 C   0  0  0  0  0  0  0  0  0  0  0  0
    4.8477   -4.3144    0.2026 N   0  0  0  0  0  0  0  0  0  0  0  0
    3.4262   -4.6465    0.1178 C   0  0  0  0  0  0  0  0  0  0  0  0
    2.6319   -3.5917   -0.6737 C   0  0  0  0  0  0  0  0  0  0  0  0
    3.1908   -3.4422   -2.0405 N   0  0  0  0  0  0  0  0  0  0  0  0
    2.4316   -2.4582   -2.8512 C   0  0  0  0  0  0  0  0  0  0  0  0
    4.6363   -3.1221   -1.9799 C   0  0  0  0  0  0  0  0  0  0  0  0
    5.3812   -4.1819   -1.1533 C   0  0  0  0  0  0  0  0  0  0  0  0
    3.9309   -6.1083    4.8932 O   0  0  0  0  0  0  0  0  0  0  0  0
    2.5799   -6.0557    4.5080 C   0  0  2  0  0  0  0  0  0  0  0  0
    1.9641   -5.0501    5.2421 O   0  0  0  0  0  0  0  0  0  0  0  0
    1.1980   -5.4560    6.3589 C   0  0  1  0  0  0  0  0  0  0  0  0
    1.3328   -4.3444    7.4164 C   0  0  0  0  0  0  0  0  0  0  0  0
   -0.2566   -5.5845    5.8881 C   0  0  0  0  0  0  0  0  0  0  0  0
   -0.4016   -6.2555    4.5169 C   0  0  0  0  0  0  0  0  0  0  0  0
    0.3776   -7.5703    4.3925 C   0  0  2  0  0  0  0  0  0  0  0  0
    1.9142   -7.4541    4.7352 C   0  0  1  0  0  0  0  0  0  0  0  0
    2.0396   -7.7879    6.1087 O   0  0  0  0  0  0  0  0  0  0  0  0
    1.6836   -6.6205    7.0365 O   0  0  0  0  0  0  0  0  0  0  0  0
   -1.9731   -8.9641    3.4818 H   0  0  0  0  0  0  0  0  0  0  0  0
   -1.4922   -9.1214    1.7970 H   0  0  0  0  0  0  0  0  0  0  0  0
   -1.8343   -7.5333    2.4475 H   0  0  0  0  0  0  0  0  0  0  0  0
    0.5787   -7.8265    2.2646 H   0  0  0  0  0  0  0  0  0  0  0  0
    0.0494  -10.5055    3.5733 H   0  0  0  0  0  0  0  0  0  0  0  0
    0.9065  -10.1138    2.1082 H   0  0  0  0  0  0  0  0  0  0  0  0
    1.9086  -10.1575    4.9190 H   0  0  0  0  0  0  0  0  0  0  0  0
    2.7076  -10.5943    3.4278 H   0  0  0  0  0  0  0  0  0  0  0  0
    2.7623   -8.1173    2.8501 H   0  0  0  0  0  0  0  0  0  0  0  0
    4.2953   -8.6538    5.4129 H   0  0  0  0  0  0  0  0  0  0  0  0
    5.0443   -9.3065    2.5102 H   0  0  0  0  0  0  0  0  0  0  0  0
    4.9251  -10.4420    3.8538 H   0  0  0  0  0  0  0  0  0  0  0  0
    6.2027   -9.2417    3.8419 H   0  0  0  0  0  0  0  0  0  0  0  0
    5.7542   -6.8918    4.5342 H   0  0  0  0  0  0  0  0  0  0  0  0
    4.5259   -4.6232    2.7561 H   0  0  0  0  0  0  0  0  0  0  0  0
    6.1649   -5.1440    3.0312 H   0  0  0  0  0  0  0  0  0  0  0  0
    6.6529   -5.1432    0.8544 H   0  0  0  0  0  0  0  0  0  0  0  0
    5.4247   -6.3084    0.5146 H   0  0  0  0  0  0  0  0  0  0  0  0
    3.2982   -5.6359   -0.3223 H   0  0  0  0  0  0  0  0  0  0  0  0
    2.9984   -4.7095    1.1180 H   0  0  0  0  0  0  0  0  0  0  0  0
    1.5901   -3.8979   -0.7484 H   0  0  0  0  0  0  0  0  0  0  0  0
    2.6518   -2.6333   -0.1542 H   0  0  0  0  0  0  0  0  0  0  0  0
    2.4816   -1.4619   -2.4008 H   0  0  0  0  0  0  0  0  0  0  0  0
    1.3831   -2.7453   -2.9183 H   0  0  0  0  0  0  0  0  0  0  0  0
    2.8200   -2.3837   -3.8699 H   0  0  0  0  0  0  0  0  0  0  0  0
    5.0457   -3.0802   -2.9909 H   0  0  0  0  0  0  0  0  0  0  0  0
    4.7795   -2.1343   -1.5408 H   0  0  0  0  0  0  0  0  0  0  0  0
    6.4348   -3.9063   -1.1122 H   0  0  0  0  0  0  0  0  0  0  0  0
    5.3216   -5.1369   -1.6709 H   0  0  0  0  0  0  0  0  0  0  0  0
    2.5116   -5.7561    3.4618 H   0  0  0  0  0  0  0  0  0  0  0  0
    2.3689   -4.2559    7.7468 H   0  0  0  0  0  0  0  0  0  0  0  0
    0.7265   -4.5581    8.2987 H   0  0  0  0  0  0  0  0  0  0  0  0
    1.0301   -3.3692    7.0287 H   0  0  0  0  0  0  0  0  0  0  0  0
   -0.8402   -6.0999    6.6469 H   0  0  0  0  0  0  0  0  0  0  0  0
   -0.6842   -4.5843    5.8058 H   0  0  0  0  0  0  0  0  0  0  0  0
   -1.4621   -6.4354    4.3665 H   0  0  0  0  0  0  0  0  0  0  0  0
   -0.0888   -5.5746    3.7254 H   0  0  0  0  0  0  0  0  0  0  0  0
   -0.0400   -8.2115    5.1691 H   0  0  0  0  0  0  0  0  0  0  0  0
    3.0992   -4.3682   -2.4629 H   0  0  0  0  0  0  0  0  0  0  0  0
  1  2  1  0
  1 30  1  0
  1 31  1  0
  1 32  1  0
  2 26  1  0
  2  3  1  0
  2 33  1  6
  3  4  1  0
  3 34  1  0
  3 35  1  0
  4  5  1  0
  4 36  1  0
  4 37  1  0
  5 27  1  0
  5  6  1  0
  5 38  1  6
  6  7  1  0
  6  8  1  0
  6 39  1  1
  7 40  1  0
  7 41  1  0
  7 42  1  0
  8  9  1  0
  8 19  1  0
  8 43  1  1
  9 10  1  0
 10 11  1  0
 10 44  1  0
 10 45  1  0
 11 12  1  0
 11 46  1  0
 11 47  1  0
 12 18  1  0
 12 13  1  0
 13 14  1  0
 13 48  1  0
 13 49  1  0
 14 15  1  0
 14 50  1  0
 14 51  1  0
 15 16  1  0
 15 17  1  0
 15 68  1  0
 16 52  1  0
 16 53  1  0
 16 54  1  0
 17 18  1  0
 17 55  1  0
 17 56  1  0
 18 57  1  0
 18 58  1  0
 19 20  1  0
 20 27  1  0
 20 21  1  0
 20 59  1  6
 21 22  1  0
 22 29  1  0
 22 23  1  1
 22 24  1  0
 23 60  1  0
 23 61  1  0
 23 62  1  0
 24 25  1  0
 24 63  1  0
 24 64  1  0
 25 26  1  0
 25 65  1  0
 25 66  1  0
 26 27  1  0
 26 67  1  1
 27 28  1  1
 28 29  1  0
M  CHG  1  15   1
M  END
>  <i_m_ct_stereo_status>  (42) 
1

>  <s_m_source_file>  (42) 
/var/tmp/pbs.5076255.sched01/tmp44bw07az/09l6mph0o.sdf

>  <i_m_source_file_index>  (42) 
18

>  <i_lp_mmshare_version>  (42) 
48012

>  <i_f3d_flags>  (42) 
0

>  <s_epik_input>  (42) 
W0NAXTEyM1tDQEBIXTRbQ0gyXVtDSDJdW0NAQEhdKFtDSDNdKVtDQEBIXTJbQ0gyXVtDSDJdW0NAQF0oW0NIM10pKE9PMylPW0NASF0xT1tDQEBIXShbQ0BASF00W0NIM10pT1tDSDJdW0NIMl1ONVtDSDJdW0NIMl1OKFtDSDNdKVtDSDJdW0NIMl01

>  <s_epik_cmdline>  (42) 
J2VwaWtfcHl0aG9uJywgJy1waHQnLCAnMi4wJywgJy1waCcsICc3LjAnLCAnLXRuJywgJzgnLCAnLW1hJywgJzIwMCcsICctaW1hZScsICc8aW5maWxlLm1hZT4nLCAnLW9tYWUnLCAnPG91dGZpbGUubWFlPic=

>  <r_epik_Ionization_Penalty>  (42) 
0.0576662

>  <r_epik_Ionization_Penalty_Charging>  (42) 
0.0292942

>  <r_epik_Ionization_Penalty_Neutral>  (42) 
0.028372

>  <r_epik_State_Penalty>  (42) 
0.456324

>  <r_epik_Charging_Adjusted_Penalty>  (42) 
0.485618

>  <i_epik_Tot_Q>  (42) 
1

>  <i_epik_Tot_abs_Q>  (42) 
1

>  <s_epik_Chemistry_Notes>  (42) 
This compound contains an acetal/aminal-like group ( X-CH(R)-Y where X, Y are N, S, or O) that may be acid/base labile, releasing an aldehyde.

>  <s_lp_Force_Field>  (42) 
OPLS3e

>  <r_lp_Energy>  (42) 
67.0201

>  <b_lp_Chiralities_Consistent>  (42) 
1

>  <s_lp_Variant>  (42) 
10:0-2

>  <s_i_glide_gridfile>  (42) 
pfpi4k_grid

>  <i_i_glide_lignum>  (42) 
18

>  <i_i_glide_rotatable_bonds>  (42) 
4

>  <r_i_docking_score>  (42) 
-2.12346

>  <r_i_glide_ligand_efficiency>  (42) 
-0.0732227

>  <r_i_glide_ligand_efficiency_sa>  (42) 
-0.224963

>  <r_i_glide_ligand_efficiency_ln>  (42) 
-0.486218

>  <r_i_glide_gscore>  (42) 
-2.12346

>  <r_i_glide_lipo>  (42) 
-0.120734

>  <r_i_glide_hbond>  (42) 
0

>  <r_i_glide_metal>  (42) 
-0

>  <r_i_glide_rewards>  (42) 
-0.603031

>  <r_i_glide_evdw>  (42) 
-20.8062

>  <r_i_glide_ecoul>  (42) 
-5.4991

>  <r_i_glide_erotb>  (42) 
0.465484

>  <r_i_glide_esite>  (42) 
-1.33278e-06

>  <r_i_glide_emodel>  (42) 
-28.8038

>  <r_i_glide_energy>  (42) 
-26.3053

>  <r_i_glide_einternal>  (42) 
4.10439

>  <r_i_glide_intrahb_reward>  (42) 
-0

>  <i_i_glide_confnum>  (42) 
1

>  <i_i_glide_posenum>  (42) 
4

>  <r_i_glide_eff_state_penalty>  (42) 
0

>  <ligand_id>  (42) 
10

>  <original_smiles>  (42) 
CC1CCC2C(C)C(OCCN3CCN(C)CC3)OC3OC4(C)CCC1C32OO4

>  <smiles>  (42) 
[H]C([H])([H])C12OOC34C([H])(OC([H])(OC([H])([H])C([H])([H])N5C([H])([H])C([H])([H])[N+]([H])(C([H])([H])[H])C([H])([H])C5([H])[H])C([H])(C([H])([H])[H])C3([H])C([H])([H])C([H])([H])C([H])(C([H])([H])[H])C4([H])C([H])([H])C1([H])[H])O2

$$$$
10:1:2
     RDKit          3D

 68 72  0  0  1  0  0  0  0  0999 V2000
    4.6642   -7.1653    1.1182 C   0  0  0  0  0  0  0  0  0  0  0  0
    4.0238   -6.5899    2.3980 C   0  0  2  0  0  0  0  0  0  0  0  0
    5.0679   -6.5850    3.5430 C   0  0  0  0  0  0  0  0  0  0  0  0
    4.4588   -6.4233    4.9481 C   0  0  0  0  0  0  0  0  0  0  0  0
    3.0987   -5.7131    4.8638 C   0  0  2  0  0  0  0  0  0  0  0  0
    2.5195   -5.2201    6.2037 C   0  0  1  0  0  0  0  0  0  0  0  0
    3.4712   -4.3252    7.0246 C   0  0  0  0  0  0  0  0  0  0  0  0
    1.2251   -4.4341    5.8775 C   0  0  1  0  0  0  0  0  0  0  0  0
    1.5387   -3.2887    5.1410 O   0  0  0  0  0  0  0  0  0  0  0  0
    0.4666   -2.3657    4.9980 C   0  0  0  0  0  0  0  0  0  0  0  0
    0.9097   -1.2516    4.0331 C   0  0  0  0  0  0  0  0  0  0  0  0
   -0.1198   -0.2614    3.7077 N   0  0  0  0  0  0  0  0  0  0  0  0
    0.2665    0.5287    2.5356 C   0  0  0  0  0  0  0  0  0  0  0  0
   -0.8161    1.5438    2.1299 C   0  0  0  0  0  0  0  0  0  0  0  0
   -1.1203    2.4513    3.2644 N   0  0  0  0  0  0  0  0  0  0  0  0
   -2.1457    3.4671    2.9301 C   0  0  0  0  0  0  0  0  0  0  0  0
   -1.4856    1.6724    4.4772 C   0  0  0  0  0  0  0  0  0  0  0  0
   -0.3886    0.6491    4.8187 C   0  0  0  0  0  0  0  0  0  0  0  0
    0.3423   -5.2843    5.2014 O   0  0  0  0  0  0  0  0  0  0  0  0
    0.7963   -5.7454    3.9505 C   0  0  2  0  0  0  0  0  0  0  0  0
   -0.2444   -6.4416    3.3446 O   0  0  0  0  0  0  0  0  0  0  0  0
   -0.1911   -7.8558    3.4291 C   0  0  1  0  0  0  0  0  0  0  0  0
   -1.6459   -8.3513    3.5053 C   0  0  0  0  0  0  0  0  0  0  0  0
    0.4788   -8.3465    2.1387 C   0  0  0  0  0  0  0  0  0  0  0  0
    1.6918   -7.5167    1.7105 C   0  0  0  0  0  0  0  0  0  0  0  0
    2.6941   -7.2727    2.8454 C   0  0  2  0  0  0  0  0  0  0  0  0
    2.0718   -6.6290    4.1453 C   0  0  1  0  0  0  0  0  0  0  0  0
    1.7335   -7.7124    4.9985 O   0  0  0  0  0  0  0  0  0  0  0  0
    0.4027   -8.3630    4.6289 O   0  0  0  0  0  0  0  0  0  0  0  0
    4.8592   -8.2348    1.2142 H   0  0  0  0  0  0  0  0  0  0  0  0
    5.6178   -6.6747    0.9173 H   0  0  0  0  0  0  0  0  0  0  0  0
    4.0401   -7.0051    0.2371 H   0  0  0  0  0  0  0  0  0  0  0  0
    3.7849   -5.5512    2.1701 H   0  0  0  0  0  0  0  0  0  0  0  0
    5.6723   -7.4946    3.5147 H   0  0  0  0  0  0  0  0  0  0  0  0
    5.7597   -5.7609    3.3615 H   0  0  0  0  0  0  0  0  0  0  0  0
    4.3333   -7.4031    5.4110 H   0  0  0  0  0  0  0  0  0  0  0  0
    5.1677   -5.8746    5.5655 H   0  0  0  0  0  0  0  0  0  0  0  0
    3.2548   -4.8165    4.2594 H   0  0  0  0  0  0  0  0  0  0  0  0
    2.2382   -6.0696    6.8274 H   0  0  0  0  0  0  0  0  0  0  0  0
    3.8762   -3.5139    6.4156 H   0  0  0  0  0  0  0  0  0  0  0  0
    4.3123   -4.8995    7.4191 H   0  0  0  0  0  0  0  0  0  0  0  0
    2.9635   -3.8790    7.8834 H   0  0  0  0  0  0  0  0  0  0  0  0
    0.7457   -4.1291    6.8103 H   0  0  0  0  0  0  0  0  0  0  0  0
   -0.4154   -2.8655    4.5953 H   0  0  0  0  0  0  0  0  0  0  0  0
    0.1950   -1.9587    5.9719 H   0  0  0  0  0  0  0  0  0  0  0  0
    1.7897   -0.7448    4.4304 H   0  0  0  0  0  0  0  0  0  0  0  0
    1.2380   -1.7388    3.1146 H   0  0  0  0  0  0  0  0  0  0  0  0
    1.2093    1.0471    2.7196 H   0  0  0  0  0  0  0  0  0  0  0  0
    0.4471   -0.1326    1.6871 H   0  0  0  0  0  0  0  0  0  0  0  0
   -0.4594    2.1274    1.2811 H   0  0  0  0  0  0  0  0  0  0  0  0
   -1.7236    1.0237    1.8164 H   0  0  0  0  0  0  0  0  0  0  0  0
   -3.0972    2.9949    2.6708 H   0  0  0  0  0  0  0  0  0  0  0  0
   -1.8201    4.0802    2.0851 H   0  0  0  0  0  0  0  0  0  0  0  0
   -2.3187    4.1463    3.7657 H   0  0  0  0  0  0  0  0  0  0  0  0
   -1.6421    2.3443    5.3228 H   0  0  0  0  0  0  0  0  0  0  0  0
   -2.4303    1.1574    4.3055 H   0  0  0  0  0  0  0  0  0  0  0  0
   -0.7115    0.0849    5.6904 H   0  0  0  0  0  0  0  0  0  0  0  0
    0.5238    1.1686    5.1111 H   0  0  0  0  0  0  0  0  0  0  0  0
    1.0100   -4.8891    3.3079 H   0  0  0  0  0  0  0  0  0  0  0  0
   -2.1175   -7.9997    4.4226 H   0  0  0  0  0  0  0  0  0  0  0  0
   -1.6905   -9.4416    3.5103 H   0  0  0  0  0  0  0  0  0  0  0  0
   -2.2469   -7.9967    2.6681 H   0  0  0  0  0  0  0  0  0  0  0  0
    0.7329   -9.4030    2.2277 H   0  0  0  0  0  0  0  0  0  0  0  0
   -0.2457   -8.2650    1.3280 H   0  0  0  0  0  0  0  0  0  0  0  0
    2.1649   -8.0611    0.8967 H   0  0  0  0  0  0  0  0  0  0  0  0
    1.3740   -6.5640    1.2904 H   0  0  0  0  0  0  0  0  0  0  0  0
    3.0105   -8.2717    3.1457 H   0  0  0  0  0  0  0  0  0  0  0  0
   -0.2533    2.9349    3.4637 H   0  0  0  0  0  0  0  0  0  0  0  0
  1  2  1  0
  1 30  1  0
  1 31  1  0
  1 32  1  0
  2 26  1  0
  2  3  1  0
  2 33  1  6
  3  4  1  0
  3 34  1  0
  3 35  1  0
  4  5  1  0
  4 36  1  0
  4 37  1  0
  5 27  1  0
  5  6  1  0
  5 38  1  6
  6  7  1  0
  6  8  1  0
  6 39  1  1
  7 40  1  0
  7 41  1  0
  7 42  1  0
  8  9  1  0
  8 19  1  0
  8 43  1  1
  9 10  1  0
 10 11  1  0
 10 44  1  0
 10 45  1  0
 11 12  1  0
 11 46  1  0
 11 47  1  0
 12 18  1  0
 12 13  1  0
 13 14  1  0
 13 48  1  0
 13 49  1  0
 14 15  1  0
 14 50  1  0
 14 51  1  0
 15 16  1  0
 15 17  1  0
 15 68  1  0
 16 52  1  0
 16 53  1  0
 16 54  1  0
 17 18  1  0
 17 55  1  0
 17 56  1  0
 18 57  1  0
 18 58  1  0
 19 20  1  0
 20 27  1  0
 20 21  1  0
 20 59  1  6
 21 22  1  0
 22 29  1  0
 22 23  1  6
 22 24  1  0
 23 60  1  0
 23 61  1  0
 23 62  1  0
 24 25  1  0
 24 63  1  0
 24 64  1  0
 25 26  1  0
 25 65  1  0
 25 66  1  0
 26 27  1  0
 26 67  1  1
 27 28  1  1
 28 29  1  0
M  CHG  1  15   1
M  END
>  <i_m_ct_stereo_status>  (43) 
1

>  <s_m_source_file>  (43) 
/var/tmp/pbs.5076255.sched01/tmp44bw07az/09l6mph0o.sdf

>  <i_m_source_file_index>  (43) 
18

>  <i_lp_mmshare_version>  (43) 
48012

>  <i_f3d_flags>  (43) 
0

>  <s_epik_input>  (43) 
W0NAXTEyM1tDQEBIXTRbQ0gyXVtDSDJdW0NAQEhdKFtDSDNdKVtDQEBIXTJbQ0gyXVtDSDJdW0NAQF0oW0NIM10pKE9PMylPW0NASF0xT1tDQEBIXShbQ0BASF00W0NIM10pT1tDSDJdW0NIMl1ONVtDSDJdW0NIMl1OKFtDSDNdKVtDSDJdW0NIMl01

>  <s_epik_cmdline>  (43) 
J2VwaWtfcHl0aG9uJywgJy1waHQnLCAnMi4wJywgJy1waCcsICc3LjAnLCAnLXRuJywgJzgnLCAnLW1hJywgJzIwMCcsICctaW1hZScsICc8aW5maWxlLm1hZT4nLCAnLW9tYWUnLCAnPG91dGZpbGUubWFlPic=

>  <r_epik_Ionization_Penalty>  (43) 
0.0576662

>  <r_epik_Ionization_Penalty_Charging>  (43) 
0.0292942

>  <r_epik_Ionization_Penalty_Neutral>  (43) 
0.028372

>  <r_epik_State_Penalty>  (43) 
0.456324

>  <r_epik_Charging_Adjusted_Penalty>  (43) 
0.485618

>  <i_epik_Tot_Q>  (43) 
1

>  <i_epik_Tot_abs_Q>  (43) 
1

>  <s_epik_Chemistry_Notes>  (43) 
This compound contains an acetal/aminal-like group ( X-CH(R)-Y where X, Y are N, S, or O) that may be acid/base labile, releasing an aldehyde.

>  <s_lp_Force_Field>  (43) 
OPLS3e

>  <r_lp_Energy>  (43) 
67.0201

>  <b_lp_Chiralities_Consistent>  (43) 
1

>  <s_lp_Variant>  (43) 
10:0-2

>  <s_i_glide_gridfile>  (43) 
pfpi4k_grid

>  <i_i_glide_lignum>  (43) 
18

>  <i_i_glide_rotatable_bonds>  (43) 
4

>  <r_i_docking_score>  (43) 
-1.93254

>  <r_i_glide_ligand_efficiency>  (43) 
-0.0666392

>  <r_i_glide_ligand_efficiency_sa>  (43) 
-0.204737

>  <r_i_glide_ligand_efficiency_ln>  (43) 
-0.442502

>  <r_i_glide_gscore>  (43) 
-1.93254

>  <r_i_glide_lipo>  (43) 
-0.100846

>  <r_i_glide_hbond>  (43) 
-0.130925

>  <r_i_glide_metal>  (43) 
-0

>  <r_i_glide_rewards>  (43) 
-0.603031

>  <r_i_glide_evdw>  (43) 
-20.8965

>  <r_i_glide_ecoul>  (43) 
-2.66097

>  <r_i_glide_erotb>  (43) 
0.465484

>  <r_i_glide_esite>  (43) 
-0.119247

>  <r_i_glide_emodel>  (43) 
-27.6336

>  <r_i_glide_energy>  (43) 
-23.5575

>  <r_i_glide_einternal>  (43) 
0.210114

>  <r_i_glide_intrahb_reward>  (43) 
-0

>  <i_i_glide_confnum>  (43) 
2

>  <i_i_glide_posenum>  (43) 
14

>  <r_i_glide_eff_state_penalty>  (43) 
0

>  <ligand_id>  (43) 
10

>  <original_smiles>  (43) 
CC1CCC2C(C)C(OCCN3CCN(C)CC3)OC3OC4(C)CCC1C32OO4

>  <smiles>  (43) 
[H]C([H])([H])C12OOC34C([H])(OC([H])(OC([H])([H])C([H])([H])N5C([H])([H])C([H])([H])[N+]([H])(C([H])([H])[H])C([H])([H])C5([H])[H])C([H])(C([H])([H])[H])C3([H])C([H])([H])C([H])([H])C([H])(C([H])([H])[H])C4([H])C([H])([H])C1([H])[H])O2

$$$$
10:2:0
     RDKit          3D

 67 71  0  0  1  0  0  0  0  0999 V2000
    3.7179   -3.0285    3.6882 C   0  0  0  0  0  0  0  0  0  0  0  0
    2.9020   -2.0106    4.5094 C   0  0  2  0  0  0  0  0  0  0  0  0
    3.8745   -1.1038    5.2985 C   0  0  0  0  0  0  0  0  0  0  0  0
    3.2086   -0.3082    6.4333 C   0  0  0  0  0  0  0  0  0  0  0  0
    1.7064   -0.1477    6.1730 C   0  0  2  0  0  0  0  0  0  0  0  0
    0.9838    0.8528    7.0867 C   0  0  1  0  0  0  0  0  0  0  0  0
    1.6026    2.2645    7.1134 C   0  0  0  0  0  0  0  0  0  0  0  0
   -0.4673    0.9681    6.5741 C   0  0  1  0  0  0  0  0  0  0  0  0
   -0.4793    1.5947    5.3303 O   0  0  0  0  0  0  0  0  0  0  0  0
   -1.7404    2.1168    4.9281 C   0  0  0  0  0  0  0  0  0  0  0  0
   -1.5035    3.1417    3.7955 C   0  0  0  0  0  0  0  0  0  0  0  0
   -2.6950    3.8664    3.3603 N   0  0  0  0  0  0  0  0  0  0  0  0
   -2.3867    5.0253    2.5355 C   0  0  0  0  0  0  0  0  0  0  0  0
   -3.6594    5.7795    2.0486 C   0  0  0  0  0  0  0  0  0  0  0  0
   -4.5926    4.9121    1.3430 N   0  0  0  0  0  0  0  0  0  0  0  0
   -5.7675    5.6280    0.8866 C   0  0  0  0  0  0  0  0  0  0  0  0
   -4.8983    3.7560    2.1787 C   0  0  0  0  0  0  0  0  0  0  0  0
   -3.6276    3.0115    2.6331 C   0  0  0  0  0  0  0  0  0  0  0  0
   -1.0728   -0.2917    6.5729 O   0  0  0  0  0  0  0  0  0  0  0  0
   -0.4664   -1.2805    5.7745 C   0  0  2  0  0  0  0  0  0  0  0  0
   -1.2518   -2.4315    5.8585 O   0  0  0  0  0  0  0  0  0  0  0  0
   -0.7680   -3.4854    6.6793 C   0  0  1  0  0  0  0  0  0  0  0  0
   -1.9993   -4.2203    7.2454 C   0  0  0  0  0  0  0  0  0  0  0  0
    0.0658   -4.4401    5.8061 C   0  0  0  0  0  0  0  0  0  0  0  0
    0.9635   -3.7169    4.8027 C   0  0  0  0  0  0  0  0  0  0  0  0
    1.8203   -2.6208    5.4523 C   0  0  2  0  0  0  0  0  0  0  0  0
    1.0045   -1.5320    6.2505 C   0  0  1  0  0  0  0  0  0  0  0  0
    0.9650   -1.9647    7.6031 O   0  0  0  0  0  0  0  0  0  0  0  0
   -0.0923   -3.0415    7.8561 O   0  0  0  0  0  0  0  0  0  0  0  0
    4.2191   -3.7531    4.3302 H   0  0  0  0  0  0  0  0  0  0  0  0
    4.4874   -2.5162    3.1100 H   0  0  0  0  0  0  0  0  0  0  0  0
    3.0973   -3.5666    2.9725 H   0  0  0  0  0  0  0  0  0  0  0  0
    2.3824   -1.3884    3.7811 H   0  0  0  0  0  0  0  0  0  0  0  0
    4.7219   -1.6703    5.6866 H   0  0  0  0  0  0  0  0  0  0  0  0
    4.2966   -0.3862    4.5953 H   0  0  0  0  0  0  0  0  0  0  0  0
    3.3558   -0.8403    7.3754 H   0  0  0  0  0  0  0  0  0  0  0  0
    3.7062    0.6538    6.5306 H   0  0  0  0  0  0  0  0  0  0  0  0
    1.5967    0.2356    5.1555 H   0  0  0  0  0  0  0  0  0  0  0  0
    0.9421    0.4738    8.1073 H   0  0  0  0  0  0  0  0  0  0  0  0
    1.7557    2.6462    6.1014 H   0  0  0  0  0  0  0  0  0  0  0  0
    2.5637    2.2648    7.6252 H   0  0  0  0  0  0  0  0  0  0  0  0
    0.9581    2.9713    7.6389 H   0  0  0  0  0  0  0  0  0  0  0  0
   -1.0130    1.5974    7.2830 H   0  0  0  0  0  0  0  0  0  0  0  0
   -2.3943    1.2987    4.6327 H   0  0  0  0  0  0  0  0  0  0  0  0
   -2.2326    2.6490    5.7441 H   0  0  0  0  0  0  0  0  0  0  0  0
   -0.7818    3.8603    4.1864 H   0  0  0  0  0  0  0  0  0  0  0  0
   -1.0105    2.6618    2.9437 H   0  0  0  0  0  0  0  0  0  0  0  0
   -1.7150    5.6881    3.0666 H   0  0  0  0  0  0  0  0  0  0  0  0
   -1.7869    4.6927    1.7227 H   0  0  0  0  0  0  0  0  0  0  0  0
   -4.2000    6.2395    2.8706 H   0  0  0  0  0  0  0  0  0  0  0  0
   -3.3562    6.5863    1.3800 H   0  0  0  0  0  0  0  0  0  0  0  0
   -6.3639    4.9870    0.2467 H   0  0  0  0  0  0  0  0  0  0  0  0
   -5.4856    6.4849    0.2775 H   0  0  0  0  0  0  0  0  0  0  0  0
   -6.3706    5.9756    1.7223 H   0  0  0  0  0  0  0  0  0  0  0  0
   -5.4957    4.0725    3.0334 H   0  0  0  0  0  0  0  0  0  0  0  0
   -5.4994    3.0345    1.6314 H   0  0  0  0  0  0  0  0  0  0  0  0
   -3.1312    2.5715    1.7694 H   0  0  0  0  0  0  0  0  0  0  0  0
   -3.9344    2.1944    3.2855 H   0  0  0  0  0  0  0  0  0  0  0  0
   -0.4884   -0.9448    4.7360 H   0  0  0  0  0  0  0  0  0  0  0  0
   -2.5856   -3.5592    7.8661 H   0  0  0  0  0  0  0  0  0  0  0  0
   -1.7145   -5.0759    7.8540 H   0  0  0  0  0  0  0  0  0  0  0  0
   -2.6839   -4.5857    6.4820 H   0  0  0  0  0  0  0  0  0  0  0  0
    0.6323   -5.1181    6.4434 H   0  0  0  0  0  0  0  0  0  0  0  0
   -0.5887   -5.0836    5.2206 H   0  0  0  0  0  0  0  0  0  0  0  0
    1.5966   -4.4802    4.3559 H   0  0  0  0  0  0  0  0  0  0  0  0
    0.3784   -3.2954    3.9851 H   0  0  0  0  0  0  0  0  0  0  0  0
    2.4035   -3.1506    6.2039 H   0  0  0  0  0  0  0  0  0  0  0  0
  1  2  1  0
  1 30  1  0
  1 31  1  0
  1 32  1  0
  2 26  1  0
  2  3  1  0
  2 33  1  6
  3  4  1  0
  3 34  1  0
  3 35  1  0
  4  5  1  0
  4 36  1  0
  4 37  1  0
  5 27  1  0
  5  6  1  0
  5 38  1  6
  6  7  1  0
  6  8  1  0
  6 39  1  1
  7 40  1  0
  7 41  1  0
  7 42  1  0
  8  9  1  0
  8 19  1  0
  8 43  1  1
  9 10  1  0
 10 11  1  0
 10 44  1  0
 10 45  1  0
 11 12  1  0
 11 46  1  0
 11 47  1  0
 12 18  1  0
 12 13  1  0
 13 14  1  0
 13 48  1  0
 13 49  1  0
 14 15  1  0
 14 50  1  0
 14 51  1  0
 15 16  1  0
 15 17  1  0
 16 52  1  0
 16 53  1  0
 16 54  1  0
 17 18  1  0
 17 55  1  0
 17 56  1  0
 18 57  1  0
 18 58  1  0
 19 20  1  0
 20 27  1  0
 20 21  1  0
 20 59  1  6
 21 22  1  0
 22 29  1  0
 22 23  1  1
 22 24  1  0
 23 60  1  0
 23 61  1  0
 23 62  1  0
 24 25  1  0
 24 63  1  0
 24 64  1  0
 25 26  1  0
 25 65  1  0
 25 66  1  0
 26 27  1  0
 26 67  1  1
 27 28  1  1
 28 29  1  0
M  END
>  <i_m_ct_stereo_status>  (44) 
1

>  <s_m_source_file>  (44) 
/var/tmp/pbs.5076255.sched01/tmp44bw07az/09l6mph0o.sdf

>  <i_m_source_file_index>  (44) 
19

>  <i_lp_mmshare_version>  (44) 
48012

>  <i_f3d_flags>  (44) 
0

>  <s_epik_input>  (44) 
W0NAXTEyM1tDQEBIXTRbQ0gyXVtDSDJdW0NAQEhdKFtDSDNdKVtDQEBIXTJbQ0gyXVtDSDJdW0NAQF0oW0NIM10pKE9PMylPW0NASF0xT1tDQEBIXShbQ0BASF00W0NIM10pT1tDSDJdW0NIMl1ONVtDSDJdW0NIMl1OKFtDSDNdKVtDSDJdW0NIMl01

>  <s_epik_cmdline>  (44) 
J2VwaWtfcHl0aG9uJywgJy1waHQnLCAnMi4wJywgJy1waCcsICc3LjAnLCAnLXRuJywgJzgnLCAnLW1hJywgJzIwMCcsICctaW1hZScsICc8aW5maWxlLm1hZT4nLCAnLW9tYWUnLCAnPG91dGZpbGUubWFlPic=

>  <r_epik_Ionization_Penalty>  (44) 
3.65172

>  <r_epik_Ionization_Penalty_Charging>  (44) 
0

>  <r_epik_Ionization_Penalty_Neutral>  (44) 
3.65172

>  <r_epik_State_Penalty>  (44) 
2.34171

>  <r_epik_Charging_Adjusted_Penalty>  (44) 
2.34171

>  <i_epik_Tot_Q>  (44) 
0

>  <i_epik_Tot_abs_Q>  (44) 
0

>  <s_epik_Chemistry_Notes>  (44) 
This compound contains an acetal/aminal-like group ( X-CH(R)-Y where X, Y are N, S, or O) that may be acid/base labile, releasing an aldehyde.

>  <s_lp_Force_Field>  (44) 
OPLS3e

>  <r_lp_Energy>  (44) 
64.7987

>  <b_lp_Chiralities_Consistent>  (44) 
1

>  <s_lp_Variant>  (44) 
10:0-3

>  <s_i_glide_gridfile>  (44) 
pfpi4k_grid

>  <i_i_glide_lignum>  (44) 
19

>  <i_i_glide_rotatable_bonds>  (44) 
4

>  <r_i_docking_score>  (44) 
-2.31684

>  <r_i_glide_ligand_efficiency>  (44) 
-0.0798912

>  <r_i_glide_ligand_efficiency_sa>  (44) 
-0.245451

>  <r_i_glide_ligand_efficiency_ln>  (44) 
-0.530498

>  <r_i_glide_gscore>  (44) 
-2.31684

>  <r_i_glide_lipo>  (44) 
-0.558005

>  <r_i_glide_hbond>  (44) 
-0.124295

>  <r_i_glide_metal>  (44) 
-0

>  <r_i_glide_rewards>  (44) 
-0.609903

>  <r_i_glide_evdw>  (44) 
-14.0254

>  <r_i_glide_ecoul>  (44) 
-4.62556

>  <r_i_glide_erotb>  (44) 
0.467548

>  <r_i_glide_esite>  (44) 
-0.0970843

>  <r_i_glide_emodel>  (44) 
-20.7562

>  <r_i_glide_energy>  (44) 
-18.651

>  <r_i_glide_einternal>  (44) 
1.44049

>  <r_i_glide_intrahb_reward>  (44) 
-0

>  <i_i_glide_confnum>  (44) 
4

>  <i_i_glide_posenum>  (44) 
6

>  <r_i_glide_eff_state_penalty>  (44) 
0

>  <ligand_id>  (44) 
10

>  <original_smiles>  (44) 
CC1CCC2C(C)C(OCCN3CCN(C)CC3)OC3OC4(C)CCC1C32OO4

>  <smiles>  (44) 
[H]C([H])([H])N1C([H])([H])C([H])([H])N(C([H])([H])C([H])([H])OC2([H])OC3([H])OC4(C([H])([H])[H])OOC35C([H])(C([H])([H])C([H])([H])C([H])(C([H])([H])[H])C5([H])C([H])([H])C4([H])[H])C2([H])C([H])([H])[H])C([H])([H])C1([H])[H]

$$$$
10:2:1
     RDKit          3D

 67 71  0  0  1  0  0  0  0  0999 V2000
    1.0479    1.6270    2.8294 C   0  0  0  0  0  0  0  0  0  0  0  0
    1.9914    0.6111    3.5054 C   0  0  2  0  0  0  0  0  0  0  0  0
    2.5645    1.2250    4.8087 C   0  0  0  0  0  0  0  0  0  0  0  0
    3.8012    0.4904    5.3552 C   0  0  0  0  0  0  0  0  0  0  0  0
    3.8156   -0.9674    4.8703 C   0  0  2  0  0  0  0  0  0  0  0  0
    4.8213   -1.8959    5.5812 C   0  0  1  0  0  0  0  0  0  0  0  0
    4.7100   -1.9156    7.1182 C   0  0  0  0  0  0  0  0  0  0  0  0
    4.5902   -3.3215    5.0297 C   0  0  1  0  0  0  0  0  0  0  0  0
    3.3200   -3.7724    5.3981 O   0  0  0  0  0  0  0  0  0  0  0  0
    3.0291   -5.0996    4.9756 C   0  0  0  0  0  0  0  0  0  0  0  0
    1.5579   -5.4222    5.3001 C   0  0  0  0  0  0  0  0  0  0  0  0
    1.0191   -6.6069    4.6261 N   0  0  0  0  0  0  0  0  0  0  0  0
   -0.2823   -7.0041    5.1781 C   0  0  0  0  0  0  0  0  0  0  0  0
   -0.8666   -8.2405    4.4576 C   0  0  0  0  0  0  0  0  0  0  0  0
   -1.0313   -7.9958    3.0239 N   0  0  0  0  0  0  0  0  0  0  0  0
   -1.5660   -9.1723    2.3518 C   0  0  0  0  0  0  0  0  0  0  0  0
    0.2695   -7.6267    2.4729 C   0  0  0  0  0  0  0  0  0  0  0  0
    0.8560   -6.3919    3.1830 C   0  0  0  0  0  0  0  0  0  0  0  0
    4.7851   -3.2873    3.6422 O   0  0  0  0  0  0  0  0  0  0  0  0
    3.8680   -2.4976    2.9240 C   0  0  2  0  0  0  0  0  0  0  0  0
    4.0899   -2.7133    1.5694 O   0  0  0  0  0  0  0  0  0  0  0  0
    4.8320   -1.7236    0.8855 C   0  0  1  0  0  0  0  0  0  0  0  0
    5.6218   -2.4557   -0.2129 C   0  0  0  0  0  0  0  0  0  0  0  0
    3.8278   -0.7392    0.2669 C   0  0  0  0  0  0  0  0  0  0  0  0
    2.6671   -0.3774    1.2041 C   0  0  0  0  0  0  0  0  0  0  0  0
    3.1279    0.0498    2.6003 C   0  0  2  0  0  0  0  0  0  0  0  0
    4.0473   -1.0028    3.3326 C   0  0  1  0  0  0  0  0  0  0  0  0
    5.3883   -0.6226    3.0452 O   0  0  0  0  0  0  0  0  0  0  0  0
    5.8467   -1.0825    1.6636 O   0  0  0  0  0  0  0  0  0  0  0  0
    1.5963    2.4789    2.4255 H   0  0  0  0  0  0  0  0  0  0  0  0
    0.3252    2.0133    3.5495 H   0  0  0  0  0  0  0  0  0  0  0  0
    0.4699    1.1771    2.0194 H   0  0  0  0  0  0  0  0  0  0  0  0
    1.3651   -0.2333    3.7902 H   0  0  0  0  0  0  0  0  0  0  0  0
    2.8121    2.2773    4.6570 H   0  0  0  0  0  0  0  0  0  0  0  0
    1.7780    1.2045    5.5642 H   0  0  0  0  0  0  0  0  0  0  0  0
    4.7100    0.9931    5.0247 H   0  0  0  0  0  0  0  0  0  0  0  0
    3.7853    0.5547    6.4421 H   0  0  0  0  0  0  0  0  0  0  0  0
    2.8265   -1.3794    5.0869 H   0  0  0  0  0  0  0  0  0  0  0  0
    5.8346   -1.6021    5.3202 H   0  0  0  0  0  0  0  0  0  0  0  0
    3.6833   -2.0952    7.4397 H   0  0  0  0  0  0  0  0  0  0  0  0
    5.0387   -0.9679    7.5493 H   0  0  0  0  0  0  0  0  0  0  0  0
    5.3394   -2.6958    7.5523 H   0  0  0  0  0  0  0  0  0  0  0  0
    5.3297   -4.0063    5.4467 H   0  0  0  0  0  0  0  0  0  0  0  0
    3.2170   -5.1752    3.9069 H   0  0  0  0  0  0  0  0  0  0  0  0
    3.6862   -5.8220    5.4609 H   0  0  0  0  0  0  0  0  0  0  0  0
    1.4762   -5.5497    6.3803 H   0  0  0  0  0  0  0  0  0  0  0  0
    0.9365   -4.5584    5.0620 H   0  0  0  0  0  0  0  0  0  0  0  0
   -0.1804   -7.2290    6.2413 H   0  0  0  0  0  0  0  0  0  0  0  0
   -0.9911   -6.1778    5.1060 H   0  0  0  0  0  0  0  0  0  0  0  0
   -0.2133   -9.1011    4.6224 H   0  0  0  0  0  0  0  0  0  0  0  0
   -1.8308   -8.5061    4.8926 H   0  0  0  0  0  0  0  0  0  0  0  0
   -1.6962   -8.9832    1.2863 H   0  0  0  0  0  0  0  0  0  0  0  0
   -2.5362   -9.4486    2.7654 H   0  0  0  0  0  0  0  0  0  0  0  0
   -0.8970  -10.0276    2.4608 H   0  0  0  0  0  0  0  0  0  0  0  0
    0.9675   -8.4621    2.5634 H   0  0  0  0  0  0  0  0  0  0  0  0
    0.1711   -7.4193    1.4063 H   0  0  0  0  0  0  0  0  0  0  0  0
    0.2167   -5.5258    3.0117 H   0  0  0  0  0  0  0  0  0  0  0  0
    1.8138   -6.1706    2.7153 H   0  0  0  0  0  0  0  0  0  0  0  0
    2.8514   -2.8387    3.1257 H   0  0  0  0  0  0  0  0  0  0  0  0
    6.3325   -3.1551    0.2331 H   0  0  0  0  0  0  0  0  0  0  0  0
    6.1902   -1.7545   -0.8269 H   0  0  0  0  0  0  0  0  0  0  0  0
    4.9707   -3.0286   -0.8753 H   0  0  0  0  0  0  0  0  0  0  0  0
    4.3560    0.1492   -0.0720 H   0  0  0  0  0  0  0  0  0  0  0  0
    3.3860   -1.1850   -0.6273 H   0  0  0  0  0  0  0  0  0  0  0  0
    2.1180    0.4315    0.7307 H   0  0  0  0  0  0  0  0  0  0  0  0
    1.9653   -1.2073    1.2812 H   0  0  0  0  0  0  0  0  0  0  0  0
    3.7636    0.9171    2.4235 H   0  0  0  0  0  0  0  0  0  0  0  0
  1  2  1  0
  1 30  1  0
  1 31  1  0
  1 32  1  0
  2 26  1  0
  2  3  1  0
  2 33  1  1
  3  4  1  0
  3 34  1  0
  3 35  1  0
  4  5  1  0
  4 36  1  0
  4 37  1  0
  5 27  1  0
  5  6  1  0
  5 38  1  6
  6  7  1  0
  6  8  1  0
  6 39  1  1
  7 40  1  0
  7 41  1  0
  7 42  1  0
  8  9  1  0
  8 19  1  0
  8 43  1  1
  9 10  1  0
 10 11  1  0
 10 44  1  0
 10 45  1  0
 11 12  1  0
 11 46  1  0
 11 47  1  0
 12 18  1  0
 12 13  1  0
 13 14  1  0
 13 48  1  0
 13 49  1  0
 14 15  1  0
 14 50  1  0
 14 51  1  0
 15 16  1  0
 15 17  1  0
 16 52  1  0
 16 53  1  0
 16 54  1  0
 17 18  1  0
 17 55  1  0
 17 56  1  0
 18 57  1  0
 18 58  1  0
 19 20  1  0
 20 27  1  0
 20 21  1  0
 20 59  1  1
 21 22  1  0
 22 29  1  0
 22 23  1  6
 22 24  1  0
 23 60  1  0
 23 61  1  0
 23 62  1  0
 24 25  1  0
 24 63  1  0
 24 64  1  0
 25 26  1  0
 25 65  1  0
 25 66  1  0
 26 27  1  0
 26 67  1  6
 27 28  1  1
 28 29  1  0
M  END
>  <i_m_ct_stereo_status>  (45) 
1

>  <s_m_source_file>  (45) 
/var/tmp/pbs.5076255.sched01/tmp44bw07az/09l6mph0o.sdf

>  <i_m_source_file_index>  (45) 
19

>  <i_lp_mmshare_version>  (45) 
48012

>  <i_f3d_flags>  (45) 
0

>  <s_epik_input>  (45) 
W0NAXTEyM1tDQEBIXTRbQ0gyXVtDSDJdW0NAQEhdKFtDSDNdKVtDQEBIXTJbQ0gyXVtDSDJdW0NAQF0oW0NIM10pKE9PMylPW0NASF0xT1tDQEBIXShbQ0BASF00W0NIM10pT1tDSDJdW0NIMl1ONVtDSDJdW0NIMl1OKFtDSDNdKVtDSDJdW0NIMl01

>  <s_epik_cmdline>  (45) 
J2VwaWtfcHl0aG9uJywgJy1waHQnLCAnMi4wJywgJy1waCcsICc3LjAnLCAnLXRuJywgJzgnLCAnLW1hJywgJzIwMCcsICctaW1hZScsICc8aW5maWxlLm1hZT4nLCAnLW9tYWUnLCAnPG91dGZpbGUubWFlPic=

>  <r_epik_Ionization_Penalty>  (45) 
3.65172

>  <r_epik_Ionization_Penalty_Charging>  (45) 
0

>  <r_epik_Ionization_Penalty_Neutral>  (45) 
3.65172

>  <r_epik_State_Penalty>  (45) 
2.34171

>  <r_epik_Charging_Adjusted_Penalty>  (45) 
2.34171

>  <i_epik_Tot_Q>  (45) 
0

>  <i_epik_Tot_abs_Q>  (45) 
0

>  <s_epik_Chemistry_Notes>  (45) 
This compound contains an acetal/aminal-like group ( X-CH(R)-Y where X, Y are N, S, or O) that may be acid/base labile, releasing an aldehyde.

>  <s_lp_Force_Field>  (45) 
OPLS3e

>  <r_lp_Energy>  (45) 
64.7987

>  <b_lp_Chiralities_Consistent>  (45) 
1

>  <s_lp_Variant>  (45) 
10:0-3

>  <s_i_glide_gridfile>  (45) 
pfpi4k_grid

>  <i_i_glide_lignum>  (45) 
19

>  <i_i_glide_rotatable_bonds>  (45) 
4

>  <r_i_docking_score>  (45) 
-1.85959

>  <r_i_glide_ligand_efficiency>  (45) 
-0.0641238

>  <r_i_glide_ligand_efficiency_sa>  (45) 
-0.197009

>  <r_i_glide_ligand_efficiency_ln>  (45) 
-0.425799

>  <r_i_glide_gscore>  (45) 
-1.85959

>  <r_i_glide_lipo>  (45) 
-0.331251

>  <r_i_glide_hbond>  (45) 
0

>  <r_i_glide_metal>  (45) 
-0

>  <r_i_glide_rewards>  (45) 
-0.669663

>  <r_i_glide_evdw>  (45) 
-22.6254

>  <r_i_glide_ecoul>  (45) 
-1.29971

>  <r_i_glide_erotb>  (45) 
0.467548

>  <r_i_glide_esite>  (45) 
0

>  <r_i_glide_emodel>  (45) 
-26.0248

>  <r_i_glide_energy>  (45) 
-23.9251

>  <r_i_glide_einternal>  (45) 
0.797941

>  <r_i_glide_intrahb_reward>  (45) 
-0

>  <i_i_glide_confnum>  (45) 
4

>  <i_i_glide_posenum>  (45) 
10

>  <r_i_glide_eff_state_penalty>  (45) 
0

>  <ligand_id>  (45) 
10

>  <original_smiles>  (45) 
CC1CCC2C(C)C(OCCN3CCN(C)CC3)OC3OC4(C)CCC1C32OO4

>  <smiles>  (45) 
[H]C([H])([H])N1C([H])([H])C([H])([H])N(C([H])([H])C([H])([H])OC2([H])OC3([H])OC4(C([H])([H])[H])OOC35C([H])(C([H])([H])C([H])([H])C([H])(C([H])([H])[H])C5([H])C([H])([H])C4([H])[H])C2([H])C([H])([H])[H])C([H])([H])C1([H])[H]

$$$$
10:2:2
     RDKit          3D

 67 71  0  0  1  0  0  0  0  0999 V2000
    4.6789   -7.0980    1.1344 C   0  0  0  0  0  0  0  0  0  0  0  0
    4.0257   -6.5241    2.4084 C   0  0  2  0  0  0  0  0  0  0  0  0
    5.0630   -6.5172    3.5610 C   0  0  0  0  0  0  0  0  0  0  0  0
    4.4435   -6.3481    4.9600 C   0  0  0  0  0  0  0  0  0  0  0  0
    3.0819   -5.6418    4.8627 C   0  0  2  0  0  0  0  0  0  0  0  0
    2.4906   -5.1437    6.1963 C   0  0  1  0  0  0  0  0  0  0  0  0
    3.4320   -4.2377    7.0157 C   0  0  0  0  0  0  0  0  0  0  0  0
    1.1957   -4.3676    5.8547 C   0  0  1  0  0  0  0  0  0  0  0  0
    1.5037   -3.2247    5.1115 O   0  0  0  0  0  0  0  0  0  0  0  0
    0.4121   -2.3281    4.9475 C   0  0  0  0  0  0  0  0  0  0  0  0
    0.8510   -1.1365    4.0759 C   0  0  0  0  0  0  0  0  0  0  0  0
   -0.1973   -0.1506    3.8000 N   0  0  0  0  0  0  0  0  0  0  0  0
   -0.5759    0.6179    4.9915 C   0  0  0  0  0  0  0  0  0  0  0  0
   -1.6820    1.6448    4.6833 C   0  0  0  0  0  0  0  0  0  0  0  0
   -1.2634    2.5896    3.6560 N   0  0  0  0  0  0  0  0  0  0  0  0
   -2.2984    3.5653    3.3622 C   0  0  0  0  0  0  0  0  0  0  0  0
   -0.8820    1.8402    2.4583 C   0  0  0  0  0  0  0  0  0  0  0  0
    0.2183    0.8018    2.7620 C   0  0  0  0  0  0  0  0  0  0  0  0
    0.3223   -5.2306    5.1805 O   0  0  0  0  0  0  0  0  0  0  0  0
    0.7840   -5.6922    3.9337 C   0  0  2  0  0  0  0  0  0  0  0  0
   -0.2476   -6.3981    3.3246 O   0  0  0  0  0  0  0  0  0  0  0  0
   -0.1851   -7.8112    3.4139 C   0  0  1  0  0  0  0  0  0  0  0  0
   -1.6371   -8.3163    3.4821 C   0  0  0  0  0  0  0  0  0  0  0  0
    0.4931   -8.3054    2.1277 C   0  0  0  0  0  0  0  0  0  0  0  0
    1.7028   -7.4625    1.7043 C   0  0  0  0  0  0  0  0  0  0  0  0
    2.6967   -7.2117    2.8471 C   0  0  2  0  0  0  0  0  0  0  0  0
    2.0611   -6.5656    4.1402 C   0  0  1  0  0  0  0  0  0  0  0  0
    1.7245   -7.6475    4.9983 O   0  0  0  0  0  0  0  0  0  0  0  0
    0.4055   -8.3137    4.6147 O   0  0  0  0  0  0  0  0  0  0  0  0
    4.8794   -8.1655    1.2329 H   0  0  0  0  0  0  0  0  0  0  0  0
    5.6302   -6.6014    0.9388 H   0  0  0  0  0  0  0  0  0  0  0  0
    4.0593   -6.9424    0.2493 H   0  0  0  0  0  0  0  0  0  0  0  0
    3.7875   -5.4866    2.1788 H   0  0  0  0  0  0  0  0  0  0  0  0
    5.6633   -7.4282    3.5428 H   0  0  0  0  0  0  0  0  0  0  0  0
    5.7582   -5.6959    3.3821 H   0  0  0  0  0  0  0  0  0  0  0  0
    4.3155   -7.3238    5.4297 H   0  0  0  0  0  0  0  0  0  0  0  0
    5.1452   -5.7932    5.5803 H   0  0  0  0  0  0  0  0  0  0  0  0
    3.2385   -4.7476    4.2539 H   0  0  0  0  0  0  0  0  0  0  0  0
    2.2115   -5.9915    6.8217 H   0  0  0  0  0  0  0  0  0  0  0  0
    3.8326   -3.4263    6.4062 H   0  0  0  0  0  0  0  0  0  0  0  0
    4.2757   -4.8032    7.4170 H   0  0  0  0  0  0  0  0  0  0  0  0
    2.9169   -3.7927    7.8696 H   0  0  0  0  0  0  0  0  0  0  0  0
    0.7090   -4.0626    6.7825 H   0  0  0  0  0  0  0  0  0  0  0  0
   -0.4265   -2.8378    4.4726 H   0  0  0  0  0  0  0  0  0  0  0  0
    0.0734   -1.9900    5.9260 H   0  0  0  0  0  0  0  0  0  0  0  0
    1.7085   -0.6419    4.5343 H   0  0  0  0  0  0  0  0  0  0  0  0
    1.2135   -1.5405    3.1297 H   0  0  0  0  0  0  0  0  0  0  0  0
   -0.9483   -0.0488    5.7666 H   0  0  0  0  0  0  0  0  0  0  0  0
    0.2957    1.1295    5.4001 H   0  0  0  0  0  0  0  0  0  0  0  0
   -2.5822    1.1215    4.3636 H   0  0  0  0  0  0  0  0  0  0  0  0
   -1.9351    2.1861    5.5960 H   0  0  0  0  0  0  0  0  0  0  0  0
   -1.9517    4.2750    2.6097 H   0  0  0  0  0  0  0  0  0  0  0  0
   -2.5595    4.1274    4.2586 H   0  0  0  0  0  0  0  0  0  0  0  0
   -3.2012    3.0835    2.9863 H   0  0  0  0  0  0  0  0  0  0  0  0
   -1.7540    1.3380    2.0355 H   0  0  0  0  0  0  0  0  0  0  0  0
   -0.5242    2.5317    1.6948 H   0  0  0  0  0  0  0  0  0  0  0  0
    1.1277    1.3228    3.0688 H   0  0  0  0  0  0  0  0  0  0  0  0
    0.4621    0.2700    1.8396 H   0  0  0  0  0  0  0  0  0  0  0  0
    0.9975   -4.8370    3.2900 H   0  0  0  0  0  0  0  0  0  0  0  0
   -2.1173   -7.9710    4.3990 H   0  0  0  0  0  0  0  0  0  0  0  0
   -1.6744   -9.4082    3.4883 H   0  0  0  0  0  0  0  0  0  0  0  0
   -2.2374   -7.9697    2.6411 H   0  0  0  0  0  0  0  0  0  0  0  0
    0.7622   -9.3594    2.2275 H   0  0  0  0  0  0  0  0  0  0  0  0
   -0.2270   -8.2535    1.3086 H   0  0  0  0  0  0  0  0  0  0  0  0
    2.1852   -8.0038    0.8957 H   0  0  0  0  0  0  0  0  0  0  0  0
    1.3814   -6.5110    1.2824 H   0  0  0  0  0  0  0  0  0  0  0  0
    3.0141   -8.2092    3.1522 H   0  0  0  0  0  0  0  0  0  0  0  0
  1  2  1  0
  1 30  1  0
  1 31  1  0
  1 32  1  0
  2 26  1  0
  2  3  1  0
  2 33  1  6
  3  4  1  0
  3 34  1  0
  3 35  1  0
  4  5  1  0
  4 36  1  0
  4 37  1  0
  5 27  1  0
  5  6  1  0
  5 38  1  6
  6  7  1  0
  6  8  1  0
  6 39  1  1
  7 40  1  0
  7 41  1  0
  7 42  1  0
  8  9  1  0
  8 19  1  0
  8 43  1  1
  9 10  1  0
 10 11  1  0
 10 44  1  0
 10 45  1  0
 11 12  1  0
 11 46  1  0
 11 47  1  0
 12 18  1  0
 12 13  1  0
 13 14  1  0
 13 48  1  0
 13 49  1  0
 14 15  1  0
 14 50  1  0
 14 51  1  0
 15 16  1  0
 15 17  1  0
 16 52  1  0
 16 53  1  0
 16 54  1  0
 17 18  1  0
 17 55  1  0
 17 56  1  0
 18 57  1  0
 18 58  1  0
 19 20  1  0
 20 27  1  0
 20 21  1  0
 20 59  1  6
 21 22  1  0
 22 29  1  0
 22 23  1  6
 22 24  1  0
 23 60  1  0
 23 61  1  0
 23 62  1  0
 24 25  1  0
 24 63  1  0
 24 64  1  0
 25 26  1  0
 25 65  1  0
 25 66  1  0
 26 27  1  0
 26 67  1  1
 27 28  1  1
 28 29  1  0
M  END
>  <i_m_ct_stereo_status>  (46) 
1

>  <s_m_source_file>  (46) 
/var/tmp/pbs.5076255.sched01/tmp44bw07az/09l6mph0o.sdf

>  <i_m_source_file_index>  (46) 
19

>  <i_lp_mmshare_version>  (46) 
48012

>  <i_f3d_flags>  (46) 
0

>  <s_epik_input>  (46) 
W0NAXTEyM1tDQEBIXTRbQ0gyXVtDSDJdW0NAQEhdKFtDSDNdKVtDQEBIXTJbQ0gyXVtDSDJdW0NAQF0oW0NIM10pKE9PMylPW0NASF0xT1tDQEBIXShbQ0BASF00W0NIM10pT1tDSDJdW0NIMl1ONVtDSDJdW0NIMl1OKFtDSDNdKVtDSDJdW0NIMl01

>  <s_epik_cmdline>  (46) 
J2VwaWtfcHl0aG9uJywgJy1waHQnLCAnMi4wJywgJy1waCcsICc3LjAnLCAnLXRuJywgJzgnLCAnLW1hJywgJzIwMCcsICctaW1hZScsICc8aW5maWxlLm1hZT4nLCAnLW9tYWUnLCAnPG91dGZpbGUubWFlPic=

>  <r_epik_Ionization_Penalty>  (46) 
3.65172

>  <r_epik_Ionization_Penalty_Charging>  (46) 
0

>  <r_epik_Ionization_Penalty_Neutral>  (46) 
3.65172

>  <r_epik_State_Penalty>  (46) 
2.34171

>  <r_epik_Charging_Adjusted_Penalty>  (46) 
2.34171

>  <i_epik_Tot_Q>  (46) 
0

>  <i_epik_Tot_abs_Q>  (46) 
0

>  <s_epik_Chemistry_Notes>  (46) 
This compound contains an acetal/aminal-like group ( X-CH(R)-Y where X, Y are N, S, or O) that may be acid/base labile, releasing an aldehyde.

>  <s_lp_Force_Field>  (46) 
OPLS3e

>  <r_lp_Energy>  (46) 
64.7987

>  <b_lp_Chiralities_Consistent>  (46) 
1

>  <s_lp_Variant>  (46) 
10:0-3

>  <s_i_glide_gridfile>  (46) 
pfpi4k_grid

>  <i_i_glide_lignum>  (46) 
19

>  <i_i_glide_rotatable_bonds>  (46) 
4

>  <r_i_docking_score>  (46) 
-1.6112

>  <r_i_glide_ligand_efficiency>  (46) 
-0.0555587

>  <r_i_glide_ligand_efficiency_sa>  (46) 
-0.170694

>  <r_i_glide_ligand_efficiency_ln>  (46) 
-0.368924

>  <r_i_glide_gscore>  (46) 
-1.6112

>  <r_i_glide_lipo>  (46) 
-0.104442

>  <r_i_glide_hbond>  (46) 
-0.129549

>  <r_i_glide_metal>  (46) 
-0

>  <r_i_glide_rewards>  (46) 
-0.609903

>  <r_i_glide_evdw>  (46) 
-21.2875

>  <r_i_glide_ecoul>  (46) 
-0.684412

>  <r_i_glide_erotb>  (46) 
0.467548

>  <r_i_glide_esite>  (46) 
-0.0678187

>  <r_i_glide_emodel>  (46) 
-24.0839

>  <r_i_glide_energy>  (46) 
-21.9719

>  <r_i_glide_einternal>  (46) 
0.0193328

>  <r_i_glide_intrahb_reward>  (46) 
-0

>  <i_i_glide_confnum>  (46) 
1

>  <i_i_glide_posenum>  (46) 
1

>  <r_i_glide_eff_state_penalty>  (46) 
0

>  <ligand_id>  (46) 
10

>  <original_smiles>  (46) 
CC1CCC2C(C)C(OCCN3CCN(C)CC3)OC3OC4(C)CCC1C32OO4

>  <smiles>  (46) 
[H]C([H])([H])N1C([H])([H])C([H])([H])N(C([H])([H])C([H])([H])OC2([H])OC3([H])OC4(C([H])([H])[H])OOC35C([H])(C([H])([H])C([H])([H])C([H])(C([H])([H])[H])C5([H])C([H])([H])C4([H])[H])C2([H])C([H])([H])[H])C([H])([H])C1([H])[H]

$$$$
11:0:0
     RDKit          3D

 49 53  0  0  1  0  0  0  0  0999 V2000
    1.0768    2.1401    1.8339 F   0  0  0  0  0  0  0  0  0  0  0  0
    1.4594    1.3666    2.8705 C   0  0  0  0  0  0  0  0  0  0  0  0
    1.9760    0.0865    2.6073 C   0  0  0  0  0  0  0  0  0  0  0  0
    2.4054   -0.7302    3.6646 C   0  0  0  0  0  0  0  0  0  0  0  0
    2.3100   -0.2654    4.9853 C   0  0  0  0  0  0  0  0  0  0  0  0
    1.7847    1.0127    5.2515 C   0  0  0  0  0  0  0  0  0  0  0  0
    1.7109    1.4368    6.5363 F   0  0  0  0  0  0  0  0  0  0  0  0
    1.3452    1.8455    4.1949 C   0  0  0  0  0  0  0  0  0  0  0  0
    0.7911    3.2522    4.4819 C   0  0  2  0  0  0  0  0  0  0  0  0
   -0.5634    3.5629    3.8170 C   0  0  0  0  0  0  0  0  0  0  0  0
   -1.5671    2.4145    3.8210 C   0  0  0  0  0  0  0  0  0  0  0  0
   -2.9463    2.8724    3.7964 N   0  0  0  0  0  0  0  0  0  0  0  0
   -3.1865    3.7919    2.7057 C   0  0  0  0  0  0  0  0  0  0  0  0
   -2.1866    4.9444    2.6401 C   0  0  0  0  0  0  0  0  0  0  0  0
   -2.5202    6.1113    2.0413 C   0  0  0  0  0  0  0  0  0  0  0  0
   -3.7304    6.5181    1.3673 C   0  0  0  0  0  0  0  0  0  0  0  0
   -4.9038    5.8769    1.0293 C   0  0  0  0  0  0  0  0  0  0  0  0
   -5.7249    6.8369    0.3911 C   0  0  0  0  0  0  0  0  0  0  0  0
   -5.0019    7.9951    0.3605 C   0  0  0  0  0  0  0  0  0  0  0  0
   -3.7942    7.8204    0.9613 O   0  0  0  0  0  0  0  0  0  0  0  0
   -0.8815    4.7698    3.2972 C   0  0  0  0  0  0  0  0  0  0  0  0
    0.0271    5.8175    3.3813 N   0  0  0  0  0  0  0  0  0  0  0  0
    1.2762    5.7577    4.1139 C   0  0  1  0  0  0  0  0  0  0  0  0
    1.1280    6.2741    5.5434 C   0  0  0  0  0  0  0  0  0  0  0  0
    2.1694    5.5076    6.3690 C   0  0  0  0  0  0  0  0  0  0  0  0
    2.8385    4.5167    5.4022 C   0  0  0  0  0  0  0  0  0  0  0  0
    1.8606    4.3462    4.2281 C   0  0  1  0  0  0  0  0  0  0  0  0
    2.0426   -0.2543    1.5843 H   0  0  0  0  0  0  0  0  0  0  0  0
    2.8041   -1.7090    3.4577 H   0  0  0  0  0  0  0  0  0  0  0  0
    2.6470   -0.8884    5.8011 H   0  0  0  0  0  0  0  0  0  0  0  0
    0.5351    3.2883    5.5402 H   0  0  0  0  0  0  0  0  0  0  0  0
   -1.3916    1.7683    2.9603 H   0  0  0  0  0  0  0  0  0  0  0  0
   -1.4402    1.8068    4.7182 H   0  0  0  0  0  0  0  0  0  0  0  0
   -3.5526    2.0724    3.6770 H   0  0  0  0  0  0  0  0  0  0  0  0
   -3.1871    3.2589    1.7582 H   0  0  0  0  0  0  0  0  0  0  0  0
   -4.1902    4.1643    2.8689 H   0  0  0  0  0  0  0  0  0  0  0  0
   -1.7711    6.8867    2.0114 H   0  0  0  0  0  0  0  0  0  0  0  0
   -5.1517    4.8426    1.2106 H   0  0  0  0  0  0  0  0  0  0  0  0
   -6.7206    6.6865    0.0032 H   0  0  0  0  0  0  0  0  0  0  0  0
   -5.1943    8.9837   -0.0313 H   0  0  0  0  0  0  0  0  0  0  0  0
    1.9994    6.3774    3.5872 H   0  0  0  0  0  0  0  0  0  0  0  0
    1.2609    7.3584    5.5824 H   0  0  0  0  0  0  0  0  0  0  0  0
    0.1279    6.0469    5.9229 H   0  0  0  0  0  0  0  0  0  0  0  0
    2.8922    6.1881    6.8234 H   0  0  0  0  0  0  0  0  0  0  0  0
    1.6645    4.9736    7.1772 H   0  0  0  0  0  0  0  0  0  0  0  0
    3.7637    4.9620    5.0408 H   0  0  0  0  0  0  0  0  0  0  0  0
    3.1098    3.5831    5.8945 H   0  0  0  0  0  0  0  0  0  0  0  0
    2.3970    4.1020    3.3128 H   0  0  0  0  0  0  0  0  0  0  0  0
   -0.1065    6.6763    2.8464 H   0  0  0  0  0  0  0  0  0  0  0  0
  1  2  1  0
  2  8  2  0
  2  3  1  0
  3  4  2  0
  3 28  1  0
  4  5  1  0
  4 29  1  0
  5  6  2  0
  5 30  1  0
  6  7  1  0
  6  8  1  0
  8  9  1  0
  9 27  1  0
  9 10  1  0
  9 31  1  1
 10 21  2  0
 10 11  1  0
 11 12  1  0
 11 32  1  0
 11 33  1  0
 12 13  1  0
 12 34  1  0
 13 14  1  0
 13 35  1  0
 13 36  1  0
 14 15  2  3
 14 21  1  0
 15 16  1  0
 15 37  1  0
 16 20  1  0
 16 17  2  0
 17 18  1  0
 17 38  1  0
 18 19  2  0
 18 39  1  0
 19 20  1  0
 19 40  1  0
 21 22  1  0
 22 23  1  0
 22 49  1  0
 23 27  1  0
 23 24  1  0
 23 41  1  6
 24 25  1  0
 24 42  1  0
 24 43  1  0
 25 26  1  0
 25 44  1  0
 25 45  1  0
 26 27  1  0
 26 46  1  0
 26 47  1  0
 27 48  1  6
M  END
>  <i_m_ct_stereo_status>  (47) 
1

>  <s_m_source_file>  (47) 
/var/tmp/pbs.5076255.sched01/tmp44bw07az/09l6mph0o.sdf

>  <i_m_source_file_index>  (47) 
20

>  <i_lp_mmshare_version>  (47) 
48012

>  <i_f3d_flags>  (47) 
0

>  <s_epik_input>  (47) 
RmMxW2NIXVtjSF1bY0hdYyhGKWMxW0NASF0yW0NASF0oW0NIMl1bQ0gyXVtDSDJdMylbQ0BIXTNOPUMoW0NAQEhdMjQpQyhcW0NIMl1bTkhdW0NIMl00KT1bQ0hdXGM1W2NIXVtjSF1bY0hdbzU=

>  <s_epik_cmdline>  (47) 
J2VwaWtfcHl0aG9uJywgJy1waHQnLCAnMi4wJywgJy1waCcsICc3LjAnLCAnLXRuJywgJzgnLCAnLW1hJywgJzIwMCcsICctaW1hZScsICc8aW5maWxlLm1hZT4nLCAnLW9tYWUnLCAnPG91dGZpbGUubWFlPic=

>  <r_epik_Ionization_Penalty>  (47) 
0.299301

>  <r_epik_Ionization_Penalty_Charging>  (47) 
8.72981e-12

>  <r_epik_Ionization_Penalty_Neutral>  (47) 
0.299301

>  <r_epik_State_Penalty>  (47) 
0.292673

>  <r_epik_Charging_Adjusted_Penalty>  (47) 
0.292673

>  <i_epik_Tot_Q>  (47) 
0

>  <i_epik_Tot_abs_Q>  (47) 
0

>  <s_epik_Chemistry_Notes>  (47) 
This compound has an imine and may undergo hydrolysis.

>  <s_lp_Force_Field>  (47) 
OPLS3e

>  <r_lp_Energy>  (47) 
38.0453

>  <b_lp_Chiralities_Consistent>  (47) 
1

>  <s_lp_Variant>  (47) 
11:0-1

>  <s_i_glide_gridfile>  (47) 
pfpi4k_grid

>  <i_i_glide_lignum>  (47) 
20

>  <i_i_glide_rotatable_bonds>  (47) 
2

>  <r_i_docking_score>  (47) 
-4.21003

>  <r_i_glide_ligand_efficiency>  (47) 
-0.155927

>  <r_i_glide_ligand_efficiency_sa>  (47) 
-0.467782

>  <r_i_glide_ligand_efficiency_ln>  (47) 
-0.980026

>  <r_i_glide_gscore>  (47) 
-4.21003

>  <r_i_glide_lipo>  (47) 
-0.832709

>  <r_i_glide_hbond>  (47) 
-0.406858

>  <r_i_glide_metal>  (47) 
-0

>  <r_i_glide_rewards>  (47) 
-0.897139

>  <r_i_glide_evdw>  (47) 
-24.2781

>  <r_i_glide_ecoul>  (47) 
-5.40229

>  <r_i_glide_erotb>  (47) 
0.141967

>  <r_i_glide_esite>  (47) 
-0.191045

>  <r_i_glide_emodel>  (47) 
-37.889

>  <r_i_glide_energy>  (47) 
-29.6804

>  <r_i_glide_einternal>  (47) 
0.0868266

>  <r_i_glide_intrahb_reward>  (47) 
-0

>  <i_i_glide_confnum>  (47) 
2

>  <i_i_glide_posenum>  (47) 
3

>  <r_i_glide_eff_state_penalty>  (47) 
0

>  <ligand_id>  (47) 
11

>  <original_smiles>  (47) 
Fc1cccc(F)c1C1C2CNCC(=Cc3ccco3)C2=NC2CCCC21

>  <smiles>  (47) 
[H]C(=C1C2=C(C([H])([H])N([H])C1([H])[H])C([H])(c1c(F)c([H])c([H])c([H])c1F)C1([H])C([H])([H])C([H])([H])C([H])([H])C1([H])N2[H])c1oc([H])c([H])c1[H]

$$$$
11:0:1
     RDKit          3D

 49 53  0  0  1  0  0  0  0  0999 V2000
    3.1798    2.1078    6.3134 F   0  0  0  0  0  0  0  0  0  0  0  0
    3.0755    1.5911    5.0664 C   0  0  0  0  0  0  0  0  0  0  0  0
    3.7989    0.4201    4.7598 C   0  0  0  0  0  0  0  0  0  0  0  0
    3.7026   -0.1559    3.4821 C   0  0  0  0  0  0  0  0  0  0  0  0
    2.8937    0.4471    2.5080 C   0  0  0  0  0  0  0  0  0  0  0  0
    2.1922    1.6275    2.8048 C   0  0  0  0  0  0  0  0  0  0  0  0
    1.4427    2.1756    1.8285 F   0  0  0  0  0  0  0  0  0  0  0  0
    2.2581    2.2123    4.0920 C   0  0  0  0  0  0  0  0  0  0  0  0
    1.4907    3.5077    4.4212 C   0  0  2  0  0  0  0  0  0  0  0  0
    0.0378    3.5770    3.8986 C   0  0  0  0  0  0  0  0  0  0  0  0
   -0.7555    2.2749    4.0012 C   0  0  0  0  0  0  0  0  0  0  0  0
   -2.1889    2.4930    4.0955 N   0  0  0  0  0  0  0  0  0  0  0  0
   -2.6783    3.3493    3.0280 C   0  0  0  0  0  0  0  0  0  0  0  0
   -1.8865    4.6489    2.8612 C   0  0  0  0  0  0  0  0  0  0  0  0
   -2.4556    5.7273    2.2449 C   0  0  0  0  0  0  0  0  0  0  0  0
   -3.7795    5.8898    1.6813 C   0  0  0  0  0  0  0  0  0  0  0  0
   -4.8075    5.0336    1.3853 C   0  0  0  0  0  0  0  0  0  0  0  0
   -5.8659    5.8334    0.8757 C   0  0  0  0  0  0  0  0  0  0  0  0
   -5.4158    7.1123    0.8984 C   0  0  0  0  0  0  0  0  0  0  0  0
   -4.1494    7.1741    1.3991 O   0  0  0  0  0  0  0  0  0  0  0  0
   -0.5172    4.7057    3.3851 C   0  0  0  0  0  0  0  0  0  0  0  0
    0.2183    5.8859    3.3543 N   0  0  0  0  0  0  0  0  0  0  0  0
    1.5110    6.0503    3.9806 C   0  0  1  0  0  0  0  0  0  0  0  0
    1.4031    6.5773    5.4119 C   0  0  0  0  0  0  0  0  0  0  0  0
    2.6320    6.0227    6.1463 C   0  0  0  0  0  0  0  0  0  0  0  0
    3.3745    5.1388    5.1309 C   0  0  0  0  0  0  0  0  0  0  0  0
    2.3349    4.7624    4.0590 C   0  0  1  0  0  0  0  0  0  0  0  0
    4.4267   -0.0359    5.5102 H   0  0  0  0  0  0  0  0  0  0  0  0
    4.2411   -1.0567    3.2475 H   0  0  0  0  0  0  0  0  0  0  0  0
    2.8004    0.0194    1.5233 H   0  0  0  0  0  0  0  0  0  0  0  0
    1.3443    3.5179    5.5000 H   0  0  0  0  0  0  0  0  0  0  0  0
   -0.5521    1.6424    3.1344 H   0  0  0  0  0  0  0  0  0  0  0  0
   -0.4364    1.7161    4.8822 H   0  0  0  0  0  0  0  0  0  0  0  0
   -2.6767    1.6096    4.0286 H   0  0  0  0  0  0  0  0  0  0  0  0
   -2.6507    2.7995    2.0854 H   0  0  0  0  0  0  0  0  0  0  0  0
   -3.7138    3.5628    3.2749 H   0  0  0  0  0  0  0  0  0  0  0  0
   -1.8384    6.5964    2.0934 H   0  0  0  0  0  0  0  0  0  0  0  0
   -4.8070    3.9589    1.5021 H   0  0  0  0  0  0  0  0  0  0  0  0
   -6.8348    5.4970    0.5381 H   0  0  0  0  0  0  0  0  0  0  0  0
   -5.8403    8.0649    0.6040 H   0  0  0  0  0  0  0  0  0  0  0  0
    2.0684    6.7720    3.3861 H   0  0  0  0  0  0  0  0  0  0  0  0
    1.3565    7.6681    5.4271 H   0  0  0  0  0  0  0  0  0  0  0  0
    0.4958    6.1961    5.8876 H   0  0  0  0  0  0  0  0  0  0  0  0
    3.2657    6.8256    6.5276 H   0  0  0  0  0  0  0  0  0  0  0  0
    2.3017    5.4276    7.0017 H   0  0  0  0  0  0  0  0  0  0  0  0
    4.1692    5.7285    4.6736 H   0  0  0  0  0  0  0  0  0  0  0  0
    3.8590    4.2890    5.6068 H   0  0  0  0  0  0  0  0  0  0  0  0
    2.8186    4.5850    3.0984 H   0  0  0  0  0  0  0  0  0  0  0  0
   -0.1002    6.7044    2.8346 H   0  0  0  0  0  0  0  0  0  0  0  0
  1  2  1  0
  2  8  2  0
  2  3  1  0
  3  4  2  0
  3 28  1  0
  4  5  1  0
  4 29  1  0
  5  6  2  0
  5 30  1  0
  6  7  1  0
  6  8  1  0
  8  9  1  0
  9 27  1  0
  9 10  1  0
  9 31  1  1
 10 21  2  0
 10 11  1  0
 11 12  1  0
 11 32  1  0
 11 33  1  0
 12 13  1  0
 12 34  1  0
 13 14  1  0
 13 35  1  0
 13 36  1  0
 14 15  2  3
 14 21  1  0
 15 16  1  0
 15 37  1  0
 16 20  1  0
 16 17  2  0
 17 18  1  0
 17 38  1  0
 18 19  2  0
 18 39  1  0
 19 20  1  0
 19 40  1  0
 21 22  1  0
 22 23  1  0
 22 49  1  0
 23 27  1  0
 23 24  1  0
 23 41  1  6
 24 25  1  0
 24 42  1  0
 24 43  1  0
 25 26  1  0
 25 44  1  0
 25 45  1  0
 26 27  1  0
 26 46  1  0
 26 47  1  0
 27 48  1  6
M  END
>  <i_m_ct_stereo_status>  (48) 
1

>  <s_m_source_file>  (48) 
/var/tmp/pbs.5076255.sched01/tmp44bw07az/09l6mph0o.sdf

>  <i_m_source_file_index>  (48) 
20

>  <i_lp_mmshare_version>  (48) 
48012

>  <i_f3d_flags>  (48) 
0

>  <s_epik_input>  (48) 
RmMxW2NIXVtjSF1bY0hdYyhGKWMxW0NASF0yW0NASF0oW0NIMl1bQ0gyXVtDSDJdMylbQ0BIXTNOPUMoW0NAQEhdMjQpQyhcW0NIMl1bTkhdW0NIMl00KT1bQ0hdXGM1W2NIXVtjSF1bY0hdbzU=

>  <s_epik_cmdline>  (48) 
J2VwaWtfcHl0aG9uJywgJy1waHQnLCAnMi4wJywgJy1waCcsICc3LjAnLCAnLXRuJywgJzgnLCAnLW1hJywgJzIwMCcsICctaW1hZScsICc8aW5maWxlLm1hZT4nLCAnLW9tYWUnLCAnPG91dGZpbGUubWFlPic=

>  <r_epik_Ionization_Penalty>  (48) 
0.299301

>  <r_epik_Ionization_Penalty_Charging>  (48) 
8.72981e-12

>  <r_epik_Ionization_Penalty_Neutral>  (48) 
0.299301

>  <r_epik_State_Penalty>  (48) 
0.292673

>  <r_epik_Charging_Adjusted_Penalty>  (48) 
0.292673

>  <i_epik_Tot_Q>  (48) 
0

>  <i_epik_Tot_abs_Q>  (48) 
0

>  <s_epik_Chemistry_Notes>  (48) 
This compound has an imine and may undergo hydrolysis.

>  <s_lp_Force_Field>  (48) 
OPLS3e

>  <r_lp_Energy>  (48) 
38.0453

>  <b_lp_Chiralities_Consistent>  (48) 
1

>  <s_lp_Variant>  (48) 
11:0-1

>  <s_i_glide_gridfile>  (48) 
pfpi4k_grid

>  <i_i_glide_lignum>  (48) 
20

>  <i_i_glide_rotatable_bonds>  (48) 
2

>  <r_i_docking_score>  (48) 
-4.00201

>  <r_i_glide_ligand_efficiency>  (48) 
-0.148222

>  <r_i_glide_ligand_efficiency_sa>  (48) 
-0.444667

>  <r_i_glide_ligand_efficiency_ln>  (48) 
-0.931601

>  <r_i_glide_gscore>  (48) 
-4.00201

>  <r_i_glide_lipo>  (48) 
-0.845177

>  <r_i_glide_hbond>  (48) 
-0.254826

>  <r_i_glide_metal>  (48) 
-0

>  <r_i_glide_rewards>  (48) 
-0.897139

>  <r_i_glide_evdw>  (48) 
-24.9463

>  <r_i_glide_ecoul>  (48) 
-4.86011

>  <r_i_glide_erotb>  (48) 
0.141967

>  <r_i_glide_esite>  (48) 
-0.1705

>  <r_i_glide_emodel>  (48) 
-37.1799

>  <r_i_glide_energy>  (48) 
-29.8064

>  <r_i_glide_einternal>  (48) 
0.655729

>  <r_i_glide_intrahb_reward>  (48) 
-0

>  <i_i_glide_confnum>  (48) 
1

>  <i_i_glide_posenum>  (48) 
16

>  <r_i_glide_eff_state_penalty>  (48) 
0

>  <ligand_id>  (48) 
11

>  <original_smiles>  (48) 
Fc1cccc(F)c1C1C2CNCC(=Cc3ccco3)C2=NC2CCCC21

>  <smiles>  (48) 
[H]C(=C1C2=C(C([H])([H])N([H])C1([H])[H])C([H])(c1c(F)c([H])c([H])c([H])c1F)C1([H])C([H])([H])C([H])([H])C([H])([H])C1([H])N2[H])c1oc([H])c([H])c1[H]

$$$$
11:0:2
     RDKit          3D

 49 53  0  0  1  0  0  0  0  0999 V2000
    2.7563   -8.1768    5.2808 F   0  0  0  0  0  0  0  0  0  0  0  0
    1.6104   -8.0104    4.5820 C   0  0  0  0  0  0  0  0  0  0  0  0
    0.3917   -8.3964    5.1720 C   0  0  0  0  0  0  0  0  0  0  0  0
   -0.8114   -8.2342    4.4668 C   0  0  0  0  0  0  0  0  0  0  0  0
   -0.7998   -7.6876    3.1750 C   0  0  0  0  0  0  0  0  0  0  0  0
    0.4179   -7.3127    2.5789 C   0  0  0  0  0  0  0  0  0  0  0  0
    0.3909   -6.7933    1.3290 F   0  0  0  0  0  0  0  0  0  0  0  0
    1.6383   -7.4626    3.2785 C   0  0  0  0  0  0  0  0  0  0  0  0
    2.9750   -7.0709    2.6308 C   0  0  2  0  0  0  0  0  0  0  0  0
    2.9779   -5.6930    1.9436 C   0  0  0  0  0  0  0  0  0  0  0  0
    2.2350   -4.5949    2.6997 C   0  0  0  0  0  0  0  0  0  0  0  0
    2.7334   -3.2663    2.3901 N   0  0  0  0  0  0  0  0  0  0  0  0
    2.8186   -3.0072    0.9644 C   0  0  0  0  0  0  0  0  0  0  0  0
    3.5347   -4.1040    0.1858 C   0  0  0  0  0  0  0  0  0  0  0  0
    4.0639   -3.8349   -1.0335 C   0  0  0  0  0  0  0  0  0  0  0  0
    4.1661   -2.5982   -1.7675 C   0  0  0  0  0  0  0  0  0  0  0  0
    4.1420   -1.2635   -1.4411 C   0  0  0  0  0  0  0  0  0  0  0  0
    4.2002   -0.5308   -2.6549 C   0  0  0  0  0  0  0  0  0  0  0  0
    4.2294   -1.4626   -3.6530 C   0  0  0  0  0  0  0  0  0  0  0  0
    4.2345   -2.7215   -3.1281 O   0  0  0  0  0  0  0  0  0  0  0  0
    3.6138   -5.4495    0.7735 C   0  0  0  0  0  0  0  0  0  0  0  0
    4.3345   -6.4589    0.1538 N   0  0  0  0  0  0  0  0  0  0  0  0
    4.5989   -7.7550    0.7508 C   0  0  1  0  0  0  0  0  0  0  0  0
    5.9107   -7.7843    1.5352 C   0  0  0  0  0  0  0  0  0  0  0  0
    5.7101   -8.8275    2.6375 C   0  0  0  0  0  0  0  0  0  0  0  0
    4.2572   -9.3121    2.5109 C   0  0  0  0  0  0  0  0  0  0  0  0
    3.5146   -8.2164    1.7300 C   0  0  1  0  0  0  0  0  0  0  0  0
    0.3848   -8.8330    6.1600 H   0  0  0  0  0  0  0  0  0  0  0  0
   -1.7440   -8.5422    4.9126 H   0  0  0  0  0  0  0  0  0  0  0  0
   -1.7235   -7.5704    2.6297 H   0  0  0  0  0  0  0  0  0  0  0  0
    3.6958   -6.9243    3.4352 H   0  0  0  0  0  0  0  0  0  0  0  0
    1.1708   -4.6378    2.4641 H   0  0  0  0  0  0  0  0  0  0  0  0
    2.3326   -4.7496    3.7758 H   0  0  0  0  0  0  0  0  0  0  0  0
    2.1830   -2.5465    2.8308 H   0  0  0  0  0  0  0  0  0  0  0  0
    1.8244   -2.8724    0.5336 H   0  0  0  0  0  0  0  0  0  0  0  0
    3.3448   -2.0629    0.8977 H   0  0  0  0  0  0  0  0  0  0  0  0
    4.5400   -4.6449   -1.5577 H   0  0  0  0  0  0  0  0  0  0  0  0
    4.1089   -0.8284   -0.4520 H   0  0  0  0  0  0  0  0  0  0  0  0
    4.2104    0.5389   -2.7812 H   0  0  0  0  0  0  0  0  0  0  0  0
    4.2845   -1.3896   -4.7265 H   0  0  0  0  0  0  0  0  0  0  0  0
    4.6440   -8.4969   -0.0469 H   0  0  0  0  0  0  0  0  0  0  0  0
    6.7587   -8.0240    0.8930 H   0  0  0  0  0  0  0  0  0  0  0  0
    6.1082   -6.8087    1.9832 H   0  0  0  0  0  0  0  0  0  0  0  0
    6.4184   -9.6519    2.5456 H   0  0  0  0  0  0  0  0  0  0  0  0
    5.8722   -8.3576    3.6104 H   0  0  0  0  0  0  0  0  0  0  0  0
    4.2475  -10.2340    1.9288 H   0  0  0  0  0  0  0  0  0  0  0  0
    3.8124   -9.5498    3.4762 H   0  0  0  0  0  0  0  0  0  0  0  0
    2.6774   -8.6401    1.1747 H   0  0  0  0  0  0  0  0  0  0  0  0
    4.7152   -6.3025   -0.7724 H   0  0  0  0  0  0  0  0  0  0  0  0
  1  2  1  0
  2  8  2  0
  2  3  1  0
  3  4  2  0
  3 28  1  0
  4  5  1  0
  4 29  1  0
  5  6  2  0
  5 30  1  0
  6  7  1  0
  6  8  1  0
  8  9  1  0
  9 27  1  0
  9 10  1  0
  9 31  1  1
 10 21  2  0
 10 11  1  0
 11 12  1  0
 11 32  1  0
 11 33  1  0
 12 13  1  0
 12 34  1  0
 13 14  1  0
 13 35  1  0
 13 36  1  0
 14 15  2  3
 14 21  1  0
 15 16  1  0
 15 37  1  0
 16 20  1  0
 16 17  2  0
 17 18  1  0
 17 38  1  0
 18 19  2  0
 18 39  1  0
 19 20  1  0
 19 40  1  0
 21 22  1  0
 22 23  1  0
 22 49  1  0
 23 27  1  0
 23 24  1  0
 23 41  1  6
 24 25  1  0
 24 42  1  0
 24 43  1  0
 25 26  1  0
 25 44  1  0
 25 45  1  0
 26 27  1  0
 26 46  1  0
 26 47  1  0
 27 48  1  6
M  END
>  <i_m_ct_stereo_status>  (49) 
1

>  <s_m_source_file>  (49) 
/var/tmp/pbs.5076255.sched01/tmp44bw07az/09l6mph0o.sdf

>  <i_m_source_file_index>  (49) 
20

>  <i_lp_mmshare_version>  (49) 
48012

>  <i_f3d_flags>  (49) 
0

>  <s_epik_input>  (49) 
RmMxW2NIXVtjSF1bY0hdYyhGKWMxW0NASF0yW0NASF0oW0NIMl1bQ0gyXVtDSDJdMylbQ0BIXTNOPUMoW0NAQEhdMjQpQyhcW0NIMl1bTkhdW0NIMl00KT1bQ0hdXGM1W2NIXVtjSF1bY0hdbzU=

>  <s_epik_cmdline>  (49) 
J2VwaWtfcHl0aG9uJywgJy1waHQnLCAnMi4wJywgJy1waCcsICc3LjAnLCAnLXRuJywgJzgnLCAnLW1hJywgJzIwMCcsICctaW1hZScsICc8aW5maWxlLm1hZT4nLCAnLW9tYWUnLCAnPG91dGZpbGUubWFlPic=

>  <r_epik_Ionization_Penalty>  (49) 
0.299301

>  <r_epik_Ionization_Penalty_Charging>  (49) 
8.72981e-12

>  <r_epik_Ionization_Penalty_Neutral>  (49) 
0.299301

>  <r_epik_State_Penalty>  (49) 
0.292673

>  <r_epik_Charging_Adjusted_Penalty>  (49) 
0.292673

>  <i_epik_Tot_Q>  (49) 
0

>  <i_epik_Tot_abs_Q>  (49) 
0

>  <s_epik_Chemistry_Notes>  (49) 
This compound has an imine and may undergo hydrolysis.

>  <s_lp_Force_Field>  (49) 
OPLS3e

>  <r_lp_Energy>  (49) 
38.0453

>  <b_lp_Chiralities_Consistent>  (49) 
1

>  <s_lp_Variant>  (49) 
11:0-1

>  <s_i_glide_gridfile>  (49) 
pfpi4k_grid

>  <i_i_glide_lignum>  (49) 
20

>  <i_i_glide_rotatable_bonds>  (49) 
2

>  <r_i_docking_score>  (49) 
-2.97513

>  <r_i_glide_ligand_efficiency>  (49) 
-0.11019

>  <r_i_glide_ligand_efficiency_sa>  (49) 
-0.33057

>  <r_i_glide_ligand_efficiency_ln>  (49) 
-0.692562

>  <r_i_glide_gscore>  (49) 
-2.97513

>  <r_i_glide_lipo>  (49) 
-0.473545

>  <r_i_glide_hbond>  (49) 
0

>  <r_i_glide_metal>  (49) 
-0

>  <r_i_glide_rewards>  (49) 
-0.897139

>  <r_i_glide_evdw>  (49) 
-29.4979

>  <r_i_glide_ecoul>  (49) 
-1.12614

>  <r_i_glide_erotb>  (49) 
0.141967

>  <r_i_glide_esite>  (49) 
-0.102603

>  <r_i_glide_emodel>  (49) 
-35.6808

>  <r_i_glide_energy>  (49) 
-30.624

>  <r_i_glide_einternal>  (49) 
1.45441

>  <r_i_glide_intrahb_reward>  (49) 
-0

>  <i_i_glide_confnum>  (49) 
1

>  <i_i_glide_posenum>  (49) 
19

>  <r_i_glide_eff_state_penalty>  (49) 
0

>  <ligand_id>  (49) 
11

>  <original_smiles>  (49) 
Fc1cccc(F)c1C1C2CNCC(=Cc3ccco3)C2=NC2CCCC21

>  <smiles>  (49) 
[H]C(=C1C2=C(C([H])([H])N([H])C1([H])[H])C([H])(c1c(F)c([H])c([H])c([H])c1F)C1([H])C([H])([H])C([H])([H])C([H])([H])C1([H])N2[H])c1oc([H])c([H])c1[H]

$$$$
11:1:0
     RDKit          3D

 49 53  0  0  1  0  0  0  0  0999 V2000
    2.1456   -8.1424    5.2490 F   0  0  0  0  0  0  0  0  0  0  0  0
    1.0060   -8.0025    4.5273 C   0  0  0  0  0  0  0  0  0  0  0  0
   -0.1693   -8.6439    4.9562 C   0  0  0  0  0  0  0  0  0  0  0  0
   -1.3519   -8.5111    4.2064 C   0  0  0  0  0  0  0  0  0  0  0  0
   -1.3747   -7.7468    3.0297 C   0  0  0  0  0  0  0  0  0  0  0  0
   -0.2011   -7.1025    2.6000 C   0  0  0  0  0  0  0  0  0  0  0  0
   -0.2264   -6.3583    1.4672 F   0  0  0  0  0  0  0  0  0  0  0  0
    0.9926   -7.2234    3.3493 C   0  0  0  0  0  0  0  0  0  0  0  0
    2.2615   -6.5393    2.8664 C   0  0  2  0  0  0  0  0  0  0  0  0
    2.1425   -5.0043    2.8132 C   0  0  0  0  0  0  0  0  0  0  0  0
    1.4268   -4.3343    3.9826 C   0  0  0  0  0  0  0  0  0  0  0  0
    1.7071   -2.9089    4.1138 N   0  0  0  0  0  0  0  0  0  0  0  0
    1.6590   -2.1871    2.8488 C   0  0  0  0  0  0  0  0  0  0  0  0
    2.5692   -2.8202    1.7963 C   0  0  0  0  0  0  0  0  0  0  0  0
    3.2320   -1.9764    0.9542 C   0  0  0  0  0  0  0  0  0  0  0  0
    4.2236   -2.0824   -0.0960 C   0  0  0  0  0  0  0  0  0  0  0  0
    4.9627   -1.1463   -0.7809 C   0  0  0  0  0  0  0  0  0  0  0  0
    5.8461   -1.8737   -1.6303 C   0  0  0  0  0  0  0  0  0  0  0  0
    5.5762   -3.1917   -1.4388 C   0  0  0  0  0  0  0  0  0  0  0  0
    4.6155   -3.3119   -0.5145 O   0  0  0  0  0  0  0  0  0  0  0  0
    2.6807   -4.2834    1.8063 C   0  0  0  0  0  0  0  0  0  0  0  0
    3.2717   -4.9578    0.7664 N   0  0  0  0  0  0  0  0  0  0  0  0
    3.7240   -6.3252    0.7815 C   0  0  1  0  0  0  0  0  0  0  0  0
    5.1186   -6.5227    1.3769 C   0  0  0  0  0  0  0  0  0  0  0  0
    5.0715   -7.9313    1.9876 C   0  0  0  0  0  0  0  0  0  0  0  0
    3.6369   -8.4505    1.7792 C   0  0  0  0  0  0  0  0  0  0  0  0
    2.7701   -7.2083    1.5535 C   0  0  1  0  0  0  0  0  0  0  0  0
   -0.1590   -9.2567    5.8455 H   0  0  0  0  0  0  0  0  0  0  0  0
   -2.2396   -9.0248    4.5288 H   0  0  0  0  0  0  0  0  0  0  0  0
   -2.2882   -7.6738    2.4607 H   0  0  0  0  0  0  0  0  0  0  0  0
    3.0428   -6.6846    3.6127 H   0  0  0  0  0  0  0  0  0  0  0  0
    0.3560   -4.4663    3.8330 H   0  0  0  0  0  0  0  0  0  0  0  0
    1.6941   -4.8382    4.9141 H   0  0  0  0  0  0  0  0  0  0  0  0
    1.0996   -2.4842    4.7979 H   0  0  0  0  0  0  0  0  0  0  0  0
    0.6340   -2.1946    2.4813 H   0  0  0  0  0  0  0  0  0  0  0  0
    1.9200   -1.1416    3.0245 H   0  0  0  0  0  0  0  0  0  0  0  0
    2.9724   -0.9412    1.1062 H   0  0  0  0  0  0  0  0  0  0  0  0
    4.8763   -0.0842   -0.6433 H   0  0  0  0  0  0  0  0  0  0  0  0
    6.6097   -1.5215   -2.2989 H   0  0  0  0  0  0  0  0  0  0  0  0
    5.9435   -4.1239   -1.8208 H   0  0  0  0  0  0  0  0  0  0  0  0
    3.7633   -6.6523   -0.2550 H   0  0  0  0  0  0  0  0  0  0  0  0
    5.8959   -6.4203    0.6175 H   0  0  0  0  0  0  0  0  0  0  0  0
    5.3245   -5.7834    2.1522 H   0  0  0  0  0  0  0  0  0  0  0  0
    5.8106   -8.5952    1.5358 H   0  0  0  0  0  0  0  0  0  0  0  0
    5.2924   -7.8645    3.0532 H   0  0  0  0  0  0  0  0  0  0  0  0
    3.6191   -9.0603    0.8754 H   0  0  0  0  0  0  0  0  0  0  0  0
    3.2830   -9.0730    2.6010 H   0  0  0  0  0  0  0  0  0  0  0  0
    1.9307   -7.4330    0.8948 H   0  0  0  0  0  0  0  0  0  0  0  0
    3.6877   -4.3842    0.0516 H   0  0  0  0  0  0  0  0  0  0  0  0
  1  2  1  0
  2  8  2  0
  2  3  1  0
  3  4  2  0
  3 28  1  0
  4  5  1  0
  4 29  1  0
  5  6  2  0
  5 30  1  0
  6  7  1  0
  6  8  1  0
  8  9  1  0
  9 27  1  0
  9 10  1  0
  9 31  1  1
 10 21  2  0
 10 11  1  0
 11 12  1  0
 11 32  1  0
 11 33  1  0
 12 13  1  0
 12 34  1  0
 13 14  1  0
 13 35  1  0
 13 36  1  0
 14 15  2  3
 14 21  1  0
 15 16  1  0
 15 37  1  0
 16 20  1  0
 16 17  2  0
 17 18  1  0
 17 38  1  0
 18 19  2  0
 18 39  1  0
 19 20  1  0
 19 40  1  0
 21 22  1  0
 22 23  1  0
 22 49  1  0
 23 27  1  0
 23 24  1  0
 23 41  1  6
 24 25  1  0
 24 42  1  0
 24 43  1  0
 25 26  1  0
 25 44  1  0
 25 45  1  0
 26 27  1  0
 26 46  1  0
 26 47  1  0
 27 48  1  6
M  END
>  <i_m_ct_stereo_status>  (50) 
1

>  <s_m_source_file>  (50) 
/var/tmp/pbs.5076255.sched01/tmp44bw07az/09l6mph0o.sdf

>  <i_m_source_file_index>  (50) 
21

>  <i_lp_mmshare_version>  (50) 
48012

>  <i_f3d_flags>  (50) 
0

>  <s_epik_input>  (50) 
RmMxW2NIXVtjSF1bY0hdYyhGKWMxW0NASF0yW0NASF0oW0NIMl1bQ0gyXVtDSDJdMylbQ0BIXTNOPUMoW0NAQEhdMjQpQyhcW0NIMl1bTkhdW0NIMl00KT1bQ0hdXGM1W2NIXVtjSF1bY0hdbzU=

>  <s_epik_cmdline>  (50) 
J2VwaWtfcHl0aG9uJywgJy1waHQnLCAnMi4wJywgJy1waCcsICc3LjAnLCAnLXRuJywgJzgnLCAnLW1hJywgJzIwMCcsICctaW1hZScsICc8aW5maWxlLm1hZT4nLCAnLW9tYWUnLCAnPG91dGZpbGUubWFlPic=

>  <r_epik_Ionization_Penalty>  (50) 
0.299301

>  <r_epik_Ionization_Penalty_Charging>  (50) 
8.72981e-12

>  <r_epik_Ionization_Penalty_Neutral>  (50) 
0.299301

>  <r_epik_State_Penalty>  (50) 
0.292673

>  <r_epik_Charging_Adjusted_Penalty>  (50) 
0.292673

>  <i_epik_Tot_Q>  (50) 
0

>  <i_epik_Tot_abs_Q>  (50) 
0

>  <s_epik_Chemistry_Notes>  (50) 
This compound has an imine and may undergo hydrolysis.

>  <s_lp_Force_Field>  (50) 
OPLS3e

>  <r_lp_Energy>  (50) 
40.1869

>  <b_lp_Chiralities_Consistent>  (50) 
1

>  <s_lp_Variant>  (50) 
11:0-2

>  <s_i_glide_gridfile>  (50) 
pfpi4k_grid

>  <i_i_glide_lignum>  (50) 
21

>  <i_i_glide_rotatable_bonds>  (50) 
2

>  <r_i_docking_score>  (50) 
-3.23687

>  <r_i_glide_ligand_efficiency>  (50) 
-0.119884

>  <r_i_glide_ligand_efficiency_sa>  (50) 
-0.359652

>  <r_i_glide_ligand_efficiency_ln>  (50) 
-0.753489

>  <r_i_glide_gscore>  (50) 
-3.23687

>  <r_i_glide_lipo>  (50) 
-0.278598

>  <r_i_glide_hbond>  (50) 
0

>  <r_i_glide_metal>  (50) 
-0

>  <r_i_glide_rewards>  (50) 
-1.39714

>  <r_i_glide_evdw>  (50) 
-23.8897

>  <r_i_glide_ecoul>  (50) 
-2.61674

>  <r_i_glide_erotb>  (50) 
0.141967

>  <r_i_glide_esite>  (50) 
-0.1161

>  <r_i_glide_emodel>  (50) 
-35.9026

>  <r_i_glide_energy>  (50) 
-26.5065

>  <r_i_glide_einternal>  (50) 
0.149622

>  <r_i_glide_intrahb_reward>  (50) 
-0.5

>  <i_i_glide_confnum>  (50) 
1

>  <i_i_glide_posenum>  (50) 
1

>  <r_i_glide_eff_state_penalty>  (50) 
0

>  <ligand_id>  (50) 
11

>  <original_smiles>  (50) 
Fc1cccc(F)c1C1C2CNCC(=Cc3ccco3)C2=NC2CCCC21

>  <smiles>  (50) 
[H]C(=C1C2=C(C([H])([H])N([H])C1([H])[H])C([H])(c1c(F)c([H])c([H])c([H])c1F)C1([H])C([H])([H])C([H])([H])C([H])([H])C1([H])N2[H])c1oc([H])c([H])c1[H]

$$$$
11:1:1
     RDKit          3D

 49 53  0  0  1  0  0  0  0  0999 V2000
    2.5022   -8.0710    5.1841 F   0  0  0  0  0  0  0  0  0  0  0  0
    1.3098   -7.9488    4.5532 C   0  0  0  0  0  0  0  0  0  0  0  0
    0.1877   -8.6398    5.0390 C   0  0  0  0  0  0  0  0  0  0  0  0
   -1.0398   -8.5107    4.3721 C   0  0  0  0  0  0  0  0  0  0  0  0
   -1.1760   -7.7232    3.2306 C   0  0  0  0  0  0  0  0  0  0  0  0
   -0.0566   -7.0354    2.7440 C   0  0  0  0  0  0  0  0  0  0  0  0
   -0.1846   -6.2825    1.6316 F   0  0  0  0  0  0  0  0  0  0  0  0
    1.1889   -7.1355    3.4101 C   0  0  0  0  0  0  0  0  0  0  0  0
    2.4025   -6.3994    2.8645 C   0  0  2  0  0  0  0  0  0  0  0  0
    2.2240   -4.8638    2.8317 C   0  0  0  0  0  0  0  0  0  0  0  0
    1.5702   -4.2389    4.0721 C   0  0  0  0  0  0  0  0  0  0  0  0
    1.8109   -2.7986    4.2074 N   0  0  0  0  0  0  0  0  0  0  0  0
    1.6666   -2.0586    2.9549 C   0  0  0  0  0  0  0  0  0  0  0  0
    2.5076   -2.6535    1.8251 C   0  0  0  0  0  0  0  0  0  0  0  0
    3.1147   -1.8181    0.9470 C   0  0  0  0  0  0  0  0  0  0  0  0
    4.0976   -1.9422   -0.1141 C   0  0  0  0  0  0  0  0  0  0  0  0
    4.9882   -2.9106   -0.5406 C   0  0  0  0  0  0  0  0  0  0  0  0
    5.5386   -2.4442   -1.7634 C   0  0  0  0  0  0  0  0  0  0  0  0
    5.0676   -1.1715   -1.9469 C   0  0  0  0  0  0  0  0  0  0  0  0
    4.1983   -0.8610   -0.9491 O   0  0  0  0  0  0  0  0  0  0  0  0
    2.6674   -4.1140    1.8129 C   0  0  0  0  0  0  0  0  0  0  0  0
    3.2468   -4.7198    0.7149 N   0  0  0  0  0  0  0  0  0  0  0  0
    3.7270   -6.0845    0.7030 C   0  0  1  0  0  0  0  0  0  0  0  0
    5.1537   -6.2504    1.2284 C   0  0  0  0  0  0  0  0  0  0  0  0
    5.2029   -7.6654    1.8078 C   0  0  0  0  0  0  0  0  0  0  0  0
    3.7807   -8.2377    1.6752 C   0  0  0  0  0  0  0  0  0  0  0  0
    2.8508   -7.0252    1.5132 C   0  0  1  0  0  0  0  0  0  0  0  0
    0.2771   -9.2756    5.9039 H   0  0  0  0  0  0  0  0  0  0  0  0
   -1.9016   -9.0242    4.7480 H   0  0  0  0  0  0  0  0  0  0  0  0
   -2.1217   -7.6496    2.7178 H   0  0  0  0  0  0  0  0  0  0  0  0
    3.2352   -6.5194    3.5604 H   0  0  0  0  0  0  0  0  0  0  0  0
    0.5015   -4.4062    3.9792 H   0  0  0  0  0  0  0  0  0  0  0  0
    1.9089   -4.7464    4.9747 H   0  0  0  0  0  0  0  0  0  0  0  0
    1.2221   -2.4060    4.9303 H   0  0  0  0  0  0  0  0  0  0  0  0
    0.6284   -2.0972    2.6377 H   0  0  0  0  0  0  0  0  0  0  0  0
    1.9012   -1.0030    3.1285 H   0  0  0  0  0  0  0  0  0  0  0  0
    2.8531   -0.7818    1.1131 H   0  0  0  0  0  0  0  0  0  0  0  0
    5.2242   -3.8490   -0.0551 H   0  0  0  0  0  0  0  0  0  0  0  0
    6.2302   -2.9631   -2.4091 H   0  0  0  0  0  0  0  0  0  0  0  0
    5.2473   -0.3819   -2.6797 H   0  0  0  0  0  0  0  0  0  0  0  0
    3.7022   -6.4319   -0.3247 H   0  0  0  0  0  0  0  0  0  0  0  0
    5.8696   -6.1016    0.4229 H   0  0  0  0  0  0  0  0  0  0  0  0
    5.3762   -5.5079    1.9973 H   0  0  0  0  0  0  0  0  0  0  0  0
    5.9456   -8.2824    1.2997 H   0  0  0  0  0  0  0  0  0  0  0  0
    5.4936   -7.6043    2.8540 H   0  0  0  0  0  0  0  0  0  0  0  0
    3.7528   -8.8352    0.7627 H   0  0  0  0  0  0  0  0  0  0  0  0
    3.5134   -8.8986    2.5031 H   0  0  0  0  0  0  0  0  0  0  0  0
    1.9810   -7.2947    0.9130 H   0  0  0  0  0  0  0  0  0  0  0  0
    3.4873   -4.1269   -0.0946 H   0  0  0  0  0  0  0  0  0  0  0  0
  1  2  1  0
  2  8  2  0
  2  3  1  0
  3  4  2  0
  3 28  1  0
  4  5  1  0
  4 29  1  0
  5  6  2  0
  5 30  1  0
  6  7  1  0
  6  8  1  0
  8  9  1  0
  9 27  1  0
  9 10  1  0
  9 31  1  1
 10 21  2  0
 10 11  1  0
 11 12  1  0
 11 32  1  0
 11 33  1  0
 12 13  1  0
 12 34  1  0
 13 14  1  0
 13 35  1  0
 13 36  1  0
 14 15  2  3
 14 21  1  0
 15 16  1  0
 15 37  1  0
 16 20  1  0
 16 17  2  0
 17 18  1  0
 17 38  1  0
 18 19  2  0
 18 39  1  0
 19 20  1  0
 19 40  1  0
 21 22  1  0
 22 23  1  0
 22 49  1  0
 23 27  1  0
 23 24  1  0
 23 41  1  6
 24 25  1  0
 24 42  1  0
 24 43  1  0
 25 26  1  0
 25 44  1  0
 25 45  1  0
 26 27  1  0
 26 46  1  0
 26 47  1  0
 27 48  1  6
M  END
>  <i_m_ct_stereo_status>  (51) 
1

>  <s_m_source_file>  (51) 
/var/tmp/pbs.5076255.sched01/tmp44bw07az/09l6mph0o.sdf

>  <i_m_source_file_index>  (51) 
21

>  <i_lp_mmshare_version>  (51) 
48012

>  <i_f3d_flags>  (51) 
0

>  <s_epik_input>  (51) 
RmMxW2NIXVtjSF1bY0hdYyhGKWMxW0NASF0yW0NASF0oW0NIMl1bQ0gyXVtDSDJdMylbQ0BIXTNOPUMoW0NAQEhdMjQpQyhcW0NIMl1bTkhdW0NIMl00KT1bQ0hdXGM1W2NIXVtjSF1bY0hdbzU=

>  <s_epik_cmdline>  (51) 
J2VwaWtfcHl0aG9uJywgJy1waHQnLCAnMi4wJywgJy1waCcsICc3LjAnLCAnLXRuJywgJzgnLCAnLW1hJywgJzIwMCcsICctaW1hZScsICc8aW5maWxlLm1hZT4nLCAnLW9tYWUnLCAnPG91dGZpbGUubWFlPic=

>  <r_epik_Ionization_Penalty>  (51) 
0.299301

>  <r_epik_Ionization_Penalty_Charging>  (51) 
8.72981e-12

>  <r_epik_Ionization_Penalty_Neutral>  (51) 
0.299301

>  <r_epik_State_Penalty>  (51) 
0.292673

>  <r_epik_Charging_Adjusted_Penalty>  (51) 
0.292673

>  <i_epik_Tot_Q>  (51) 
0

>  <i_epik_Tot_abs_Q>  (51) 
0

>  <s_epik_Chemistry_Notes>  (51) 
This compound has an imine and may undergo hydrolysis.

>  <s_lp_Force_Field>  (51) 
OPLS3e

>  <r_lp_Energy>  (51) 
40.1869

>  <b_lp_Chiralities_Consistent>  (51) 
1

>  <s_lp_Variant>  (51) 
11:0-2

>  <s_i_glide_gridfile>  (51) 
pfpi4k_grid

>  <i_i_glide_lignum>  (51) 
21

>  <i_i_glide_rotatable_bonds>  (51) 
2

>  <r_i_docking_score>  (51) 
-2.74182

>  <r_i_glide_ligand_efficiency>  (51) 
-0.101549

>  <r_i_glide_ligand_efficiency_sa>  (51) 
-0.304647

>  <r_i_glide_ligand_efficiency_ln>  (51) 
-0.638251

>  <r_i_glide_gscore>  (51) 
-2.74182

>  <r_i_glide_lipo>  (51) 
-0.226994

>  <r_i_glide_hbond>  (51) 
0

>  <r_i_glide_metal>  (51) 
-0

>  <r_i_glide_rewards>  (51) 
-0.897139

>  <r_i_glide_evdw>  (51) 
-24.6177

>  <r_i_glide_ecoul>  (51) 
-2.77241

>  <r_i_glide_erotb>  (51) 
0.141967

>  <r_i_glide_esite>  (51) 
-0.112908

>  <r_i_glide_emodel>  (51) 
-30.7013

>  <r_i_glide_energy>  (51) 
-27.3901

>  <r_i_glide_einternal>  (51) 
0.328081

>  <r_i_glide_intrahb_reward>  (51) 
-0

>  <i_i_glide_confnum>  (51) 
1

>  <i_i_glide_posenum>  (51) 
37

>  <r_i_glide_eff_state_penalty>  (51) 
0

>  <ligand_id>  (51) 
11

>  <original_smiles>  (51) 
Fc1cccc(F)c1C1C2CNCC(=Cc3ccco3)C2=NC2CCCC21

>  <smiles>  (51) 
[H]C(=C1C2=C(C([H])([H])N([H])C1([H])[H])C([H])(c1c(F)c([H])c([H])c([H])c1F)C1([H])C([H])([H])C([H])([H])C([H])([H])C1([H])N2[H])c1oc([H])c([H])c1[H]

$$$$
11:2:0
     RDKit          3D

 50 54  0  0  1  0  0  0  0  0999 V2000
    6.4447   -6.2944    1.7862 F   0  0  0  0  0  0  0  0  0  0  0  0
    5.2206   -6.8738    1.7490 C   0  0  0  0  0  0  0  0  0  0  0  0
    5.1294   -8.2752    1.8261 C   0  0  0  0  0  0  0  0  0  0  0  0
    3.8726   -8.9014    1.7968 C   0  0  0  0  0  0  0  0  0  0  0  0
    2.7053   -8.1231    1.6826 C   0  0  0  0  0  0  0  0  0  0  0  0
    2.7942   -6.7229    1.5744 C   0  0  0  0  0  0  0  0  0  0  0  0
    1.6570   -6.0019    1.4120 F   0  0  0  0  0  0  0  0  0  0  0  0
    4.0545   -6.0791    1.6249 C   0  0  0  0  0  0  0  0  0  0  0  0
    4.1679   -4.5525    1.4967 C   0  0  2  0  0  0  0  0  0  0  0  0
    3.1675   -3.7399    2.3459 C   0  0  0  0  0  0  0  0  0  0  0  0
    2.9123   -4.2738    3.7563 C   0  0  0  0  0  0  0  0  0  0  0  0
    2.6216   -3.1461    4.6582 N   0  0  0  0  0  0  0  0  0  0  0  0
    1.4630   -2.3506    4.2221 C   0  0  0  0  0  0  0  0  0  0  0  0
    1.6565   -1.8556    2.7897 C   0  0  0  0  0  0  0  0  0  0  0  0
    1.0174   -0.7398    2.3518 C   0  0  0  0  0  0  0  0  0  0  0  0
    0.0895    0.1493    3.0057 C   0  0  0  0  0  0  0  0  0  0  0  0
   -0.4600    1.3517    2.6448 C   0  0  0  0  0  0  0  0  0  0  0  0
   -1.2806    1.7661    3.7380 C   0  0  0  0  0  0  0  0  0  0  0  0
   -1.1698    0.7864    4.6745 C   0  0  0  0  0  0  0  0  0  0  0  0
   -0.3680   -0.2143    4.2361 O   0  0  0  0  0  0  0  0  0  0  0  0
    2.5798   -2.5927    1.9091 C   0  0  0  0  0  0  0  0  0  0  0  0
    2.8973   -2.1039    0.6491 N   0  0  0  0  0  0  0  0  0  0  0  0
    3.9481   -2.6184   -0.1926 C   0  0  1  0  0  0  0  0  0  0  0  0
    5.2811   -1.9113    0.0493 C   0  0  0  0  0  0  0  0  0  0  0  0
    6.3570   -2.9452   -0.2955 C   0  0  0  0  0  0  0  0  0  0  0  0
    5.6045   -4.2436   -0.6230 C   0  0  0  0  0  0  0  0  0  0  0  0
    4.2128   -4.1127    0.0071 C   0  0  1  0  0  0  0  0  0  0  0  0
    6.0260   -8.8706    1.9087 H   0  0  0  0  0  0  0  0  0  0  0  0
    3.8031   -9.9766    1.8546 H   0  0  0  0  0  0  0  0  0  0  0  0
    1.7382   -8.6037    1.6484 H   0  0  0  0  0  0  0  0  0  0  0  0
    5.1189   -4.2702    1.9472 H   0  0  0  0  0  0  0  0  0  0  0  0
    2.0646   -4.9588    3.7581 H   0  0  0  0  0  0  0  0  0  0  0  0
    3.7844   -4.8084    4.1347 H   0  0  0  0  0  0  0  0  0  0  0  0
    2.4509   -3.4845    5.5923 H   0  0  0  0  0  0  0  0  0  0  0  0
    0.5408   -2.9334    4.2963 H   0  0  0  0  0  0  0  0  0  0  0  0
    1.4281   -1.5198    4.9230 H   0  0  0  0  0  0  0  0  0  0  0  0
    1.1820   -0.4453    1.3213 H   0  0  0  0  0  0  0  0  0  0  0  0
   -0.2895    1.8731    1.7093 H   0  0  0  0  0  0  0  0  0  0  0  0
   -1.8711    2.6666    3.8326 H   0  0  0  0  0  0  0  0  0  0  0  0
   -1.5736    0.6423    5.6684 H   0  0  0  0  0  0  0  0  0  0  0  0
    3.6542   -2.4681   -1.2285 H   0  0  0  0  0  0  0  0  0  0  0  0
    5.3555   -0.9989   -0.5413 H   0  0  0  0  0  0  0  0  0  0  0  0
    5.3707   -1.6313    1.1014 H   0  0  0  0  0  0  0  0  0  0  0  0
    6.9791   -2.6202   -1.1319 H   0  0  0  0  0  0  0  0  0  0  0  0
    7.0135   -3.0910    0.5655 H   0  0  0  0  0  0  0  0  0  0  0  0
    5.4957   -4.3111   -1.7040 H   0  0  0  0  0  0  0  0  0  0  0  0
    6.1559   -5.1287   -0.3114 H   0  0  0  0  0  0  0  0  0  0  0  0
    3.4781   -4.6897   -0.5551 H   0  0  0  0  0  0  0  0  0  0  0  0
    2.3279   -1.3651    0.2412 H   0  0  0  0  0  0  0  0  0  0  0  0
    3.4256   -2.5307    4.6559 H   0  0  0  0  0  0  0  0  0  0  0  0
  1  2  1  0
  2  8  2  0
  2  3  1  0
  3  4  2  0
  3 28  1  0
  4  5  1  0
  4 29  1  0
  5  6  2  0
  5 30  1  0
  6  7  1  0
  6  8  1  0
  8  9  1  0
  9 27  1  0
  9 10  1  0
  9 31  1  1
 10 21  2  0
 10 11  1  0
 11 12  1  0
 11 32  1  0
 11 33  1  0
 12 13  1  0
 12 34  1  0
 12 50  1  0
 13 14  1  0
 13 35  1  0
 13 36  1  0
 14 15  2  3
 14 21  1  0
 15 16  1  0
 15 37  1  0
 16 20  1  0
 16 17  2  0
 17 18  1  0
 17 38  1  0
 18 19  2  0
 18 39  1  0
 19 20  1  0
 19 40  1  0
 21 22  1  0
 22 23  1  0
 22 49  1  0
 23 27  1  0
 23 24  1  0
 23 41  1  6
 24 25  1  0
 24 42  1  0
 24 43  1  0
 25 26  1  0
 25 44  1  0
 25 45  1  0
 26 27  1  0
 26 46  1  0
 26 47  1  0
 27 48  1  6
M  CHG  1  12   1
M  END
>  <i_m_ct_stereo_status>  (52) 
1

>  <s_m_source_file>  (52) 
/var/tmp/pbs.5076255.sched01/tmp44bw07az/09l6mph0o.sdf

>  <i_m_source_file_index>  (52) 
22

>  <i_lp_mmshare_version>  (52) 
48012

>  <i_f3d_flags>  (52) 
0

>  <s_epik_input>  (52) 
RmMxW2NIXVtjSF1bY0hdYyhGKWMxW0NASF0yW0NASF0oW0NIMl1bQ0gyXVtDSDJdMylbQ0BIXTNOPUMoW0NAQEhdMjQpQyhcW0NIMl1bTkhdW0NIMl00KT1bQ0hdXGM1W2NIXVtjSF1bY0hdbzU=

>  <s_epik_cmdline>  (52) 
J2VwaWtfcHl0aG9uJywgJy1waHQnLCAnMi4wJywgJy1waCcsICc3LjAnLCAnLXRuJywgJzgnLCAnLW1hJywgJzIwMCcsICctaW1hZScsICc8aW5maWxlLm1hZT4nLCAnLW9tYWUnLCAnPG91dGZpbGUubWFlPic=

>  <r_epik_Ionization_Penalty>  (52) 
0.54806

>  <r_epik_Ionization_Penalty_Charging>  (52) 
0.548059

>  <r_epik_Ionization_Penalty_Neutral>  (52) 
5.73795e-07

>  <r_epik_State_Penalty>  (52) 
0.558188

>  <r_epik_Charging_Adjusted_Penalty>  (52) 
1.10625

>  <i_epik_Tot_Q>  (52) 
1

>  <i_epik_Tot_abs_Q>  (52) 
1

>  <s_epik_Chemistry_Notes>  (52) 
This compound has an imine and may undergo hydrolysis.

>  <s_lp_Force_Field>  (52) 
OPLS3e

>  <r_lp_Energy>  (52) 
41.6259

>  <b_lp_Chiralities_Consistent>  (52) 
1

>  <s_lp_Variant>  (52) 
11:0-3

>  <s_i_glide_gridfile>  (52) 
pfpi4k_grid

>  <i_i_glide_lignum>  (52) 
22

>  <i_i_glide_rotatable_bonds>  (52) 
2

>  <r_i_docking_score>  (52) 
-3.23205

>  <r_i_glide_ligand_efficiency>  (52) 
-0.119705

>  <r_i_glide_ligand_efficiency_sa>  (52) 
-0.359116

>  <r_i_glide_ligand_efficiency_ln>  (52) 
-0.752367

>  <r_i_glide_gscore>  (52) 
-3.23205

>  <r_i_glide_lipo>  (52) 
-0.266308

>  <r_i_glide_hbond>  (52) 
-0.14222

>  <r_i_glide_metal>  (52) 
-0

>  <r_i_glide_rewards>  (52) 
-0.97951

>  <r_i_glide_evdw>  (52) 
-23.3278

>  <r_i_glide_ecoul>  (52) 
-4.65457

>  <r_i_glide_erotb>  (52) 
0.141276

>  <r_i_glide_esite>  (52) 
-0.120707

>  <r_i_glide_emodel>  (52) 
-34.1622

>  <r_i_glide_energy>  (52) 
-27.9824

>  <r_i_glide_einternal>  (52) 
0.590077

>  <r_i_glide_intrahb_reward>  (52) 
-0

>  <i_i_glide_confnum>  (52) 
3

>  <i_i_glide_posenum>  (52) 
28

>  <r_i_glide_eff_state_penalty>  (52) 
0

>  <ligand_id>  (52) 
11

>  <original_smiles>  (52) 
Fc1cccc(F)c1C1C2CNCC(=Cc3ccco3)C2=NC2CCCC21

>  <smiles>  (52) 
[H]C(=C1C2=C(C([H])(c3c(F)c([H])c([H])c([H])c3F)C3([H])C([H])([H])C([H])([H])C([H])([H])C3([H])N2[H])C([H])([H])[N+]([H])([H])C1([H])[H])c1oc([H])c([H])c1[H]

$$$$
11:2:1
     RDKit          3D

 50 54  0  0  1  0  0  0  0  0999 V2000
    2.2256   -4.0375    2.2360 F   0  0  0  0  0  0  0  0  0  0  0  0
    3.0142   -3.4736    1.2904 C   0  0  0  0  0  0  0  0  0  0  0  0
    3.2154   -4.1531    0.0743 C   0  0  0  0  0  0  0  0  0  0  0  0
    4.0415   -3.5932   -0.9157 C   0  0  0  0  0  0  0  0  0  0  0  0
    4.6705   -2.3565   -0.6883 C   0  0  0  0  0  0  0  0  0  0  0  0
    4.4695   -1.6744    0.5262 C   0  0  0  0  0  0  0  0  0  0  0  0
    5.1041   -0.4975    0.7403 F   0  0  0  0  0  0  0  0  0  0  0  0
    3.6342   -2.2234    1.5262 C   0  0  0  0  0  0  0  0  0  0  0  0
    3.4474   -1.4995    2.8659 C   0  0  2  0  0  0  0  0  0  0  0  0
    2.9271   -0.0533    2.7654 C   0  0  0  0  0  0  0  0  0  0  0  0
    1.8355    0.1831    1.7246 C   0  0  0  0  0  0  0  0  0  0  0  0
    0.9250    1.2472    2.1848 N   0  0  0  0  0  0  0  0  0  0  0  0
    1.6179    2.5085    2.4803 C   0  0  0  0  0  0  0  0  0  0  0  0
    2.7716    2.2922    3.4482 C   0  0  0  0  0  0  0  0  0  0  0  0
    3.2197    3.3241    4.2021 C   0  0  0  0  0  0  0  0  0  0  0  0
    2.8259    4.7074    4.2438 C   0  0  0  0  0  0  0  0  0  0  0  0
    1.9899    5.4974    3.4945 C   0  0  0  0  0  0  0  0  0  0  0  0
    1.9939    6.7825    4.0929 C   0  0  0  0  0  0  0  0  0  0  0  0
    2.8473    6.7042    5.1526 C   0  0  0  0  0  0  0  0  0  0  0  0
    3.3582    5.4467    5.2629 O   0  0  0  0  0  0  0  0  0  0  0  0
    3.3544    0.9464    3.5791 C   0  0  0  0  0  0  0  0  0  0  0  0
    4.3069    0.6760    4.5553 N   0  0  0  0  0  0  0  0  0  0  0  0
    4.7344   -0.6540    4.9274 C   0  0  1  0  0  0  0  0  0  0  0  0
    3.8727   -1.2700    6.0292 C   0  0  0  0  0  0  0  0  0  0  0  0
    3.9521   -2.7863    5.8052 C   0  0  0  0  0  0  0  0  0  0  0  0
    4.7571   -2.9897    4.5118 C   0  0  0  0  0  0  0  0  0  0  0  0
    4.7054   -1.6478    3.7659 C   0  0  1  0  0  0  0  0  0  0  0  0
    2.7375   -5.1049   -0.1052 H   0  0  0  0  0  0  0  0  0  0  0  0
    4.1891   -4.1177   -1.8477 H   0  0  0  0  0  0  0  0  0  0  0  0
    5.3099   -1.9316   -1.4453 H   0  0  0  0  0  0  0  0  0  0  0  0
    2.6234   -1.9894    3.3847 H   0  0  0  0  0  0  0  0  0  0  0  0
    2.2783    0.4731    0.7739 H   0  0  0  0  0  0  0  0  0  0  0  0
    1.2488   -0.7215    1.5627 H   0  0  0  0  0  0  0  0  0  0  0  0
    0.2206    1.4332    1.4843 H   0  0  0  0  0  0  0  0  0  0  0  0
    1.9899    2.9578    1.5606 H   0  0  0  0  0  0  0  0  0  0  0  0
    0.8629    3.1563    2.9158 H   0  0  0  0  0  0  0  0  0  0  0  0
    4.0386    3.1259    4.8744 H   0  0  0  0  0  0  0  0  0  0  0  0
    1.4323    5.2042    2.6177 H   0  0  0  0  0  0  0  0  0  0  0  0
    1.4389    7.6519    3.7736 H   0  0  0  0  0  0  0  0  0  0  0  0
    3.1800    7.4219    5.8909 H   0  0  0  0  0  0  0  0  0  0  0  0
    5.7589   -0.5863    5.2846 H   0  0  0  0  0  0  0  0  0  0  0  0
    4.2204   -0.9718    7.0189 H   0  0  0  0  0  0  0  0  0  0  0  0
    2.8349   -0.9433    5.9348 H   0  0  0  0  0  0  0  0  0  0  0  0
    4.4160   -3.2928    6.6541 H   0  0  0  0  0  0  0  0  0  0  0  0
    2.9457   -3.1935    5.6937 H   0  0  0  0  0  0  0  0  0  0  0  0
    5.7885   -3.2039    4.7855 H   0  0  0  0  0  0  0  0  0  0  0  0
    4.4019   -3.8371    3.9254 H   0  0  0  0  0  0  0  0  0  0  0  0
    5.5979   -1.5083    3.1559 H   0  0  0  0  0  0  0  0  0  0  0  0
    4.6416    1.4338    5.1338 H   0  0  0  0  0  0  0  0  0  0  0  0
    0.4944    0.9420    3.0469 H   0  0  0  0  0  0  0  0  0  0  0  0
  1  2  1  0
  2  8  2  0
  2  3  1  0
  3  4  2  0
  3 28  1  0
  4  5  1  0
  4 29  1  0
  5  6  2  0
  5 30  1  0
  6  7  1  0
  6  8  1  0
  8  9  1  0
  9 27  1  0
  9 10  1  0
  9 31  1  1
 10 21  2  0
 10 11  1  0
 11 12  1  0
 11 32  1  0
 11 33  1  0
 12 13  1  0
 12 34  1  0
 12 50  1  0
 13 14  1  0
 13 35  1  0
 13 36  1  0
 14 15  2  3
 14 21  1  0
 15 16  1  0
 15 37  1  0
 16 20  1  0
 16 17  2  0
 17 18  1  0
 17 38  1  0
 18 19  2  0
 18 39  1  0
 19 20  1  0
 19 40  1  0
 21 22  1  0
 22 23  1  0
 22 49  1  0
 23 27  1  0
 23 24  1  0
 23 41  1  1
 24 25  1  0
 24 42  1  0
 24 43  1  0
 25 26  1  0
 25 44  1  0
 25 45  1  0
 26 27  1  0
 26 46  1  0
 26 47  1  0
 27 48  1  6
M  CHG  1  12   1
M  END
>  <i_m_ct_stereo_status>  (53) 
1

>  <s_m_source_file>  (53) 
/var/tmp/pbs.5076255.sched01/tmp44bw07az/09l6mph0o.sdf

>  <i_m_source_file_index>  (53) 
22

>  <i_lp_mmshare_version>  (53) 
48012

>  <i_f3d_flags>  (53) 
0

>  <s_epik_input>  (53) 
RmMxW2NIXVtjSF1bY0hdYyhGKWMxW0NASF0yW0NASF0oW0NIMl1bQ0gyXVtDSDJdMylbQ0BIXTNOPUMoW0NAQEhdMjQpQyhcW0NIMl1bTkhdW0NIMl00KT1bQ0hdXGM1W2NIXVtjSF1bY0hdbzU=

>  <s_epik_cmdline>  (53) 
J2VwaWtfcHl0aG9uJywgJy1waHQnLCAnMi4wJywgJy1waCcsICc3LjAnLCAnLXRuJywgJzgnLCAnLW1hJywgJzIwMCcsICctaW1hZScsICc8aW5maWxlLm1hZT4nLCAnLW9tYWUnLCAnPG91dGZpbGUubWFlPic=

>  <r_epik_Ionization_Penalty>  (53) 
0.54806

>  <r_epik_Ionization_Penalty_Charging>  (53) 
0.548059

>  <r_epik_Ionization_Penalty_Neutral>  (53) 
5.73795e-07

>  <r_epik_State_Penalty>  (53) 
0.558188

>  <r_epik_Charging_Adjusted_Penalty>  (53) 
1.10625

>  <i_epik_Tot_Q>  (53) 
1

>  <i_epik_Tot_abs_Q>  (53) 
1

>  <s_epik_Chemistry_Notes>  (53) 
This compound has an imine and may undergo hydrolysis.

>  <s_lp_Force_Field>  (53) 
OPLS3e

>  <r_lp_Energy>  (53) 
41.6259

>  <b_lp_Chiralities_Consistent>  (53) 
1

>  <s_lp_Variant>  (53) 
11:0-3

>  <s_i_glide_gridfile>  (53) 
pfpi4k_grid

>  <i_i_glide_lignum>  (53) 
22

>  <i_i_glide_rotatable_bonds>  (53) 
2

>  <r_i_docking_score>  (53) 
-2.87396

>  <r_i_glide_ligand_efficiency>  (53) 
-0.106443

>  <r_i_glide_ligand_efficiency_sa>  (53) 
-0.319329

>  <r_i_glide_ligand_efficiency_ln>  (53) 
-0.669011

>  <r_i_glide_gscore>  (53) 
-2.87396

>  <r_i_glide_lipo>  (53) 
-0.100558

>  <r_i_glide_hbond>  (53) 
0

>  <r_i_glide_metal>  (53) 
-0

>  <r_i_glide_rewards>  (53) 
-1.12

>  <r_i_glide_evdw>  (53) 
-21.3402

>  <r_i_glide_ecoul>  (53) 
-4.42529

>  <r_i_glide_erotb>  (53) 
0.141276

>  <r_i_glide_esite>  (53) 
-0.0638757

>  <r_i_glide_emodel>  (53) 
-31.7937

>  <r_i_glide_energy>  (53) 
-25.7655

>  <r_i_glide_einternal>  (53) 
0.107905

>  <r_i_glide_intrahb_reward>  (53) 
-0

>  <i_i_glide_confnum>  (53) 
2

>  <i_i_glide_posenum>  (53) 
32

>  <r_i_glide_eff_state_penalty>  (53) 
0

>  <ligand_id>  (53) 
11

>  <original_smiles>  (53) 
Fc1cccc(F)c1C1C2CNCC(=Cc3ccco3)C2=NC2CCCC21

>  <smiles>  (53) 
[H]C(=C1C2=C(C([H])(c3c(F)c([H])c([H])c([H])c3F)C3([H])C([H])([H])C([H])([H])C([H])([H])C3([H])N2[H])C([H])([H])[N+]([H])([H])C1([H])[H])c1oc([H])c([H])c1[H]

$$$$
11:2:2
     RDKit          3D

 50 54  0  0  1  0  0  0  0  0999 V2000
    5.6119   -1.4168   -0.1643 F   0  0  0  0  0  0  0  0  0  0  0  0
    4.6597   -1.9062   -0.9928 C   0  0  0  0  0  0  0  0  0  0  0  0
    4.6136   -1.4521   -2.3230 C   0  0  0  0  0  0  0  0  0  0  0  0
    3.6371   -1.9428   -3.2083 C   0  0  0  0  0  0  0  0  0  0  0  0
    2.6943   -2.8822   -2.7550 C   0  0  0  0  0  0  0  0  0  0  0  0
    2.7323   -3.3298   -1.4203 C   0  0  0  0  0  0  0  0  0  0  0  0
    1.8076   -4.2189   -0.9903 F   0  0  0  0  0  0  0  0  0  0  0  0
    3.7189   -2.8531   -0.5270 C   0  0  0  0  0  0  0  0  0  0  0  0
    3.7348   -3.3177    0.9357 C   0  0  2  0  0  0  0  0  0  0  0  0
    3.6958   -4.8451    1.1414 C   0  0  0  0  0  0  0  0  0  0  0  0
    4.5617   -5.6585    0.1814 C   0  0  0  0  0  0  0  0  0  0  0  0
    5.0588   -6.8600    0.8759 N   0  0  0  0  0  0  0  0  0  0  0  0
    3.9822   -7.7126    1.3957 C   0  0  0  0  0  0  0  0  0  0  0  0
    3.0494   -6.9116    2.2940 C   0  0  0  0  0  0  0  0  0  0  0  0
    2.3225   -7.5458    3.2467 C   0  0  0  0  0  0  0  0  0  0  0  0
    2.2131   -8.9419    3.5883 C   0  0  0  0  0  0  0  0  0  0  0  0
    2.7155  -10.1100    3.0679 C   0  0  0  0  0  0  0  0  0  0  0  0
    2.2563  -11.1616    3.8991 C   0  0  0  0  0  0  0  0  0  0  0  0
    1.4813  -10.5796    4.8564 C   0  0  0  0  0  0  0  0  0  0  0  0
    1.4489   -9.2273    4.6872 O   0  0  0  0  0  0  0  0  0  0  0  0
    2.9926   -5.4458    2.1383 C   0  0  0  0  0  0  0  0  0  0  0  0
    2.2647   -4.6643    3.0293 N   0  0  0  0  0  0  0  0  0  0  0  0
    2.3769   -3.2241    3.1213 C   0  0  1  0  0  0  0  0  0  0  0  0
    3.4802   -2.7609    4.0753 C   0  0  0  0  0  0  0  0  0  0  0  0
    3.9280   -1.3919    3.5406 C   0  0  0  0  0  0  0  0  0  0  0  0
    3.1553   -1.1658    2.2317 C   0  0  0  0  0  0  0  0  0  0  0  0
    2.6803   -2.5522    1.7809 C   0  0  1  0  0  0  0  0  0  0  0  0
    5.3303   -0.7223   -2.6604 H   0  0  0  0  0  0  0  0  0  0  0  0
    3.6091   -1.5949   -4.2288 H   0  0  0  0  0  0  0  0  0  0  0  0
    1.9344   -3.2557   -3.4243 H   0  0  0  0  0  0  0  0  0  0  0  0
    4.7163   -3.0679    1.3390 H   0  0  0  0  0  0  0  0  0  0  0  0
    3.9826   -5.9635   -0.6889 H   0  0  0  0  0  0  0  0  0  0  0  0
    5.4169   -5.0828   -0.1741 H   0  0  0  0  0  0  0  0  0  0  0  0
    5.6137   -7.4162    0.2458 H   0  0  0  0  0  0  0  0  0  0  0  0
    3.4183   -8.1694    0.5854 H   0  0  0  0  0  0  0  0  0  0  0  0
    4.5018   -8.4800    1.9620 H   0  0  0  0  0  0  0  0  0  0  0  0
    1.6863   -6.9366    3.8684 H   0  0  0  0  0  0  0  0  0  0  0  0
    3.3429  -10.2257    2.1981 H   0  0  0  0  0  0  0  0  0  0  0  0
    2.4689  -12.2145    3.7958 H   0  0  0  0  0  0  0  0  0  0  0  0
    0.9148  -10.9804    5.6880 H   0  0  0  0  0  0  0  0  0  0  0  0
    1.4251   -2.8420    3.4825 H   0  0  0  0  0  0  0  0  0  0  0  0
    3.1226   -2.7111    5.1044 H   0  0  0  0  0  0  0  0  0  0  0  0
    4.3260   -3.4520    4.0561 H   0  0  0  0  0  0  0  0  0  0  0  0
    3.7365   -0.5952    4.2622 H   0  0  0  0  0  0  0  0  0  0  0  0
    5.0024   -1.4055    3.3480 H   0  0  0  0  0  0  0  0  0  0  0  0
    2.2853   -0.5479    2.4460 H   0  0  0  0  0  0  0  0  0  0  0  0
    3.7395   -0.6332    1.4823 H   0  0  0  0  0  0  0  0  0  0  0  0
    1.7653   -2.4671    1.1998 H   0  0  0  0  0  0  0  0  0  0  0  0
    1.7562   -5.1216    3.7739 H   0  0  0  0  0  0  0  0  0  0  0  0
    5.6216   -6.5657    1.6646 H   0  0  0  0  0  0  0  0  0  0  0  0
  1  2  1  0
  2  8  2  0
  2  3  1  0
  3  4  2  0
  3 28  1  0
  4  5  1  0
  4 29  1  0
  5  6  2  0
  5 30  1  0
  6  7  1  0
  6  8  1  0
  8  9  1  0
  9 27  1  0
  9 10  1  0
  9 31  1  1
 10 21  2  0
 10 11  1  0
 11 12  1  0
 11 32  1  0
 11 33  1  0
 12 13  1  0
 12 34  1  0
 12 50  1  0
 13 14  1  0
 13 35  1  0
 13 36  1  0
 14 15  2  3
 14 21  1  0
 15 16  1  0
 15 37  1  0
 16 20  1  0
 16 17  2  0
 17 18  1  0
 17 38  1  0
 18 19  2  0
 18 39  1  0
 19 20  1  0
 19 40  1  0
 21 22  1  0
 22 23  1  0
 22 49  1  0
 23 27  1  0
 23 24  1  0
 23 41  1  1
 24 25  1  0
 24 42  1  0
 24 43  1  0
 25 26  1  0
 25 44  1  0
 25 45  1  0
 26 27  1  0
 26 46  1  0
 26 47  1  0
 27 48  1  6
M  CHG  1  12   1
M  END
>  <i_m_ct_stereo_status>  (54) 
1

>  <s_m_source_file>  (54) 
/var/tmp/pbs.5076255.sched01/tmp44bw07az/09l6mph0o.sdf

>  <i_m_source_file_index>  (54) 
22

>  <i_lp_mmshare_version>  (54) 
48012

>  <i_f3d_flags>  (54) 
0

>  <s_epik_input>  (54) 
RmMxW2NIXVtjSF1bY0hdYyhGKWMxW0NASF0yW0NASF0oW0NIMl1bQ0gyXVtDSDJdMylbQ0BIXTNOPUMoW0NAQEhdMjQpQyhcW0NIMl1bTkhdW0NIMl00KT1bQ0hdXGM1W2NIXVtjSF1bY0hdbzU=

>  <s_epik_cmdline>  (54) 
J2VwaWtfcHl0aG9uJywgJy1waHQnLCAnMi4wJywgJy1waCcsICc3LjAnLCAnLXRuJywgJzgnLCAnLW1hJywgJzIwMCcsICctaW1hZScsICc8aW5maWxlLm1hZT4nLCAnLW9tYWUnLCAnPG91dGZpbGUubWFlPic=

>  <r_epik_Ionization_Penalty>  (54) 
0.54806

>  <r_epik_Ionization_Penalty_Charging>  (54) 
0.548059

>  <r_epik_Ionization_Penalty_Neutral>  (54) 
5.73795e-07

>  <r_epik_State_Penalty>  (54) 
0.558188

>  <r_epik_Charging_Adjusted_Penalty>  (54) 
1.10625

>  <i_epik_Tot_Q>  (54) 
1

>  <i_epik_Tot_abs_Q>  (54) 
1

>  <s_epik_Chemistry_Notes>  (54) 
This compound has an imine and may undergo hydrolysis.

>  <s_lp_Force_Field>  (54) 
OPLS3e

>  <r_lp_Energy>  (54) 
41.6259

>  <b_lp_Chiralities_Consistent>  (54) 
1

>  <s_lp_Variant>  (54) 
11:0-3

>  <s_i_glide_gridfile>  (54) 
pfpi4k_grid

>  <i_i_glide_lignum>  (54) 
22

>  <i_i_glide_rotatable_bonds>  (54) 
2

>  <r_i_docking_score>  (54) 
-2.77718

>  <r_i_glide_ligand_efficiency>  (54) 
-0.102859

>  <r_i_glide_ligand_efficiency_sa>  (54) 
-0.308576

>  <r_i_glide_ligand_efficiency_ln>  (54) 
-0.646482

>  <r_i_glide_gscore>  (54) 
-2.77718

>  <r_i_glide_lipo>  (54) 
-0.2998

>  <r_i_glide_hbond>  (54) 
0

>  <r_i_glide_metal>  (54) 
-0

>  <r_i_glide_rewards>  (54) 
-0.890266

>  <r_i_glide_evdw>  (54) 
-25.2586

>  <r_i_glide_ecoul>  (54) 
-2.54916

>  <r_i_glide_erotb>  (54) 
0.141276

>  <r_i_glide_esite>  (54) 
-0.0830849

>  <r_i_glide_emodel>  (54) 
-33.5534

>  <r_i_glide_energy>  (54) 
-27.8078

>  <r_i_glide_einternal>  (54) 
0.0812949

>  <r_i_glide_intrahb_reward>  (54) 
-0

>  <i_i_glide_confnum>  (54) 
2

>  <i_i_glide_posenum>  (54) 
34

>  <r_i_glide_eff_state_penalty>  (54) 
0

>  <ligand_id>  (54) 
11

>  <original_smiles>  (54) 
Fc1cccc(F)c1C1C2CNCC(=Cc3ccco3)C2=NC2CCCC21

>  <smiles>  (54) 
[H]C(=C1C2=C(C([H])(c3c(F)c([H])c([H])c([H])c3F)C3([H])C([H])([H])C([H])([H])C([H])([H])C3([H])N2[H])C([H])([H])[N+]([H])([H])C1([H])[H])c1oc([H])c([H])c1[H]

$$$$
11:3:0
     RDKit          3D

 50 54  0  0  1  0  0  0  0  0999 V2000
    1.0266   -6.0022    0.3157 F   0  0  0  0  0  0  0  0  0  0  0  0
    0.9702   -6.6482    1.5050 C   0  0  0  0  0  0  0  0  0  0  0  0
   -0.1843   -7.3911    1.8113 C   0  0  0  0  0  0  0  0  0  0  0  0
   -0.3084   -8.0313    3.0564 C   0  0  0  0  0  0  0  0  0  0  0  0
    0.7411   -7.9431    3.9923 C   0  0  0  0  0  0  0  0  0  0  0  0
    1.9067   -7.2106    3.6849 C   0  0  0  0  0  0  0  0  0  0  0  0
    2.9070   -7.1430    4.5993 F   0  0  0  0  0  0  0  0  0  0  0  0
    2.0271   -6.5446    2.4399 C   0  0  0  0  0  0  0  0  0  0  0  0
    3.2978   -5.7532    2.1075 C   0  0  2  0  0  0  0  0  0  0  0  0
    3.0763   -4.2311    1.9641 C   0  0  0  0  0  0  0  0  0  0  0  0
    2.1941   -3.5573    3.0258 C   0  0  0  0  0  0  0  0  0  0  0  0
    1.8796   -2.1509    2.6984 N   0  0  0  0  0  0  0  0  0  0  0  0
    3.0355   -1.3850    2.2114 C   0  0  0  0  0  0  0  0  0  0  0  0
    3.5380   -2.0638    0.9443 C   0  0  0  0  0  0  0  0  0  0  0  0
    3.7590   -1.3099   -0.1666 C   0  0  0  0  0  0  0  0  0  0  0  0
    4.0928   -1.5643   -1.5617 C   0  0  0  0  0  0  0  0  0  0  0  0
    4.1637   -0.7574   -2.6597 C   0  0  0  0  0  0  0  0  0  0  0  0
    4.4901   -1.6002   -3.7711 C   0  0  0  0  0  0  0  0  0  0  0  0
    4.6056   -2.8489   -3.2688 C   0  0  0  0  0  0  0  0  0  0  0  0
    4.3506   -2.8432   -1.9428 O   0  0  0  0  0  0  0  0  0  0  0  0
    3.7426   -3.5073    1.0288 C   0  0  0  0  0  0  0  0  0  0  0  0
    4.7319   -4.1087    0.2844 N   0  0  0  0  0  0  0  0  0  0  0  0
    5.1190   -5.4911    0.3264 C   0  0  1  0  0  0  0  0  0  0  0  0
    6.3658   -5.6723    1.1690 C   0  0  0  0  0  0  0  0  0  0  0  0
    6.2542   -7.0871    1.7380 C   0  0  0  0  0  0  0  0  0  0  0  0
    4.8820   -7.6289    1.2944 C   0  0  0  0  0  0  0  0  0  0  0  0
    4.0525   -6.4020    0.9090 C   0  0  1  0  0  0  0  0  0  0  0  0
   -0.9618   -7.4751    1.0738 H   0  0  0  0  0  0  0  0  0  0  0  0
   -1.1994   -8.5964    3.2934 H   0  0  0  0  0  0  0  0  0  0  0  0
    0.6575   -8.4513    4.9455 H   0  0  0  0  0  0  0  0  0  0  0  0
    3.9718   -5.8194    2.9626 H   0  0  0  0  0  0  0  0  0  0  0  0
    1.2713   -4.1066    3.1874 H   0  0  0  0  0  0  0  0  0  0  0  0
    2.7501   -3.5866    3.9610 H   0  0  0  0  0  0  0  0  0  0  0  0
    1.2056   -2.1434    1.9515 H   0  0  0  0  0  0  0  0  0  0  0  0
    2.7503   -0.3487    2.0336 H   0  0  0  0  0  0  0  0  0  0  0  0
    3.8243   -1.3797    2.9613 H   0  0  0  0  0  0  0  0  0  0  0  0
    3.6057   -0.2598    0.0007 H   0  0  0  0  0  0  0  0  0  0  0  0
    3.9650    0.3010   -2.6960 H   0  0  0  0  0  0  0  0  0  0  0  0
    4.6144   -1.3205   -4.8015 H   0  0  0  0  0  0  0  0  0  0  0  0
    4.8322   -3.8351   -3.6647 H   0  0  0  0  0  0  0  0  0  0  0  0
    5.3231   -5.8137   -0.6894 H   0  0  0  0  0  0  0  0  0  0  0  0
    7.2700   -5.5086    0.5825 H   0  0  0  0  0  0  0  0  0  0  0  0
    6.3660   -4.9466    1.9851 H   0  0  0  0  0  0  0  0  0  0  0  0
    7.0781   -7.7169    1.3911 H   0  0  0  0  0  0  0  0  0  0  0  0
    6.3044   -7.0380    2.8285 H   0  0  0  0  0  0  0  0  0  0  0  0
    5.0224   -8.2482    0.4098 H   0  0  0  0  0  0  0  0  0  0  0  0
    4.4085   -8.2556    2.0497 H   0  0  0  0  0  0  0  0  0  0  0  0
    3.3607   -6.6473    0.1095 H   0  0  0  0  0  0  0  0  0  0  0  0
    5.0656   -3.5790   -0.5079 H   0  0  0  0  0  0  0  0  0  0  0  0
    1.4960   -1.6966    3.5059 H   0  0  0  0  0  0  0  0  0  0  0  0
  1  2  1  0
  2  8  2  0
  2  3  1  0
  3  4  2  0
  3 28  1  0
  4  5  1  0
  4 29  1  0
  5  6  2  0
  5 30  1  0
  6  7  1  0
  6  8  1  0
  8  9  1  0
  9 27  1  0
  9 10  1  0
  9 31  1  1
 10 21  2  0
 10 11  1  0
 11 12  1  0
 11 32  1  0
 11 33  1  0
 12 13  1  0
 12 34  1  0
 12 50  1  0
 13 14  1  0
 13 35  1  0
 13 36  1  0
 14 15  2  3
 14 21  1  0
 15 16  1  0
 15 37  1  0
 16 20  1  0
 16 17  2  0
 17 18  1  0
 17 38  1  0
 18 19  2  0
 18 39  1  0
 19 20  1  0
 19 40  1  0
 21 22  1  0
 22 23  1  0
 22 49  1  0
 23 27  1  0
 23 24  1  0
 23 41  1  6
 24 25  1  0
 24 42  1  0
 24 43  1  0
 25 26  1  0
 25 44  1  0
 25 45  1  0
 26 27  1  0
 26 46  1  0
 26 47  1  0
 27 48  1  6
M  CHG  1  12   1
M  END
>  <i_m_ct_stereo_status>  (55) 
1

>  <s_m_source_file>  (55) 
/var/tmp/pbs.5076255.sched01/tmp44bw07az/09l6mph0o.sdf

>  <i_m_source_file_index>  (55) 
23

>  <i_lp_mmshare_version>  (55) 
48012

>  <i_f3d_flags>  (55) 
0

>  <s_epik_input>  (55) 
RmMxW2NIXVtjSF1bY0hdYyhGKWMxW0NASF0yW0NASF0oW0NIMl1bQ0gyXVtDSDJdMylbQ0BIXTNOPUMoW0NAQEhdMjQpQyhcW0NIMl1bTkhdW0NIMl00KT1bQ0hdXGM1W2NIXVtjSF1bY0hdbzU=

>  <s_epik_cmdline>  (55) 
J2VwaWtfcHl0aG9uJywgJy1waHQnLCAnMi4wJywgJy1waCcsICc3LjAnLCAnLXRuJywgJzgnLCAnLW1hJywgJzIwMCcsICctaW1hZScsICc8aW5maWxlLm1hZT4nLCAnLW9tYWUnLCAnPG91dGZpbGUubWFlPic=

>  <r_epik_Ionization_Penalty>  (55) 
0.54806

>  <r_epik_Ionization_Penalty_Charging>  (55) 
0.548059

>  <r_epik_Ionization_Penalty_Neutral>  (55) 
5.73795e-07

>  <r_epik_State_Penalty>  (55) 
0.558188

>  <r_epik_Charging_Adjusted_Penalty>  (55) 
1.10625

>  <i_epik_Tot_Q>  (55) 
1

>  <i_epik_Tot_abs_Q>  (55) 
1

>  <s_epik_Chemistry_Notes>  (55) 
This compound has an imine and may undergo hydrolysis.

>  <s_lp_Force_Field>  (55) 
OPLS3e

>  <r_lp_Energy>  (55) 
44.1773

>  <b_lp_Chiralities_Consistent>  (55) 
1

>  <s_lp_Variant>  (55) 
11:0-4

>  <s_i_glide_gridfile>  (55) 
pfpi4k_grid

>  <i_i_glide_lignum>  (55) 
23

>  <i_i_glide_rotatable_bonds>  (55) 
2

>  <r_i_docking_score>  (55) 
-4.21105

>  <r_i_glide_ligand_efficiency>  (55) 
-0.155965

>  <r_i_glide_ligand_efficiency_sa>  (55) 
-0.467894

>  <r_i_glide_ligand_efficiency_ln>  (55) 
-0.980262

>  <r_i_glide_gscore>  (55) 
-4.21105

>  <r_i_glide_lipo>  (55) 
-0.744434

>  <r_i_glide_hbond>  (55) 
0

>  <r_i_glide_metal>  (55) 
-0

>  <r_i_glide_rewards>  (55) 
-1.39027

>  <r_i_glide_evdw>  (55) 
-28.9784

>  <r_i_glide_ecoul>  (55) 
-4.40034

>  <r_i_glide_erotb>  (55) 
0.141276

>  <r_i_glide_esite>  (55) 
-0.10865

>  <r_i_glide_emodel>  (55) 
-45.2168

>  <r_i_glide_energy>  (55) 
-33.3788

>  <r_i_glide_einternal>  (55) 
0.290441

>  <r_i_glide_intrahb_reward>  (55) 
-0.5

>  <i_i_glide_confnum>  (55) 
3

>  <i_i_glide_posenum>  (55) 
15

>  <r_i_glide_eff_state_penalty>  (55) 
0

>  <ligand_id>  (55) 
11

>  <original_smiles>  (55) 
Fc1cccc(F)c1C1C2CNCC(=Cc3ccco3)C2=NC2CCCC21

>  <smiles>  (55) 
[H]C(=C1C2=C(C([H])(c3c(F)c([H])c([H])c([H])c3F)C3([H])C([H])([H])C([H])([H])C([H])([H])C3([H])N2[H])C([H])([H])[N+]([H])([H])C1([H])[H])c1oc([H])c([H])c1[H]

$$$$
11:3:1
     RDKit          3D

 50 54  0  0  1  0  0  0  0  0999 V2000
    6.1985   -3.2584    2.0267 F   0  0  0  0  0  0  0  0  0  0  0  0
    5.4216   -3.2693    0.9202 C   0  0  0  0  0  0  0  0  0  0  0  0
    5.8161   -2.5222   -0.2067 C   0  0  0  0  0  0  0  0  0  0  0  0
    5.0139   -2.5119   -1.3640 C   0  0  0  0  0  0  0  0  0  0  0  0
    3.8104   -3.2421   -1.3880 C   0  0  0  0  0  0  0  0  0  0  0  0
    3.4133   -3.9933   -0.2643 C   0  0  0  0  0  0  0  0  0  0  0  0
    2.2468   -4.6823   -0.3049 F   0  0  0  0  0  0  0  0  0  0  0  0
    4.2214   -4.0159    0.8997 C   0  0  0  0  0  0  0  0  0  0  0  0
    3.7856   -4.8010    2.1404 C   0  0  2  0  0  0  0  0  0  0  0  0
    3.7417   -6.3327    1.9399 C   0  0  0  0  0  0  0  0  0  0  0  0
    4.9386   -6.9647    1.2069 C   0  0  0  0  0  0  0  0  0  0  0  0
    4.7218   -8.3978    0.8918 N   0  0  0  0  0  0  0  0  0  0  0  0
    4.1367   -9.1723    2.0000 C   0  0  0  0  0  0  0  0  0  0  0  0
    2.7844   -8.5545    2.3289 C   0  0  0  0  0  0  0  0  0  0  0  0
    1.6945   -9.3586    2.4178 C   0  0  0  0  0  0  0  0  0  0  0  0
    0.2796   -9.1692    2.6322 C   0  0  0  0  0  0  0  0  0  0  0  0
   -0.7944   -9.9083    2.2212 C   0  0  0  0  0  0  0  0  0  0  0  0
   -1.9566   -9.1734    2.5702 C   0  0  0  0  0  0  0  0  0  0  0  0
   -1.5183   -8.0436    3.1921 C   0  0  0  0  0  0  0  0  0  0  0  0
   -0.1687   -8.0422    3.2542 O   0  0  0  0  0  0  0  0  0  0  0  0
    2.7712   -7.0959    2.4945 C   0  0  0  0  0  0  0  0  0  0  0  0
    1.8546   -6.5135    3.3305 N   0  0  0  0  0  0  0  0  0  0  0  0
    1.7994   -5.1391    3.7336 C   0  0  1  0  0  0  0  0  0  0  0  0
    2.4826   -4.8953    5.0711 C   0  0  0  0  0  0  0  0  0  0  0  0
    2.9879   -3.4513    5.0014 C   0  0  0  0  0  0  0  0  0  0  0  0
    2.6835   -2.9526    3.5788 C   0  0  0  0  0  0  0  0  0  0  0  0
    2.4719   -4.2109    2.7334 C   0  0  1  0  0  0  0  0  0  0  0  0
    6.7359   -1.9624   -0.1711 H   0  0  0  0  0  0  0  0  0  0  0  0
    5.3174   -1.9440   -2.2289 H   0  0  0  0  0  0  0  0  0  0  0  0
    3.1847   -3.2339   -2.2687 H   0  0  0  0  0  0  0  0  0  0  0  0
    4.5449   -4.6871    2.9130 H   0  0  0  0  0  0  0  0  0  0  0  0
    5.1749   -6.4255    0.2929 H   0  0  0  0  0  0  0  0  0  0  0  0
    5.8001   -6.8785    1.8692 H   0  0  0  0  0  0  0  0  0  0  0  0
    4.0652   -8.4512    0.1222 H   0  0  0  0  0  0  0  0  0  0  0  0
    4.0582  -10.2242    1.7140 H   0  0  0  0  0  0  0  0  0  0  0  0
    4.7965   -9.1227    2.8696 H   0  0  0  0  0  0  0  0  0  0  0  0
    1.9253  -10.4083    2.3000 H   0  0  0  0  0  0  0  0  0  0  0  0
   -0.7436  -10.8523    1.6842 H   0  0  0  0  0  0  0  0  0  0  0  0
   -2.9771   -9.4417    2.3776 H   0  0  0  0  0  0  0  0  0  0  0  0
   -2.0014   -7.1801    3.6262 H   0  0  0  0  0  0  0  0  0  0  0  0
    0.7550   -4.8518    3.8193 H   0  0  0  0  0  0  0  0  0  0  0  0
    1.8023   -5.0790    5.9024 H   0  0  0  0  0  0  0  0  0  0  0  0
    3.3259   -5.5781    5.1795 H   0  0  0  0  0  0  0  0  0  0  0  0
    2.5105   -2.8305    5.7630 H   0  0  0  0  0  0  0  0  0  0  0  0
    4.0643   -3.4411    5.1802 H   0  0  0  0  0  0  0  0  0  0  0  0
    1.7513   -2.3876    3.6077 H   0  0  0  0  0  0  0  0  0  0  0  0
    3.4545   -2.2899    3.1823 H   0  0  0  0  0  0  0  0  0  0  0  0
    1.7669   -4.0036    1.9352 H   0  0  0  0  0  0  0  0  0  0  0  0
    1.0992   -7.1128    3.6549 H   0  0  0  0  0  0  0  0  0  0  0  0
    5.6019   -8.8206    0.6215 H   0  0  0  0  0  0  0  0  0  0  0  0
  1  2  1  0
  2  8  2  0
  2  3  1  0
  3  4  2  0
  3 28  1  0
  4  5  1  0
  4 29  1  0
  5  6  2  0
  5 30  1  0
  6  7  1  0
  6  8  1  0
  8  9  1  0
  9 27  1  0
  9 10  1  0
  9 31  1  1
 10 21  2  0
 10 11  1  0
 11 12  1  0
 11 32  1  0
 11 33  1  0
 12 13  1  0
 12 34  1  0
 12 50  1  0
 13 14  1  0
 13 35  1  0
 13 36  1  0
 14 15  2  3
 14 21  1  0
 15 16  1  0
 15 37  1  0
 16 20  1  0
 16 17  2  0
 17 18  1  0
 17 38  1  0
 18 19  2  0
 18 39  1  0
 19 20  1  0
 19 40  1  0
 21 22  1  0
 22 23  1  0
 22 49  1  0
 23 27  1  0
 23 24  1  0
 23 41  1  1
 24 25  1  0
 24 42  1  0
 24 43  1  0
 25 26  1  0
 25 44  1  0
 25 45  1  0
 26 27  1  0
 26 46  1  0
 26 47  1  0
 27 48  1  6
M  CHG  1  12   1
M  END
>  <i_m_ct_stereo_status>  (56) 
1

>  <s_m_source_file>  (56) 
/var/tmp/pbs.5076255.sched01/tmp44bw07az/09l6mph0o.sdf

>  <i_m_source_file_index>  (56) 
23

>  <i_lp_mmshare_version>  (56) 
48012

>  <i_f3d_flags>  (56) 
0

>  <s_epik_input>  (56) 
RmMxW2NIXVtjSF1bY0hdYyhGKWMxW0NASF0yW0NASF0oW0NIMl1bQ0gyXVtDSDJdMylbQ0BIXTNOPUMoW0NAQEhdMjQpQyhcW0NIMl1bTkhdW0NIMl00KT1bQ0hdXGM1W2NIXVtjSF1bY0hdbzU=

>  <s_epik_cmdline>  (56) 
J2VwaWtfcHl0aG9uJywgJy1waHQnLCAnMi4wJywgJy1waCcsICc3LjAnLCAnLXRuJywgJzgnLCAnLW1hJywgJzIwMCcsICctaW1hZScsICc8aW5maWxlLm1hZT4nLCAnLW9tYWUnLCAnPG91dGZpbGUubWFlPic=

>  <r_epik_Ionization_Penalty>  (56) 
0.54806

>  <r_epik_Ionization_Penalty_Charging>  (56) 
0.548059

>  <r_epik_Ionization_Penalty_Neutral>  (56) 
5.73795e-07

>  <r_epik_State_Penalty>  (56) 
0.558188

>  <r_epik_Charging_Adjusted_Penalty>  (56) 
1.10625

>  <i_epik_Tot_Q>  (56) 
1

>  <i_epik_Tot_abs_Q>  (56) 
1

>  <s_epik_Chemistry_Notes>  (56) 
This compound has an imine and may undergo hydrolysis.

>  <s_lp_Force_Field>  (56) 
OPLS3e

>  <r_lp_Energy>  (56) 
44.1773

>  <b_lp_Chiralities_Consistent>  (56) 
1

>  <s_lp_Variant>  (56) 
11:0-4

>  <s_i_glide_gridfile>  (56) 
pfpi4k_grid

>  <i_i_glide_lignum>  (56) 
23

>  <i_i_glide_rotatable_bonds>  (56) 
2

>  <r_i_docking_score>  (56) 
-3.24372

>  <r_i_glide_ligand_efficiency>  (56) 
-0.120138

>  <r_i_glide_ligand_efficiency_sa>  (56) 
-0.360413

>  <r_i_glide_ligand_efficiency_ln>  (56) 
-0.755084

>  <r_i_glide_gscore>  (56) 
-3.24372

>  <r_i_glide_lipo>  (56) 
-0.536013

>  <r_i_glide_hbond>  (56) 
0

>  <r_i_glide_metal>  (56) 
-0

>  <r_i_glide_rewards>  (56) 
-1.43426

>  <r_i_glide_evdw>  (56) 
-24.1034

>  <r_i_glide_ecoul>  (56) 
-0.811709

>  <r_i_glide_erotb>  (56) 
0.141276

>  <r_i_glide_esite>  (56) 
-0.0877886

>  <r_i_glide_emodel>  (56) 
-34.9258

>  <r_i_glide_energy>  (56) 
-24.9151

>  <r_i_glide_einternal>  (56) 
1.39623

>  <r_i_glide_intrahb_reward>  (56) 
-0.5

>  <i_i_glide_confnum>  (56) 
3

>  <i_i_glide_posenum>  (56) 
26

>  <r_i_glide_eff_state_penalty>  (56) 
0

>  <ligand_id>  (56) 
11

>  <original_smiles>  (56) 
Fc1cccc(F)c1C1C2CNCC(=Cc3ccco3)C2=NC2CCCC21

>  <smiles>  (56) 
[H]C(=C1C2=C(C([H])(c3c(F)c([H])c([H])c([H])c3F)C3([H])C([H])([H])C([H])([H])C([H])([H])C3([H])N2[H])C([H])([H])[N+]([H])([H])C1([H])[H])c1oc([H])c([H])c1[H]

$$$$
11:3:2
     RDKit          3D

 50 54  0  0  1  0  0  0  0  0999 V2000
    5.5392   -2.0107    2.2516 F   0  0  0  0  0  0  0  0  0  0  0  0
    4.8504   -2.1856    1.1008 C   0  0  0  0  0  0  0  0  0  0  0  0
    5.0833   -1.3178    0.0173 C   0  0  0  0  0  0  0  0  0  0  0  0
    4.3685   -1.4802   -1.1829 C   0  0  0  0  0  0  0  0  0  0  0  0
    3.4145   -2.5061   -1.2952 C   0  0  0  0  0  0  0  0  0  0  0  0
    3.1676   -3.3658   -0.2072 C   0  0  0  0  0  0  0  0  0  0  0  0
    2.2186   -4.3270   -0.3213 F   0  0  0  0  0  0  0  0  0  0  0  0
    3.8950   -3.2209    0.9988 C   0  0  0  0  0  0  0  0  0  0  0  0
    3.6247   -4.1461    2.1922 C   0  0  2  0  0  0  0  0  0  0  0  0
    3.6409   -5.6554    1.8560 C   0  0  0  0  0  0  0  0  0  0  0  0
    4.7816   -6.1354    0.9466 C   0  0  0  0  0  0  0  0  0  0  0  0
    4.6027   -7.5417    0.5127 N   0  0  0  0  0  0  0  0  0  0  0  0
    4.1783   -8.4559    1.5914 C   0  0  0  0  0  0  0  0  0  0  0  0
    2.8417   -7.9524    2.1088 C   0  0  0  0  0  0  0  0  0  0  0  0
    1.8112   -8.8320    2.2226 C   0  0  0  0  0  0  0  0  0  0  0  0
    0.4025   -8.7391    2.5543 C   0  0  0  0  0  0  0  0  0  0  0  0
   -0.6117   -9.6531    2.4774 C   0  0  0  0  0  0  0  0  0  0  0  0
   -1.8051   -8.9848    2.8662 C   0  0  0  0  0  0  0  0  0  0  0  0
   -1.4330   -7.7133    3.1717 C   0  0  0  0  0  0  0  0  0  0  0  0
   -0.1113   -7.5419    2.9522 O   0  0  0  0  0  0  0  0  0  0  0  0
    2.7715   -6.5253    2.4266 C   0  0  0  0  0  0  0  0  0  0  0  0
    1.9207   -6.0852    3.4162 N   0  0  0  0  0  0  0  0  0  0  0  0
    1.8305   -4.7474    3.9295 C   0  0  1  0  0  0  0  0  0  0  0  0
    2.6299   -4.5814    5.2123 C   0  0  0  0  0  0  0  0  0  0  0  0
    3.0479   -3.1075    5.2301 C   0  0  0  0  0  0  0  0  0  0  0  0
    2.5681   -2.5048    3.8981 C   0  0  0  0  0  0  0  0  0  0  0  0
    2.3432   -3.6943    2.9542 C   0  0  1  0  0  0  0  0  0  0  0  0
    5.8019   -0.5217    0.1178 H   0  0  0  0  0  0  0  0  0  0  0  0
    4.5362   -0.8094   -2.0087 H   0  0  0  0  0  0  0  0  0  0  0  0
    2.8410   -2.6186   -2.2029 H   0  0  0  0  0  0  0  0  0  0  0  0
    4.4586   -4.0504    2.8870 H   0  0  0  0  0  0  0  0  0  0  0  0
    4.8957   -5.5099    0.0623 H   0  0  0  0  0  0  0  0  0  0  0  0
    5.7038   -6.0617    1.5210 H   0  0  0  0  0  0  0  0  0  0  0  0
    3.8805   -7.5514   -0.1958 H   0  0  0  0  0  0  0  0  0  0  0  0
    4.1235   -9.4802    1.2118 H   0  0  0  0  0  0  0  0  0  0  0  0
    4.9142   -8.4414    2.3948 H   0  0  0  0  0  0  0  0  0  0  0  0
    2.0777   -9.8521    1.9874 H   0  0  0  0  0  0  0  0  0  0  0  0
   -0.5083  -10.6735    2.1453 H   0  0  0  0  0  0  0  0  0  0  0  0
   -2.8024   -9.3796    2.9073 H   0  0  0  0  0  0  0  0  0  0  0  0
   -1.9547   -6.8374    3.5232 H   0  0  0  0  0  0  0  0  0  0  0  0
    0.7849   -4.5425    4.1380 H   0  0  0  0  0  0  0  0  0  0  0  0
    2.0492   -4.8790    6.0861 H   0  0  0  0  0  0  0  0  0  0  0  0
    3.5181   -5.2134    5.1770 H   0  0  0  0  0  0  0  0  0  0  0  0
    2.6200   -2.5880    6.0901 H   0  0  0  0  0  0  0  0  0  0  0  0
    4.1359   -3.0467    5.3052 H   0  0  0  0  0  0  0  0  0  0  0  0
    1.6162   -2.0047    4.0725 H   0  0  0  0  0  0  0  0  0  0  0  0
    3.2541   -1.7576    3.5027 H   0  0  0  0  0  0  0  0  0  0  0  0
    1.5581   -3.4664    2.2338 H   0  0  0  0  0  0  0  0  0  0  0  0
    1.2279   -6.7482    3.7422 H   0  0  0  0  0  0  0  0  0  0  0  0
    5.4671   -7.8812    0.1159 H   0  0  0  0  0  0  0  0  0  0  0  0
  1  2  1  0
  2  8  2  0
  2  3  1  0
  3  4  2  0
  3 28  1  0
  4  5  1  0
  4 29  1  0
  5  6  2  0
  5 30  1  0
  6  7  1  0
  6  8  1  0
  8  9  1  0
  9 27  1  0
  9 10  1  0
  9 31  1  1
 10 21  2  0
 10 11  1  0
 11 12  1  0
 11 32  1  0
 11 33  1  0
 12 13  1  0
 12 34  1  0
 12 50  1  0
 13 14  1  0
 13 35  1  0
 13 36  1  0
 14 15  2  3
 14 21  1  0
 15 16  1  0
 15 37  1  0
 16 20  1  0
 16 17  2  0
 17 18  1  0
 17 38  1  0
 18 19  2  0
 18 39  1  0
 19 20  1  0
 19 40  1  0
 21 22  1  0
 22 23  1  0
 22 49  1  0
 23 27  1  0
 23 24  1  0
 23 41  1  1
 24 25  1  0
 24 42  1  0
 24 43  1  0
 25 26  1  0
 25 44  1  0
 25 45  1  0
 26 27  1  0
 26 46  1  0
 26 47  1  0
 27 48  1  6
M  CHG  1  12   1
M  END
>  <i_m_ct_stereo_status>  (57) 
1

>  <s_m_source_file>  (57) 
/var/tmp/pbs.5076255.sched01/tmp44bw07az/09l6mph0o.sdf

>  <i_m_source_file_index>  (57) 
23

>  <i_lp_mmshare_version>  (57) 
48012

>  <i_f3d_flags>  (57) 
0

>  <s_epik_input>  (57) 
RmMxW2NIXVtjSF1bY0hdYyhGKWMxW0NASF0yW0NASF0oW0NIMl1bQ0gyXVtDSDJdMylbQ0BIXTNOPUMoW0NAQEhdMjQpQyhcW0NIMl1bTkhdW0NIMl00KT1bQ0hdXGM1W2NIXVtjSF1bY0hdbzU=

>  <s_epik_cmdline>  (57) 
J2VwaWtfcHl0aG9uJywgJy1waHQnLCAnMi4wJywgJy1waCcsICc3LjAnLCAnLXRuJywgJzgnLCAnLW1hJywgJzIwMCcsICctaW1hZScsICc8aW5maWxlLm1hZT4nLCAnLW9tYWUnLCAnPG91dGZpbGUubWFlPic=

>  <r_epik_Ionization_Penalty>  (57) 
0.54806

>  <r_epik_Ionization_Penalty_Charging>  (57) 
0.548059

>  <r_epik_Ionization_Penalty_Neutral>  (57) 
5.73795e-07

>  <r_epik_State_Penalty>  (57) 
0.558188

>  <r_epik_Charging_Adjusted_Penalty>  (57) 
1.10625

>  <i_epik_Tot_Q>  (57) 
1

>  <i_epik_Tot_abs_Q>  (57) 
1

>  <s_epik_Chemistry_Notes>  (57) 
This compound has an imine and may undergo hydrolysis.

>  <s_lp_Force_Field>  (57) 
OPLS3e

>  <r_lp_Energy>  (57) 
44.1773

>  <b_lp_Chiralities_Consistent>  (57) 
1

>  <s_lp_Variant>  (57) 
11:0-4

>  <s_i_glide_gridfile>  (57) 
pfpi4k_grid

>  <i_i_glide_lignum>  (57) 
23

>  <i_i_glide_rotatable_bonds>  (57) 
2

>  <r_i_docking_score>  (57) 
-3.10322

>  <r_i_glide_ligand_efficiency>  (57) 
-0.114934

>  <r_i_glide_ligand_efficiency_sa>  (57) 
-0.344802

>  <r_i_glide_ligand_efficiency_ln>  (57) 
-0.722378

>  <r_i_glide_gscore>  (57) 
-3.10322

>  <r_i_glide_lipo>  (57) 
-0.282638

>  <r_i_glide_hbond>  (57) 
0

>  <r_i_glide_metal>  (57) 
-0

>  <r_i_glide_rewards>  (57) 
-1.48756

>  <r_i_glide_evdw>  (57) 
-25.5201

>  <r_i_glide_ecoul>  (57) 
-0.843983

>  <r_i_glide_erotb>  (57) 
0.141276

>  <r_i_glide_esite>  (57) 
-0.0716884

>  <r_i_glide_emodel>  (57) 
-36.7973

>  <r_i_glide_energy>  (57) 
-26.3641

>  <r_i_glide_einternal>  (57) 
0.152707

>  <r_i_glide_intrahb_reward>  (57) 
-0.5

>  <i_i_glide_confnum>  (57) 
1

>  <i_i_glide_posenum>  (57) 
8

>  <r_i_glide_eff_state_penalty>  (57) 
0

>  <ligand_id>  (57) 
11

>  <original_smiles>  (57) 
Fc1cccc(F)c1C1C2CNCC(=Cc3ccco3)C2=NC2CCCC21

>  <smiles>  (57) 
[H]C(=C1C2=C(C([H])(c3c(F)c([H])c([H])c([H])c3F)C3([H])C([H])([H])C([H])([H])C([H])([H])C3([H])N2[H])C([H])([H])[N+]([H])([H])C1([H])[H])c1oc([H])c([H])c1[H]

$$$$
12:1:0
     RDKit          3D

 58 63  0  0  1  0  0  0  0  0999 V2000
    6.8383   -7.2161    1.7766 C   0  0  0  0  0  0  0  0  0  0  0  0
    5.8597   -8.2480    2.3149 C   0  0  0  0  0  0  0  0  0  0  0  0
    5.3743   -8.3839    3.5721 C   0  0  0  0  0  0  0  0  0  0  0  0
    5.7542   -7.5897    4.7504 C   0  0  0  0  0  0  0  0  0  0  0  0
    6.5710   -6.6740    4.8158 O   0  0  0  0  0  0  0  0  0  0  0  0
    4.9930   -8.0452    5.9895 C   0  0  1  0  0  0  0  0  0  0  0  0
    4.0230   -6.9276    6.4837 C   0  0  0  0  0  0  0  0  0  0  0  0
    3.0947   -6.1857    5.4699 C   0  0  0  0  0  0  0  0  0  0  0  0
    1.5732   -6.2441    5.7346 C   0  0  0  0  0  0  0  0  0  0  0  0
    1.0208   -7.5772    5.5539 N   0  0  0  0  0  0  0  0  0  0  0  0
    1.2839   -8.6250    6.5126 C   0  0  0  0  0  0  0  0  0  0  0  0
    1.9512   -9.8353    5.8518 C   0  0  2  0  0  0  0  0  0  0  0  0
    3.3617  -10.2297    6.2982 C   0  0  2  0  0  0  0  0  0  0  0  0
    4.5146   -9.4713    5.5680 C   0  0  1  0  0  0  0  0  0  0  0  0
    4.4318   -9.4827    4.0311 C   0  0  1  0  0  0  0  0  0  0  0  0
    2.9867   -9.2983    3.5107 C   0  0  0  0  0  0  0  0  0  0  0  0
    1.8275   -9.9837    4.3119 C   0  0  1  0  0  0  0  0  0  0  0  0
    1.8469  -11.5257    4.0952 C   0  0  0  0  0  0  0  0  0  0  0  0
    3.0643  -12.2345    4.7582 C   0  0  0  0  0  0  0  0  0  0  0  0
    3.4258  -11.7183    6.1145 N   0  0  1  0  0  0  0  0  0  0  0  0
    4.6294  -12.3795    6.6812 C   0  0  0  0  0  0  0  0  0  0  0  0
    0.5417   -9.2659    3.8712 C   0  0  0  0  0  0  0  0  0  0  0  0
   -0.3084   -9.7807    2.8700 C   0  0  0  0  0  0  0  0  0  0  0  0
   -1.4329   -9.0452    2.4548 C   0  0  0  0  0  0  0  0  0  0  0  0
   -1.7041   -7.7846    3.0075 C   0  0  0  0  0  0  0  0  0  0  0  0
   -0.8707   -7.2599    4.0113 C   0  0  0  0  0  0  0  0  0  0  0  0
    0.2406   -8.0044    4.4600 C   0  0  0  0  0  0  0  0  0  0  0  0
    6.4561   -6.8241    0.8365 H   0  0  0  0  0  0  0  0  0  0  0  0
    7.8109   -7.6677    1.5789 H   0  0  0  0  0  0  0  0  0  0  0  0
    6.9901   -6.3590    2.4282 H   0  0  0  0  0  0  0  0  0  0  0  0
    5.5362   -8.9700    1.5791 H   0  0  0  0  0  0  0  0  0  0  0  0
    5.7315   -8.1759    6.7859 H   0  0  0  0  0  0  0  0  0  0  0  0
    3.5111   -7.2437    7.3855 H   0  0  0  0  0  0  0  0  0  0  0  0
    4.6815   -6.1485    6.8730 H   0  0  0  0  0  0  0  0  0  0  0  0
    3.3644   -5.1316    5.5135 H   0  0  0  0  0  0  0  0  0  0  0  0
    3.3042   -6.4544    4.4406 H   0  0  0  0  0  0  0  0  0  0  0  0
    1.3737   -5.9259    6.7586 H   0  0  0  0  0  0  0  0  0  0  0  0
    1.0510   -5.5349    5.0930 H   0  0  0  0  0  0  0  0  0  0  0  0
    1.8145   -8.2765    7.3919 H   0  0  0  0  0  0  0  0  0  0  0  0
    0.3097   -8.9305    6.9024 H   0  0  0  0  0  0  0  0  0  0  0  0
    1.3023  -10.6065    6.2710 H   0  0  0  0  0  0  0  0  0  0  0  0
    3.4583  -10.0495    7.3678 H   0  0  0  0  0  0  0  0  0  0  0  0
    5.4152  -10.0463    5.7938 H   0  0  0  0  0  0  0  0  0  0  0  0
    4.8510  -10.4076    3.6412 H   0  0  0  0  0  0  0  0  0  0  0  0
    2.7915   -8.2312    3.4742 H   0  0  0  0  0  0  0  0  0  0  0  0
    2.9470   -9.6123    2.4673 H   0  0  0  0  0  0  0  0  0  0  0  0
    0.9393  -11.9509    4.5307 H   0  0  0  0  0  0  0  0  0  0  0  0
    1.8215  -11.7841    3.0369 H   0  0  0  0  0  0  0  0  0  0  0  0
    2.8406  -13.2919    4.8776 H   0  0  0  0  0  0  0  0  0  0  0  0
    3.9227  -12.2145    4.0958 H   0  0  0  0  0  0  0  0  0  0  0  0
    5.5014  -12.2547    6.0380 H   0  0  0  0  0  0  0  0  0  0  0  0
    4.4494  -13.4502    6.7910 H   0  0  0  0  0  0  0  0  0  0  0  0
    4.8664  -11.9827    7.6691 H   0  0  0  0  0  0  0  0  0  0  0  0
   -0.1099  -10.7340    2.4014 H   0  0  0  0  0  0  0  0  0  0  0  0
   -2.0848   -9.4540    1.7002 H   0  0  0  0  0  0  0  0  0  0  0  0
   -2.5656   -7.2425    2.6626 H   0  0  0  0  0  0  0  0  0  0  0  0
   -1.1148   -6.3107    4.4650 H   0  0  0  0  0  0  0  0  0  0  0  0
    2.6676  -12.0563    6.7140 H   0  0  0  0  0  0  0  0  0  0  0  0
  1  2  1  0
  1 28  1  0
  1 29  1  0
  1 30  1  0
  2  3  2  3
  2 31  1  0
  3 15  1  0
  3  4  1  0
  4  5  2  0
  4  6  1  0
  6 14  1  0
  6  7  1  0
  6 32  1  1
  7  8  1  0
  7 33  1  0
  7 34  1  0
  8  9  1  0
  8 35  1  0
  8 36  1  0
  9 10  1  0
  9 37  1  0
  9 38  1  0
 10 27  1  0
 10 11  1  0
 11 12  1  0
 11 39  1  0
 11 40  1  0
 12 17  1  0
 12 13  1  0
 12 41  1  1
 13 20  1  0
 13 14  1  0
 13 42  1  1
 14 15  1  0
 14 43  1  6
 15 16  1  0
 15 44  1  6
 17 16  1  6
 16 45  1  0
 16 46  1  0
 17 18  1  0
 17 22  1  0
 18 19  1  0
 18 47  1  0
 18 48  1  0
 19 20  1  0
 19 49  1  0
 19 50  1  0
 20 21  1  0
 20 58  1  1
 21 51  1  0
 21 52  1  0
 21 53  1  0
 22 27  2  0
 22 23  1  0
 23 24  2  0
 23 54  1  0
 24 25  1  0
 24 55  1  0
 25 26  2  0
 25 56  1  0
 26 27  1  0
 26 57  1  0
M  CHG  1  20   1
M  END
>  <i_m_ct_stereo_status>  (58) 
1

>  <s_m_source_file>  (58) 
/var/tmp/pbs.5076255.sched01/tmp44bw07az/09l6mph0o.sdf

>  <i_m_source_file_index>  (58) 
25

>  <i_lp_mmshare_version>  (58) 
48012

>  <i_f3d_flags>  (58) 
0

>  <s_epik_input>  (58) 
W0NIMl0xW0NIMl1OKFtDSDNdKVtDQEhdKFtDQEBIXTJbQ0BdMTM0KVtDQEBIXTVbQ0BASF0oQyg9TylcQyg9W0NIXVxbQ0gzXSlbQ0hdNVtDSDJdMylbQ0gyXVtDSDJdW0NIMl1OKFtDSDJdMiljNmM0W2NIXVtjSF1bY0hdW2NIXTY=

>  <s_epik_cmdline>  (58) 
J2VwaWtfcHl0aG9uJywgJy1waHQnLCAnMi4wJywgJy1waCcsICc3LjAnLCAnLXRuJywgJzgnLCAnLW1hJywgJzIwMCcsICctaW1hZScsICc8aW5maWxlLm1hZT4nLCAnLW9tYWUnLCAnPG91dGZpbGUubWFlPic=

>  <r_epik_Ionization_Penalty>  (58) 
0.0125092

>  <r_epik_Ionization_Penalty_Charging>  (58) 
0.00887413

>  <r_epik_Ionization_Penalty_Neutral>  (58) 
0.00363505

>  <r_epik_State_Penalty>  (58) 
0.00942885

>  <r_epik_Charging_Adjusted_Penalty>  (58) 
0.018303

>  <i_epik_Tot_Q>  (58) 
1

>  <i_epik_Tot_abs_Q>  (58) 
1

>  <s_lp_Force_Field>  (58) 
OPLS3e

>  <r_lp_Energy>  (58) 
106.255

>  <b_lp_Chiralities_Consistent>  (58) 
1

>  <s_lp_Variant>  (58) 
12:0-2

>  <s_i_glide_gridfile>  (58) 
pfpi4k_grid

>  <i_i_glide_lignum>  (58) 
25

>  <i_i_glide_rotatable_bonds>  (58) 
0

>  <r_i_docking_score>  (58) 
-3.96234

>  <r_i_glide_ligand_efficiency>  (58) 
-0.146753

>  <r_i_glide_ligand_efficiency_sa>  (58) 
-0.44026

>  <r_i_glide_ligand_efficiency_ln>  (58) 
-0.922368

>  <r_i_glide_gscore>  (58) 
-3.96234

>  <r_i_glide_lipo>  (58) 
-0.291018

>  <r_i_glide_hbond>  (58) 
-0.216652

>  <r_i_glide_metal>  (58) 
-0

>  <r_i_glide_rewards>  (58) 
-1.46057

>  <r_i_glide_evdw>  (58) 
-19.755

>  <r_i_glide_ecoul>  (58) 
-5.97124

>  <r_i_glide_erotb>  (58) 
0

>  <r_i_glide_esite>  (58) 
-0.110662

>  <r_i_glide_emodel>  (58) 
-35.6489

>  <r_i_glide_energy>  (58) 
-25.7263

>  <r_i_glide_einternal>  (58) 
0

>  <r_i_glide_intrahb_reward>  (58) 
-0

>  <i_i_glide_confnum>  (58) 
1

>  <i_i_glide_posenum>  (58) 
1

>  <r_i_glide_eff_state_penalty>  (58) 
0

>  <ligand_id>  (58) 
12

>  <original_smiles>  (58) 
CC=C1C(=O)C2CCCN3CC4C5C2C1CC4(CCN5C)c1ccccc13

>  <smiles>  (58) 
[H]C(=C1C(=O)C2([H])C([H])([H])C([H])([H])C([H])([H])N3c4c([H])c([H])c([H])c([H])c4C45C([H])([H])C1([H])C2([H])C([H])(C4([H])C3([H])[H])[N+]([H])(C([H])([H])[H])C([H])([H])C5([H])[H])C([H])([H])[H]

$$$$
12:1:1
     RDKit          3D

 58 63  0  0  1  0  0  0  0  0999 V2000
    6.4261   -5.7837    3.5123 C   0  0  0  0  0  0  0  0  0  0  0  0
    5.6034   -7.0599    3.5929 C   0  0  0  0  0  0  0  0  0  0  0  0
    4.9991   -7.6170    4.6691 C   0  0  0  0  0  0  0  0  0  0  0  0
    5.0672   -7.1395    6.0577 C   0  0  0  0  0  0  0  0  0  0  0  0
    5.6782   -6.1674    6.4965 O   0  0  0  0  0  0  0  0  0  0  0  0
    4.2558   -8.0323    6.9875 C   0  0  1  0  0  0  0  0  0  0  0  0
    3.0344   -7.2581    7.5723 C   0  0  0  0  0  0  0  0  0  0  0  0
    2.1170   -6.4094    6.6346 C   0  0  0  0  0  0  0  0  0  0  0  0
    0.6143   -6.7673    6.6058 C   0  0  0  0  0  0  0  0  0  0  0  0
    0.3555   -8.0592    5.9963 N   0  0  0  0  0  0  0  0  0  0  0  0
    0.6898   -9.2814    6.6851 C   0  0  0  0  0  0  0  0  0  0  0  0
    1.6662  -10.1270    5.8647 C   0  0  2  0  0  0  0  0  0  0  0  0
    3.0508  -10.4374    6.4410 C   0  0  2  0  0  0  0  0  0  0  0  0
    4.1198   -9.3403    6.1403 C   0  0  1  0  0  0  0  0  0  0  0  0
    4.2348   -8.9294    4.6612 C   0  0  1  0  0  0  0  0  0  0  0  0
    2.8600   -8.8237    3.9589 C   0  0  0  0  0  0  0  0  0  0  0  0
    1.7627   -9.8696    4.3428 C   0  0  1  0  0  0  0  0  0  0  0  0
    2.1054  -11.2721    3.7519 C   0  0  0  0  0  0  0  0  0  0  0  0
    3.3349  -11.9579    4.4235 C   0  0  0  0  0  0  0  0  0  0  0  0
    3.4158  -11.7942    5.9101 N   0  0  1  0  0  0  0  0  0  0  0  0
    4.6455  -12.3903    6.4834 C   0  0  0  0  0  0  0  0  0  0  0  0
    0.4263   -9.2603    3.8819 C   0  0  0  0  0  0  0  0  0  0  0  0
   -0.1800   -9.5991    2.6555 C   0  0  0  0  0  0  0  0  0  0  0  0
   -1.3550   -8.9453    2.2423 C   0  0  0  0  0  0  0  0  0  0  0  0
   -1.9267   -7.9425    3.0419 C   0  0  0  0  0  0  0  0  0  0  0  0
   -1.3416   -7.6009    4.2722 C   0  0  0  0  0  0  0  0  0  0  0  0
   -0.1790   -8.2713    4.7085 C   0  0  0  0  0  0  0  0  0  0  0  0
    6.1063   -5.2097    2.6434 H   0  0  0  0  0  0  0  0  0  0  0  0
    7.4844   -6.0121    3.3817 H   0  0  0  0  0  0  0  0  0  0  0  0
    6.3238   -5.1294    4.3754 H   0  0  0  0  0  0  0  0  0  0  0  0
    5.5226   -7.5858    2.6544 H   0  0  0  0  0  0  0  0  0  0  0  0
    4.8976   -8.2705    7.8410 H   0  0  0  0  0  0  0  0  0  0  0  0
    2.4823   -7.8898    8.2588 H   0  0  0  0  0  0  0  0  0  0  0  0
    3.4774   -6.5318    8.2562 H   0  0  0  0  0  0  0  0  0  0  0  0
    2.1727   -5.3818    6.9909 H   0  0  0  0  0  0  0  0  0  0  0  0
    2.5044   -6.3442    5.6236 H   0  0  0  0  0  0  0  0  0  0  0  0
    0.2297   -6.7871    7.6261 H   0  0  0  0  0  0  0  0  0  0  0  0
    0.0516   -5.9928    6.0873 H   0  0  0  0  0  0  0  0  0  0  0  0
    1.0264   -9.1266    7.7045 H   0  0  0  0  0  0  0  0  0  0  0  0
   -0.2484   -9.8315    6.8075 H   0  0  0  0  0  0  0  0  0  0  0  0
    1.1083  -11.0532    5.9443 H   0  0  0  0  0  0  0  0  0  0  0  0
    2.9747  -10.5479    7.5208 H   0  0  0  0  0  0  0  0  0  0  0  0
    5.0770   -9.8124    6.3660 H   0  0  0  0  0  0  0  0  0  0  0  0
    4.8697   -9.6344    4.1300 H   0  0  0  0  0  0  0  0  0  0  0  0
    2.4694   -7.8321    4.1624 H   0  0  0  0  0  0  0  0  0  0  0  0
    3.0142   -8.8343    2.8806 H   0  0  0  0  0  0  0  0  0  0  0  0
    1.2468  -11.9332    3.8923 H   0  0  0  0  0  0  0  0  0  0  0  0
    2.2697  -11.2194    2.6740 H   0  0  0  0  0  0  0  0  0  0  0  0
    3.3128  -13.0262    4.2080 H   0  0  0  0  0  0  0  0  0  0  0  0
    4.2500  -11.6153    3.9485 H   0  0  0  0  0  0  0  0  0  0  0  0
    5.5498  -11.9560    6.0534 H   0  0  0  0  0  0  0  0  0  0  0  0
    4.6689  -13.4635    6.2870 H   0  0  0  0  0  0  0  0  0  0  0  0
    4.6785  -12.2540    7.5643 H   0  0  0  0  0  0  0  0  0  0  0  0
    0.2483  -10.3537    2.0150 H   0  0  0  0  0  0  0  0  0  0  0  0
   -1.8087   -9.2117    1.3025 H   0  0  0  0  0  0  0  0  0  0  0  0
   -2.8315   -7.4597    2.7127 H   0  0  0  0  0  0  0  0  0  0  0  0
   -1.8290   -6.8626    4.8911 H   0  0  0  0  0  0  0  0  0  0  0  0
    2.6717  -12.3767    6.2949 H   0  0  0  0  0  0  0  0  0  0  0  0
  1  2  1  0
  1 28  1  0
  1 29  1  0
  1 30  1  0
  2  3  2  3
  2 31  1  0
  3 15  1  0
  3  4  1  0
  4  5  2  0
  4  6  1  0
  6 14  1  0
  6  7  1  0
  6 32  1  1
  7  8  1  0
  7 33  1  0
  7 34  1  0
  8  9  1  0
  8 35  1  0
  8 36  1  0
  9 10  1  0
  9 37  1  0
  9 38  1  0
 10 27  1  0
 10 11  1  0
 11 12  1  0
 11 39  1  0
 11 40  1  0
 12 17  1  0
 12 13  1  0
 12 41  1  6
 13 20  1  0
 13 14  1  0
 13 42  1  1
 14 15  1  0
 14 43  1  1
 15 16  1  0
 15 44  1  6
 17 16  1  1
 16 45  1  0
 16 46  1  0
 17 18  1  0
 17 22  1  0
 18 19  1  0
 18 47  1  0
 18 48  1  0
 19 20  1  0
 19 49  1  0
 19 50  1  0
 20 21  1  0
 20 58  1  1
 21 51  1  0
 21 52  1  0
 21 53  1  0
 22 27  2  0
 22 23  1  0
 23 24  2  0
 23 54  1  0
 24 25  1  0
 24 55  1  0
 25 26  2  0
 25 56  1  0
 26 27  1  0
 26 57  1  0
M  CHG  1  20   1
M  END
>  <i_m_ct_stereo_status>  (59) 
1

>  <s_m_source_file>  (59) 
/var/tmp/pbs.5076255.sched01/tmp44bw07az/09l6mph0o.sdf

>  <i_m_source_file_index>  (59) 
25

>  <i_lp_mmshare_version>  (59) 
48012

>  <i_f3d_flags>  (59) 
0

>  <s_epik_input>  (59) 
W0NIMl0xW0NIMl1OKFtDSDNdKVtDQEhdKFtDQEBIXTJbQ0BdMTM0KVtDQEBIXTVbQ0BASF0oQyg9TylcQyg9W0NIXVxbQ0gzXSlbQ0hdNVtDSDJdMylbQ0gyXVtDSDJdW0NIMl1OKFtDSDJdMiljNmM0W2NIXVtjSF1bY0hdW2NIXTY=

>  <s_epik_cmdline>  (59) 
J2VwaWtfcHl0aG9uJywgJy1waHQnLCAnMi4wJywgJy1waCcsICc3LjAnLCAnLXRuJywgJzgnLCAnLW1hJywgJzIwMCcsICctaW1hZScsICc8aW5maWxlLm1hZT4nLCAnLW9tYWUnLCAnPG91dGZpbGUubWFlPic=

>  <r_epik_Ionization_Penalty>  (59) 
0.0125092

>  <r_epik_Ionization_Penalty_Charging>  (59) 
0.00887413

>  <r_epik_Ionization_Penalty_Neutral>  (59) 
0.00363505

>  <r_epik_State_Penalty>  (59) 
0.00942885

>  <r_epik_Charging_Adjusted_Penalty>  (59) 
0.018303

>  <i_epik_Tot_Q>  (59) 
1

>  <i_epik_Tot_abs_Q>  (59) 
1

>  <s_lp_Force_Field>  (59) 
OPLS3e

>  <r_lp_Energy>  (59) 
106.255

>  <b_lp_Chiralities_Consistent>  (59) 
1

>  <s_lp_Variant>  (59) 
12:0-2

>  <s_i_glide_gridfile>  (59) 
pfpi4k_grid

>  <i_i_glide_lignum>  (59) 
25

>  <i_i_glide_rotatable_bonds>  (59) 
0

>  <r_i_docking_score>  (59) 
-3.89127

>  <r_i_glide_ligand_efficiency>  (59) 
-0.144121

>  <r_i_glide_ligand_efficiency_sa>  (59) 
-0.432363

>  <r_i_glide_ligand_efficiency_ln>  (59) 
-0.905822

>  <r_i_glide_gscore>  (59) 
-3.89127

>  <r_i_glide_lipo>  (59) 
-0.1929

>  <r_i_glide_hbond>  (59) 
-0.312364

>  <r_i_glide_metal>  (59) 
-0

>  <r_i_glide_rewards>  (59) 
-1.46057

>  <r_i_glide_evdw>  (59) 
-18.3108

>  <r_i_glide_ecoul>  (59) 
-5.87841

>  <r_i_glide_erotb>  (59) 
0

>  <r_i_glide_esite>  (59) 
-0.128124

>  <r_i_glide_emodel>  (59) 
-33.9179

>  <r_i_glide_energy>  (59) 
-24.1892

>  <r_i_glide_einternal>  (59) 
0

>  <r_i_glide_intrahb_reward>  (59) 
-0

>  <i_i_glide_confnum>  (59) 
2

>  <i_i_glide_posenum>  (59) 
26

>  <r_i_glide_eff_state_penalty>  (59) 
0

>  <ligand_id>  (59) 
12

>  <original_smiles>  (59) 
CC=C1C(=O)C2CCCN3CC4C5C2C1CC4(CCN5C)c1ccccc13

>  <smiles>  (59) 
[H]C(=C1C(=O)C2([H])C([H])([H])C([H])([H])C([H])([H])N3c4c([H])c([H])c([H])c([H])c4C45C([H])([H])C1([H])C2([H])C([H])(C4([H])C3([H])[H])[N+]([H])(C([H])([H])[H])C([H])([H])C5([H])[H])C([H])([H])[H]

$$$$
12:1:2
     RDKit          3D

 58 63  0  0  1  0  0  0  0  0999 V2000
    2.4321   -6.7167    8.9386 C   0  0  0  0  0  0  0  0  0  0  0  0
    3.0785   -7.4850    7.7950 C   0  0  0  0  0  0  0  0  0  0  0  0
    2.5080   -8.3303    6.9038 C   0  0  0  0  0  0  0  0  0  0  0  0
    1.1063   -8.7703    6.8892 C   0  0  0  0  0  0  0  0  0  0  0  0
    0.2149   -8.4585    7.6776 O   0  0  0  0  0  0  0  0  0  0  0  0
    0.8371   -9.7169    5.7248 C   0  0  1  0  0  0  0  0  0  0  0  0
   -0.1296   -9.0626    4.6886 C   0  0  0  0  0  0  0  0  0  0  0  0
    0.1042   -7.5994    4.1955 C   0  0  0  0  0  0  0  0  0  0  0  0
    0.2869   -7.3911    2.6741 C   0  0  0  0  0  0  0  0  0  0  0  0
    1.5290   -7.9559    2.1732 N   0  0  0  0  0  0  0  0  0  0  0  0
    1.6824   -9.3875    2.0495 C   0  0  0  0  0  0  0  0  0  0  0  0
    2.8819   -9.8985    2.8497 C   0  0  2  0  0  0  0  0  0  0  0  0
    2.6325  -10.8767    4.0028 C   0  0  2  0  0  0  0  0  0  0  0  0
    2.2796  -10.1968    5.3614 C   0  0  1  0  0  0  0  0  0  0  0  0
    3.2488   -9.0908    5.8158 C   0  0  1  0  0  0  0  0  0  0  0  0
    3.7084   -8.1852    4.6484 C   0  0  0  0  0  0  0  0  0  0  0  0
    3.9667   -8.8612    3.2562 C   0  0  1  0  0  0  0  0  0  0  0  0
    5.2734   -9.7073    3.2937 C   0  0  0  0  0  0  0  0  0  0  0  0
    5.1698  -10.9913    4.1703 C   0  0  0  0  0  0  0  0  0  0  0  0
    3.8698  -11.7305    4.0607 N   0  0  1  0  0  0  0  0  0  0  0  0
    3.8024  -12.8895    4.9858 C   0  0  0  0  0  0  0  0  0  0  0  0
    3.9478   -7.7119    2.2291 C   0  0  0  0  0  0  0  0  0  0  0  0
    5.1254   -7.0851    1.7599 C   0  0  0  0  0  0  0  0  0  0  0  0
    5.0378   -5.9817    0.8888 C   0  0  0  0  0  0  0  0  0  0  0  0
    3.7815   -5.4916    0.4903 C   0  0  0  0  0  0  0  0  0  0  0  0
    2.6025   -6.1090    0.9472 C   0  0  0  0  0  0  0  0  0  0  0  0
    2.6782   -7.2288    1.8008 C   0  0  0  0  0  0  0  0  0  0  0  0
    2.7940   -5.6897    8.9267 H   0  0  0  0  0  0  0  0  0  0  0  0
    2.7081   -7.1508    9.8991 H   0  0  0  0  0  0  0  0  0  0  0  0
    1.3471   -6.6676    8.8901 H   0  0  0  0  0  0  0  0  0  0  0  0
    4.1444   -7.3325    7.7186 H   0  0  0  0  0  0  0  0  0  0  0  0
    0.3025  -10.5816    6.1315 H   0  0  0  0  0  0  0  0  0  0  0  0
   -0.3456   -9.7597    3.8863 H   0  0  0  0  0  0  0  0  0  0  0  0
   -1.0917   -9.0306    5.2025 H   0  0  0  0  0  0  0  0  0  0  0  0
   -0.7825   -7.0320    4.4741 H   0  0  0  0  0  0  0  0  0  0  0  0
    0.9011   -7.1029    4.7371 H   0  0  0  0  0  0  0  0  0  0  0  0
   -0.5448   -7.8598    2.1438 H   0  0  0  0  0  0  0  0  0  0  0  0
    0.2425   -6.3306    2.4328 H   0  0  0  0  0  0  0  0  0  0  0  0
    0.7692   -9.9398    2.2496 H   0  0  0  0  0  0  0  0  0  0  0  0
    1.8666   -9.5793    0.9904 H   0  0  0  0  0  0  0  0  0  0  0  0
    3.3327  -10.5162    2.0689 H   0  0  0  0  0  0  0  0  0  0  0  0
    1.8120  -11.5428    3.7368 H   0  0  0  0  0  0  0  0  0  0  0  0
    2.4077  -10.9895    6.0991 H   0  0  0  0  0  0  0  0  0  0  0  0
    4.1114   -9.5304    6.3108 H   0  0  0  0  0  0  0  0  0  0  0  0
    2.9527   -7.4168    4.5199 H   0  0  0  0  0  0  0  0  0  0  0  0
    4.5941   -7.6323    4.9606 H   0  0  0  0  0  0  0  0  0  0  0  0
    5.5084  -10.0241    2.2754 H   0  0  0  0  0  0  0  0  0  0  0  0
    6.1229   -9.1130    3.6284 H   0  0  0  0  0  0  0  0  0  0  0  0
    5.9639  -11.6760    3.8731 H   0  0  0  0  0  0  0  0  0  0  0  0
    5.3858  -10.7562    5.2071 H   0  0  0  0  0  0  0  0  0  0  0  0
    3.9179  -12.5992    6.0300 H   0  0  0  0  0  0  0  0  0  0  0  0
    4.5848  -13.6104    4.7495 H   0  0  0  0  0  0  0  0  0  0  0  0
    2.8488  -13.3931    4.8832 H   0  0  0  0  0  0  0  0  0  0  0  0
    6.0987   -7.4345    2.0630 H   0  0  0  0  0  0  0  0  0  0  0  0
    5.9364   -5.5167    0.5171 H   0  0  0  0  0  0  0  0  0  0  0  0
    3.7274   -4.6534   -0.1870 H   0  0  0  0  0  0  0  0  0  0  0  0
    1.6516   -5.7484    0.5873 H   0  0  0  0  0  0  0  0  0  0  0  0
    3.8946  -12.1495    3.1392 H   0  0  0  0  0  0  0  0  0  0  0  0
  1  2  1  0
  1 28  1  0
  1 29  1  0
  1 30  1  0
  2  3  2  3
  2 31  1  0
  3 15  1  0
  3  4  1  0
  4  5  2  0
  4  6  1  0
  6 14  1  0
  6  7  1  0
  6 32  1  1
  7  8  1  0
  7 33  1  0
  7 34  1  0
  8  9  1  0
  8 35  1  0
  8 36  1  0
  9 10  1  0
  9 37  1  0
  9 38  1  0
 10 27  1  0
 10 11  1  0
 11 12  1  0
 11 39  1  0
 11 40  1  0
 12 17  1  0
 12 13  1  0
 12 41  1  6
 13 20  1  0
 13 14  1  0
 13 42  1  6
 14 15  1  0
 14 43  1  1
 15 16  1  0
 15 44  1  1
 17 16  1  1
 16 45  1  0
 16 46  1  0
 17 18  1  0
 17 22  1  0
 18 19  1  0
 18 47  1  0
 18 48  1  0
 19 20  1  0
 19 49  1  0
 19 50  1  0
 20 21  1  0
 20 58  1  6
 21 51  1  0
 21 52  1  0
 21 53  1  0
 22 27  2  0
 22 23  1  0
 23 24  2  0
 23 54  1  0
 24 25  1  0
 24 55  1  0
 25 26  2  0
 25 56  1  0
 26 27  1  0
 26 57  1  0
M  CHG  1  20   1
M  END
>  <i_m_ct_stereo_status>  (60) 
1

>  <s_m_source_file>  (60) 
/var/tmp/pbs.5076255.sched01/tmp44bw07az/09l6mph0o.sdf

>  <i_m_source_file_index>  (60) 
25

>  <i_lp_mmshare_version>  (60) 
48012

>  <i_f3d_flags>  (60) 
0

>  <s_epik_input>  (60) 
W0NIMl0xW0NIMl1OKFtDSDNdKVtDQEhdKFtDQEBIXTJbQ0BdMTM0KVtDQEBIXTVbQ0BASF0oQyg9TylcQyg9W0NIXVxbQ0gzXSlbQ0hdNVtDSDJdMylbQ0gyXVtDSDJdW0NIMl1OKFtDSDJdMiljNmM0W2NIXVtjSF1bY0hdW2NIXTY=

>  <s_epik_cmdline>  (60) 
J2VwaWtfcHl0aG9uJywgJy1waHQnLCAnMi4wJywgJy1waCcsICc3LjAnLCAnLXRuJywgJzgnLCAnLW1hJywgJzIwMCcsICctaW1hZScsICc8aW5maWxlLm1hZT4nLCAnLW9tYWUnLCAnPG91dGZpbGUubWFlPic=

>  <r_epik_Ionization_Penalty>  (60) 
0.0125092

>  <r_epik_Ionization_Penalty_Charging>  (60) 
0.00887413

>  <r_epik_Ionization_Penalty_Neutral>  (60) 
0.00363505

>  <r_epik_State_Penalty>  (60) 
0.00942885

>  <r_epik_Charging_Adjusted_Penalty>  (60) 
0.018303

>  <i_epik_Tot_Q>  (60) 
1

>  <i_epik_Tot_abs_Q>  (60) 
1

>  <s_lp_Force_Field>  (60) 
OPLS3e

>  <r_lp_Energy>  (60) 
106.255

>  <b_lp_Chiralities_Consistent>  (60) 
1

>  <s_lp_Variant>  (60) 
12:0-2

>  <s_i_glide_gridfile>  (60) 
pfpi4k_grid

>  <i_i_glide_lignum>  (60) 
25

>  <i_i_glide_rotatable_bonds>  (60) 
0

>  <r_i_docking_score>  (60) 
-3.03657

>  <r_i_glide_ligand_efficiency>  (60) 
-0.112466

>  <r_i_glide_ligand_efficiency_sa>  (60) 
-0.337397

>  <r_i_glide_ligand_efficiency_ln>  (60) 
-0.706864

>  <r_i_glide_gscore>  (60) 
-3.03657

>  <r_i_glide_lipo>  (60) 
-0.246814

>  <r_i_glide_hbond>  (60) 
0

>  <r_i_glide_metal>  (60) 
-0

>  <r_i_glide_rewards>  (60) 
-0.930574

>  <r_i_glide_evdw>  (60) 
-20.5239

>  <r_i_glide_ecoul>  (60) 
-4.909

>  <r_i_glide_erotb>  (60) 
0

>  <r_i_glide_esite>  (60) 
-0.0966398

>  <r_i_glide_emodel>  (60) 
-33.0184

>  <r_i_glide_energy>  (60) 
-25.4329

>  <r_i_glide_einternal>  (60) 
0

>  <r_i_glide_intrahb_reward>  (60) 
-0

>  <i_i_glide_confnum>  (60) 
1

>  <i_i_glide_posenum>  (60) 
3

>  <r_i_glide_eff_state_penalty>  (60) 
0

>  <ligand_id>  (60) 
12

>  <original_smiles>  (60) 
CC=C1C(=O)C2CCCN3CC4C5C2C1CC4(CCN5C)c1ccccc13

>  <smiles>  (60) 
[H]C(=C1C(=O)C2([H])C([H])([H])C([H])([H])C([H])([H])N3c4c([H])c([H])c([H])c([H])c4C45C([H])([H])C1([H])C2([H])C([H])(C4([H])C3([H])[H])[N+]([H])(C([H])([H])[H])C([H])([H])C5([H])[H])C([H])([H])[H]

$$$$
14:0:0
     RDKit          3D

 25 28  0  0  1  0  0  0  0  0999 V2000
    3.0427   -0.2877    1.2333 O   0  0  0  0  0  0  0  0  0  0  0  0
    3.4575   -1.1245    0.1690 C   0  0  2  0  0  0  0  0  0  0  0  0
    3.4301   -2.6721    0.4218 C   0  0  2  0  0  0  0  0  0  0  0  0
    4.7675   -2.4590    0.9665 O   0  0  0  0  0  0  0  0  0  0  0  0
    4.9514   -1.3786   -0.0114 C   0  0  1  0  0  0  0  0  0  0  0  0
    5.5846   -2.0037   -1.3344 C   0  0  1  0  0  0  0  0  0  0  0  0
    5.9831   -3.4470   -0.9459 C   0  0  0  0  0  0  0  0  0  0  0  0
    4.9605   -4.3201   -0.7226 C   0  0  0  0  0  0  0  0  0  0  0  0
    3.5202   -3.7484   -0.7611 C   0  0  2  0  0  0  0  0  0  0  0  0
    3.2991   -2.8729   -2.0151 C   0  0  2  0  0  0  0  0  0  0  0  0
    3.0854   -3.0163   -3.5038 C   0  0  0  0  0  0  0  0  0  0  0  0
    3.8361   -1.8707   -3.6298 C   0  0  0  0  0  0  0  0  0  0  0  0
    4.6763   -2.4432   -2.5216 C   0  0  1  0  0  0  0  0  0  0  0  0
    2.1208   -0.1285    1.0836 H   0  0  0  0  0  0  0  0  0  0  0  0
    3.0501   -0.6838   -0.7304 H   0  0  0  0  0  0  0  0  0  0  0  0
    2.7293   -2.9334    1.2106 H   0  0  0  0  0  0  0  0  0  0  0  0
    5.5447   -0.5738    0.4161 H   0  0  0  0  0  0  0  0  0  0  0  0
    6.4612   -1.4608   -1.6778 H   0  0  0  0  0  0  0  0  0  0  0  0
    7.0230   -3.7221   -0.8904 H   0  0  0  0  0  0  0  0  0  0  0  0
    5.1057   -5.3518   -0.4479 H   0  0  0  0  0  0  0  0  0  0  0  0
    2.7667   -4.5312   -0.6699 H   0  0  0  0  0  0  0  0  0  0  0  0
    2.4796   -2.1800   -1.8023 H   0  0  0  0  0  0  0  0  0  0  0  0
    2.3229   -3.4933   -4.1096 H   0  0  0  0  0  0  0  0  0  0  0  0
    3.9928   -1.1433   -4.4172 H   0  0  0  0  0  0  0  0  0  0  0  0
    5.2649   -3.2129   -3.0557 H   0  0  0  0  0  0  0  0  0  0  0  0
  1  2  1  0
  1 14  1  0
  2  5  1  0
  2  3  1  0
  2 15  1  6
  3  9  1  0
  3  4  1  0
  3 16  1  1
  4  5  1  0
  5  6  1  0
  5 17  1  1
  6 13  1  0
  6  7  1  0
  6 18  1  6
  7  8  2  0
  7 19  1  0
  8  9  1  0
  8 20  1  0
  9 10  1  0
  9 21  1  1
 10 13  1  0
 10 11  1  0
 10 22  1  1
 11 12  2  0
 11 23  1  0
 12 13  1  0
 12 24  1  0
 13 25  1  6
M  END
>  <i_m_ct_stereo_status>  (61) 
1

>  <s_m_source_file>  (61) 
/var/tmp/pbs.5076255.sched01/tmp44bw07az/09l6mph0o.sdf

>  <i_m_source_file_index>  (61) 
27

>  <i_lp_mmshare_version>  (61) 
48012

>  <i_f3d_flags>  (61) 
1

>  <s_epik_input>  (61) 
W09IXVtDQEhdMVtDQEBIXShPMilbQ0hdKFtDSF09W0NIXTMpW0NIXShbQ0hdPVtDSF00KVtDSF00W0NIXTNbQ0BIXTEy

>  <s_epik_cmdline>  (61) 
J2VwaWtfcHl0aG9uJywgJy1waHQnLCAnMi4wJywgJy1waCcsICc3LjAnLCAnLXRuJywgJzgnLCAnLW1hJywgJzIwMCcsICctaW1hZScsICc8aW5maWxlLm1hZT4nLCAnLW9tYWUnLCAnPG91dGZpbGUubWFlPic=

>  <r_lp_tautomer_probability>  (61) 
1

>  <r_epik_Ionization_Penalty>  (61) 
5.80975e-08

>  <r_epik_Ionization_Penalty_Charging>  (61) 
0

>  <r_epik_Ionization_Penalty_Neutral>  (61) 
5.80975e-08

>  <r_epik_State_Penalty>  (61) 
-0

>  <r_epik_Charging_Adjusted_Penalty>  (61) 
0

>  <i_epik_Tot_Q>  (61) 
0

>  <i_epik_Tot_abs_Q>  (61) 
0

>  <s_lp_Force_Field>  (61) 
OPLS3e

>  <r_lp_Energy>  (61) 
115.085

>  <b_lp_Chiralities_Consistent>  (61) 
1

>  <s_lp_Variant>  (61) 
14:0-1

>  <s_i_glide_gridfile>  (61) 
pfpi4k_grid

>  <i_i_glide_lignum>  (61) 
27

>  <i_i_glide_rotatable_bonds>  (61) 
1

>  <r_i_docking_score>  (61) 
-4.06837

>  <r_i_glide_ligand_efficiency>  (61) 
-0.312952

>  <r_i_glide_ligand_efficiency_sa>  (61) 
-0.735854

>  <r_i_glide_ligand_efficiency_ln>  (61) 
-1.14121

>  <r_i_glide_gscore>  (61) 
-4.06837

>  <r_i_glide_lipo>  (61) 
-0.676802

>  <r_i_glide_hbond>  (61) 
0

>  <r_i_glide_metal>  (61) 
-0

>  <r_i_glide_rewards>  (61) 
-2.20765

>  <r_i_glide_evdw>  (61) 
-19.6912

>  <r_i_glide_ecoul>  (61) 
-1.32911

>  <r_i_glide_erotb>  (61) 
0

>  <r_i_glide_esite>  (61) 
0

>  <r_i_glide_emodel>  (61) 
-26.3504

>  <r_i_glide_energy>  (61) 
-21.0203

>  <r_i_glide_einternal>  (61) 
1.02471

>  <r_i_glide_intrahb_reward>  (61) 
-0

>  <i_i_glide_confnum>  (61) 
1

>  <i_i_glide_posenum>  (61) 
21

>  <r_i_glide_eff_state_penalty>  (61) 
0

>  <ligand_id>  (61) 
14

>  <original_smiles>  (61) 
OC1C2OC1C1C=CC2C2C=CC21

>  <smiles>  (61) 
[H]OC1([H])C2([H])OC1([H])C1([H])C([H])=C([H])C2([H])C2([H])C([H])=C([H])C12[H]

$$$$
14:0:1
     RDKit          3D

 25 28  0  0  1  0  0  0  0  0999 V2000
    2.2490   -4.7643   -0.0515 O   0  0  0  0  0  0  0  0  0  0  0  0
    3.0195   -3.7657   -0.7070 C   0  0  2  0  0  0  0  0  0  0  0  0
    4.5264   -4.1058   -1.0470 C   0  0  2  0  0  0  0  0  0  0  0  0
    4.7801   -3.6476    0.3134 O   0  0  0  0  0  0  0  0  0  0  0  0
    3.6772   -2.6899    0.1577 C   0  0  1  0  0  0  0  0  0  0  0  0
    4.2802   -1.3327   -0.4138 C   0  0  1  0  0  0  0  0  0  0  0  0
    5.8153   -1.5043   -0.3264 C   0  0  0  0  0  0  0  0  0  0  0  0
    6.3792   -2.4043   -1.1796 C   0  0  0  0  0  0  0  0  0  0  0  0
    5.4170   -3.2438   -2.0573 C   0  0  2  0  0  0  0  0  0  0  0  0
    4.3429   -2.3748   -2.7374 C   0  0  2  0  0  0  0  0  0  0  0  0
    4.2111   -1.3810   -3.8673 C   0  0  0  0  0  0  0  0  0  0  0  0
    3.3491   -0.6996   -3.0705 C   0  0  0  0  0  0  0  0  0  0  0  0
    4.2764   -1.0728   -1.9478 C   0  0  1  0  0  0  0  0  0  0  0  0
    2.2848   -5.5050   -0.6417 H   0  0  0  0  0  0  0  0  0  0  0  0
    2.3606   -3.3073   -1.4378 H   0  0  0  0  0  0  0  0  0  0  0  0
    4.6715   -5.1782   -1.1213 H   0  0  0  0  0  0  0  0  0  0  0  0
    3.1422   -2.5699    1.0926 H   0  0  0  0  0  0  0  0  0  0  0  0
    3.9487   -0.4626    0.1588 H   0  0  0  0  0  0  0  0  0  0  0  0
    6.3745   -0.9134    0.3782 H   0  0  0  0  0  0  0  0  0  0  0  0
    7.4295   -2.6383   -1.2072 H   0  0  0  0  0  0  0  0  0  0  0  0
    5.9519   -3.8677   -2.7757 H   0  0  0  0  0  0  0  0  0  0  0  0
    3.4737   -3.0012   -2.9751 H   0  0  0  0  0  0  0  0  0  0  0  0
    4.3631   -1.4197   -4.9454 H   0  0  0  0  0  0  0  0  0  0  0  0
    2.6122    0.0970   -3.2283 H   0  0  0  0  0  0  0  0  0  0  0  0
    5.1004   -0.3509   -2.1090 H   0  0  0  0  0  0  0  0  0  0  0  0
  1  2  1  0
  1 14  1  0
  2  5  1  0
  2  3  1  0
  2 15  1  6
  3  9  1  0
  3  4  1  0
  3 16  1  1
  4  5  1  0
  5  6  1  0
  5 17  1  1
  6 13  1  0
  6  7  1  0
  6 18  1  1
  7  8  2  0
  7 19  1  0
  8  9  1  0
  8 20  1  0
  9 10  1  0
  9 21  1  6
 10 13  1  0
 10 11  1  0
 10 22  1  1
 11 12  2  0
 11 23  1  0
 12 13  1  0
 12 24  1  0
 13 25  1  1
M  END
>  <i_m_ct_stereo_status>  (62) 
1

>  <s_m_source_file>  (62) 
/var/tmp/pbs.5076255.sched01/tmp44bw07az/09l6mph0o.sdf

>  <i_m_source_file_index>  (62) 
27

>  <i_lp_mmshare_version>  (62) 
48012

>  <i_f3d_flags>  (62) 
1

>  <s_epik_input>  (62) 
W09IXVtDQEhdMVtDQEBIXShPMilbQ0hdKFtDSF09W0NIXTMpW0NIXShbQ0hdPVtDSF00KVtDSF00W0NIXTNbQ0BIXTEy

>  <s_epik_cmdline>  (62) 
J2VwaWtfcHl0aG9uJywgJy1waHQnLCAnMi4wJywgJy1waCcsICc3LjAnLCAnLXRuJywgJzgnLCAnLW1hJywgJzIwMCcsICctaW1hZScsICc8aW5maWxlLm1hZT4nLCAnLW9tYWUnLCAnPG91dGZpbGUubWFlPic=

>  <r_lp_tautomer_probability>  (62) 
1

>  <r_epik_Ionization_Penalty>  (62) 
5.80975e-08

>  <r_epik_Ionization_Penalty_Charging>  (62) 
0

>  <r_epik_Ionization_Penalty_Neutral>  (62) 
5.80975e-08

>  <r_epik_State_Penalty>  (62) 
-0

>  <r_epik_Charging_Adjusted_Penalty>  (62) 
0

>  <i_epik_Tot_Q>  (62) 
0

>  <i_epik_Tot_abs_Q>  (62) 
0

>  <s_lp_Force_Field>  (62) 
OPLS3e

>  <r_lp_Energy>  (62) 
115.085

>  <b_lp_Chiralities_Consistent>  (62) 
1

>  <s_lp_Variant>  (62) 
14:0-1

>  <s_i_glide_gridfile>  (62) 
pfpi4k_grid

>  <i_i_glide_lignum>  (62) 
27

>  <i_i_glide_rotatable_bonds>  (62) 
1

>  <r_i_docking_score>  (62) 
-4.02698

>  <r_i_glide_ligand_efficiency>  (62) 
-0.309767

>  <r_i_glide_ligand_efficiency_sa>  (62) 
-0.728367

>  <r_i_glide_ligand_efficiency_ln>  (62) 
-1.1296

>  <r_i_glide_gscore>  (62) 
-4.02698

>  <r_i_glide_lipo>  (62) 
-0.422929

>  <r_i_glide_hbond>  (62) 
0

>  <r_i_glide_metal>  (62) 
-0

>  <r_i_glide_rewards>  (62) 
-2.20765

>  <r_i_glide_evdw>  (62) 
-20.1179

>  <r_i_glide_ecoul>  (62) 
-2.60338

>  <r_i_glide_erotb>  (62) 
0

>  <r_i_glide_esite>  (62) 
0

>  <r_i_glide_emodel>  (62) 
-27.9691

>  <r_i_glide_energy>  (62) 
-22.7213

>  <r_i_glide_einternal>  (62) 
1.06274

>  <r_i_glide_intrahb_reward>  (62) 
-0

>  <i_i_glide_confnum>  (62) 
2

>  <i_i_glide_posenum>  (62) 
13

>  <r_i_glide_eff_state_penalty>  (62) 
0

>  <ligand_id>  (62) 
14

>  <original_smiles>  (62) 
OC1C2OC1C1C=CC2C2C=CC21

>  <smiles>  (62) 
[H]OC1([H])C2([H])OC1([H])C1([H])C([H])=C([H])C2([H])C2([H])C([H])=C([H])C12[H]

$$$$
14:0:2
     RDKit          3D

 25 28  0  0  1  0  0  0  0  0999 V2000
    2.2730   -4.7259    0.0934 O   0  0  0  0  0  0  0  0  0  0  0  0
    3.0574   -3.7566   -0.5912 C   0  0  2  0  0  0  0  0  0  0  0  0
    4.5270   -4.1601   -0.9930 C   0  0  2  0  0  0  0  0  0  0  0  0
    4.8538   -3.7100    0.3544 O   0  0  0  0  0  0  0  0  0  0  0  0
    3.7905   -2.7036    0.2440 C   0  0  1  0  0  0  0  0  0  0  0  0
    4.4284   -1.3744   -0.3549 C   0  0  1  0  0  0  0  0  0  0  0  0
    5.9581   -1.6127   -0.3288 C   0  0  0  0  0  0  0  0  0  0  0  0
    6.4457   -2.5353   -1.2066 C   0  0  0  0  0  0  0  0  0  0  0  0
    5.4119   -3.3356   -2.0401 C   0  0  2  0  0  0  0  0  0  0  0  0
    4.3504   -2.4199   -2.6724 C   0  0  2  0  0  0  0  0  0  0  0  0
    4.2121   -1.4261   -3.8015 C   0  0  0  0  0  0  0  0  0  0  0  0
    3.4147   -0.7088   -2.9691 C   0  0  0  0  0  0  0  0  0  0  0  0
    4.3732   -1.1127   -1.8877 C   0  0  1  0  0  0  0  0  0  0  0  0
    2.8830   -5.1992    0.6464 H   0  0  0  0  0  0  0  0  0  0  0  0
    2.3871   -3.2590   -1.2765 H   0  0  0  0  0  0  0  0  0  0  0  0
    4.6250   -5.2351   -1.0707 H   0  0  0  0  0  0  0  0  0  0  0  0
    3.3033   -2.5603    1.1980 H   0  0  0  0  0  0  0  0  0  0  0  0
    4.1632   -0.4881    0.2272 H   0  0  0  0  0  0  0  0  0  0  0  0
    6.5700   -1.0414    0.3433 H   0  0  0  0  0  0  0  0  0  0  0  0
    7.4862   -2.8056   -1.2854 H   0  0  0  0  0  0  0  0  0  0  0  0
    5.8843   -3.9858   -2.7803 H   0  0  0  0  0  0  0  0  0  0  0  0
    3.4421   -3.0090   -2.8690 H   0  0  0  0  0  0  0  0  0  0  0  0
    4.3084   -1.4693   -4.8874 H   0  0  0  0  0  0  0  0  0  0  0  0
    2.6962    0.1107   -3.1040 H   0  0  0  0  0  0  0  0  0  0  0  0
    5.2225   -0.4309   -2.0913 H   0  0  0  0  0  0  0  0  0  0  0  0
  1  2  1  0
  1 14  1  0
  2  5  1  0
  2  3  1  0
  2 15  1  6
  3  9  1  0
  3  4  1  0
  3 16  1  1
  4  5  1  0
  5  6  1  0
  5 17  1  1
  6 13  1  0
  6  7  1  0
  6 18  1  1
  7  8  2  0
  7 19  1  0
  8  9  1  0
  8 20  1  0
  9 10  1  0
  9 21  1  6
 10 13  1  0
 10 11  1  0
 10 22  1  1
 11 12  2  0
 11 23  1  0
 12 13  1  0
 12 24  1  0
 13 25  1  6
M  END
>  <i_m_ct_stereo_status>  (63) 
1

>  <s_m_source_file>  (63) 
/var/tmp/pbs.5076255.sched01/tmp44bw07az/09l6mph0o.sdf

>  <i_m_source_file_index>  (63) 
27

>  <i_lp_mmshare_version>  (63) 
48012

>  <i_f3d_flags>  (63) 
1

>  <s_epik_input>  (63) 
W09IXVtDQEhdMVtDQEBIXShPMilbQ0hdKFtDSF09W0NIXTMpW0NIXShbQ0hdPVtDSF00KVtDSF00W0NIXTNbQ0BIXTEy

>  <s_epik_cmdline>  (63) 
J2VwaWtfcHl0aG9uJywgJy1waHQnLCAnMi4wJywgJy1waCcsICc3LjAnLCAnLXRuJywgJzgnLCAnLW1hJywgJzIwMCcsICctaW1hZScsICc8aW5maWxlLm1hZT4nLCAnLW9tYWUnLCAnPG91dGZpbGUubWFlPic=

>  <r_lp_tautomer_probability>  (63) 
1

>  <r_epik_Ionization_Penalty>  (63) 
5.80975e-08

>  <r_epik_Ionization_Penalty_Charging>  (63) 
0

>  <r_epik_Ionization_Penalty_Neutral>  (63) 
5.80975e-08

>  <r_epik_State_Penalty>  (63) 
-0

>  <r_epik_Charging_Adjusted_Penalty>  (63) 
0

>  <i_epik_Tot_Q>  (63) 
0

>  <i_epik_Tot_abs_Q>  (63) 
0

>  <s_lp_Force_Field>  (63) 
OPLS3e

>  <r_lp_Energy>  (63) 
115.085

>  <b_lp_Chiralities_Consistent>  (63) 
1

>  <s_lp_Variant>  (63) 
14:0-1

>  <s_i_glide_gridfile>  (63) 
pfpi4k_grid

>  <i_i_glide_lignum>  (63) 
27

>  <i_i_glide_rotatable_bonds>  (63) 
1

>  <r_i_docking_score>  (63) 
-3.81006

>  <r_i_glide_ligand_efficiency>  (63) 
-0.293082

>  <r_i_glide_ligand_efficiency_sa>  (63) 
-0.689133

>  <r_i_glide_ligand_efficiency_ln>  (63) 
-1.06876

>  <r_i_glide_gscore>  (63) 
-3.81006

>  <r_i_glide_lipo>  (63) 
-0.43133

>  <r_i_glide_hbond>  (63) 
0

>  <r_i_glide_metal>  (63) 
-0

>  <r_i_glide_rewards>  (63) 
-2.20765

>  <r_i_glide_evdw>  (63) 
-19.9805

>  <r_i_glide_ecoul>  (63) 
-1.14708

>  <r_i_glide_erotb>  (63) 
0

>  <r_i_glide_esite>  (63) 
0

>  <r_i_glide_emodel>  (63) 
-26.5564

>  <r_i_glide_energy>  (63) 
-21.1275

>  <r_i_glide_einternal>  (63) 
0.103085

>  <r_i_glide_intrahb_reward>  (63) 
-0

>  <i_i_glide_confnum>  (63) 
1

>  <i_i_glide_posenum>  (63) 
31

>  <r_i_glide_eff_state_penalty>  (63) 
0

>  <ligand_id>  (63) 
14

>  <original_smiles>  (63) 
OC1C2OC1C1C=CC2C2C=CC21

>  <smiles>  (63) 
[H]OC1([H])C2([H])OC1([H])C1([H])C([H])=C([H])C2([H])C2([H])C([H])=C([H])C12[H]

$$$$
14:1:0
     RDKit          3D

 25 28  0  0  1  0  0  0  0  0999 V2000
    7.9356   -2.6207   -1.3686 O   0  0  0  0  0  0  0  0  0  0  0  0
    6.5288   -2.5404   -1.4545 C   0  0  2  0  0  0  0  0  0  0  0  0
    5.8199   -1.5624   -0.4963 C   0  0  2  0  0  0  0  0  0  0  0  0
    5.8425   -2.6664    0.4554 O   0  0  0  0  0  0  0  0  0  0  0  0
    5.6928   -3.5730   -0.6759 C   0  0  1  0  0  0  0  0  0  0  0  0
    4.1383   -3.8004   -0.9143 C   0  0  1  0  0  0  0  0  0  0  0  0
    3.3759   -3.1706    0.2610 C   0  0  0  0  0  0  0  0  0  0  0  0
    3.4617   -1.8207    0.3809 C   0  0  0  0  0  0  0  0  0  0  0  0
    4.3143   -1.0967   -0.6733 C   0  0  2  0  0  0  0  0  0  0  0  0
    3.5886   -1.5271   -1.9811 C   0  0  1  0  0  0  0  0  0  0  0  0
    4.2502   -1.5476   -3.3436 C   0  0  0  0  0  0  0  0  0  0  0  0
    4.1703   -2.8870   -3.4578 C   0  0  0  0  0  0  0  0  0  0  0  0
    3.4758   -3.0536   -2.1181 C   0  0  1  0  0  0  0  0  0  0  0  0
    8.2504   -3.0560   -2.1502 H   0  0  0  0  0  0  0  0  0  0  0  0
    6.3195   -2.4330   -2.4998 H   0  0  0  0  0  0  0  0  0  0  0  0
    6.4809   -0.7645   -0.1560 H   0  0  0  0  0  0  0  0  0  0  0  0
    6.2458   -4.4929   -0.4929 H   0  0  0  0  0  0  0  0  0  0  0  0
    3.9291   -4.8692   -0.9553 H   0  0  0  0  0  0  0  0  0  0  0  0
    2.8183   -3.7976    0.9364 H   0  0  0  0  0  0  0  0  0  0  0  0
    2.9745   -1.2519    1.1561 H   0  0  0  0  0  0  0  0  0  0  0  0
    4.2359   -0.0194   -0.5204 H   0  0  0  0  0  0  0  0  0  0  0  0
    2.6064   -1.0766   -2.0292 H   0  0  0  0  0  0  0  0  0  0  0  0
    4.6004   -0.7563   -4.0015 H   0  0  0  0  0  0  0  0  0  0  0  0
    4.4341   -3.5895   -4.2449 H   0  0  0  0  0  0  0  0  0  0  0  0
    2.4240   -3.3320   -2.2215 H   0  0  0  0  0  0  0  0  0  0  0  0
  1  2  1  0
  1 14  1  0
  2  5  1  0
  2  3  1  0
  2 15  1  6
  3  9  1  0
  3  4  1  0
  3 16  1  1
  4  5  1  0
  5  6  1  0
  5 17  1  1
  6 13  1  0
  6  7  1  0
  6 18  1  6
  7  8  2  0
  7 19  1  0
  8  9  1  0
  8 20  1  0
  9 10  1  0
  9 21  1  1
 10 13  1  0
 10 11  1  0
 10 22  1  6
 11 12  2  0
 11 23  1  0
 12 13  1  0
 12 24  1  0
 13 25  1  6
M  END
>  <i_m_ct_stereo_status>  (64) 
1

>  <s_m_source_file>  (64) 
/var/tmp/pbs.5076255.sched01/tmp44bw07az/09l6mph0o.sdf

>  <i_m_source_file_index>  (64) 
28

>  <i_lp_mmshare_version>  (64) 
48012

>  <i_f3d_flags>  (64) 
1

>  <s_epik_input>  (64) 
W09IXVtDQEhdMVtDQEBIXShPMilbQ0hdKFtDSF09W0NIXTMpW0NIXShbQ0hdPVtDSF00KVtDSF00W0NIXTNbQ0BIXTEy

>  <s_epik_cmdline>  (64) 
J2VwaWtfcHl0aG9uJywgJy1waHQnLCAnMi4wJywgJy1waCcsICc3LjAnLCAnLXRuJywgJzgnLCAnLW1hJywgJzIwMCcsICctaW1hZScsICc8aW5maWxlLm1hZT4nLCAnLW9tYWUnLCAnPG91dGZpbGUubWFlPic=

>  <r_lp_tautomer_probability>  (64) 
1

>  <r_epik_Ionization_Penalty>  (64) 
5.80975e-08

>  <r_epik_Ionization_Penalty_Charging>  (64) 
0

>  <r_epik_Ionization_Penalty_Neutral>  (64) 
5.80975e-08

>  <r_epik_State_Penalty>  (64) 
-0

>  <r_epik_Charging_Adjusted_Penalty>  (64) 
0

>  <i_epik_Tot_Q>  (64) 
0

>  <i_epik_Tot_abs_Q>  (64) 
0

>  <s_lp_Force_Field>  (64) 
OPLS3e

>  <r_lp_Energy>  (64) 
61.2421

>  <b_lp_Chiralities_Consistent>  (64) 
1

>  <s_lp_Variant>  (64) 
14:0-2

>  <s_i_glide_gridfile>  (64) 
pfpi4k_grid

>  <i_i_glide_lignum>  (64) 
28

>  <i_i_glide_rotatable_bonds>  (64) 
1

>  <r_i_docking_score>  (64) 
-4.06542

>  <r_i_glide_ligand_efficiency>  (64) 
-0.312725

>  <r_i_glide_ligand_efficiency_sa>  (64) 
-0.73532

>  <r_i_glide_ligand_efficiency_ln>  (64) 
-1.14039

>  <r_i_glide_gscore>  (64) 
-4.06542

>  <r_i_glide_lipo>  (64) 
-0.36098

>  <r_i_glide_hbond>  (64) 
0

>  <r_i_glide_metal>  (64) 
-0

>  <r_i_glide_rewards>  (64) 
-2.20765

>  <r_i_glide_evdw>  (64) 
-19.7182

>  <r_i_glide_ecoul>  (64) 
-3.4059

>  <r_i_glide_erotb>  (64) 
0

>  <r_i_glide_esite>  (64) 
0

>  <r_i_glide_emodel>  (64) 
-28.3717

>  <r_i_glide_energy>  (64) 
-23.1241

>  <r_i_glide_einternal>  (64) 
1.20861

>  <r_i_glide_intrahb_reward>  (64) 
-0

>  <i_i_glide_confnum>  (64) 
1

>  <i_i_glide_posenum>  (64) 
32

>  <r_i_glide_eff_state_penalty>  (64) 
0

>  <ligand_id>  (64) 
14

>  <original_smiles>  (64) 
OC1C2OC1C1C=CC2C2C=CC21

>  <smiles>  (64) 
[H]OC1([H])C2([H])OC1([H])C1([H])C([H])=C([H])C2([H])C2([H])C([H])=C([H])C12[H]

$$$$
14:1:1
     RDKit          3D

 25 28  0  0  1  0  0  0  0  0999 V2000
    7.6025   -2.6099   -1.6834 O   0  0  0  0  0  0  0  0  0  0  0  0
    6.2178   -2.3730   -1.8652 C   0  0  2  0  0  0  0  0  0  0  0  0
    5.3556   -2.1148   -0.6298 C   0  0  2  0  0  0  0  0  0  0  0  0
    5.2428   -3.5690   -0.5759 O   0  0  0  0  0  0  0  0  0  0  0  0
    5.2875   -3.5593   -2.0351 C   0  0  1  0  0  0  0  0  0  0  0  0
    3.8168   -3.4568   -2.5972 C   0  0  1  0  0  0  0  0  0  0  0  0
    2.8658   -3.6075   -1.3926 C   0  0  0  0  0  0  0  0  0  0  0  0
    2.9313   -2.6532   -0.4416 C   0  0  0  0  0  0  0  0  0  0  0  0
    3.8999   -1.5095   -0.7162 C   0  0  2  0  0  0  0  0  0  0  0  0
    3.3862   -1.0537   -2.1247 C   0  0  1  0  0  0  0  0  0  0  0  0
    4.2120   -0.2609   -3.1008 C   0  0  0  0  0  0  0  0  0  0  0  0
    4.2082   -1.2316   -4.0165 C   0  0  0  0  0  0  0  0  0  0  0  0
    3.3251   -2.1310   -3.1860 C   0  0  1  0  0  0  0  0  0  0  0  0
    7.9400   -2.9979   -2.4843 H   0  0  0  0  0  0  0  0  0  0  0  0
    6.1035   -1.6602   -2.6312 H   0  0  0  0  0  0  0  0  0  0  0  0
    5.9491   -1.7384    0.2020 H   0  0  0  0  0  0  0  0  0  0  0  0
    5.8137   -4.4221   -2.4038 H   0  0  0  0  0  0  0  0  0  0  0  0
    3.6598   -4.2479   -3.3337 H   0  0  0  0  0  0  0  0  0  0  0  0
    2.2069   -4.4588   -1.3428 H   0  0  0  0  0  0  0  0  0  0  0  0
    2.3053   -2.6470    0.4356 H   0  0  0  0  0  0  0  0  0  0  0  0
    3.7544   -0.7299    0.0302 H   0  0  0  0  0  0  0  0  0  0  0  0
    2.4005   -0.6219   -2.0618 H   0  0  0  0  0  0  0  0  0  0  0  0
    4.5964    0.7542   -3.0753 H   0  0  0  0  0  0  0  0  0  0  0  0
    4.6106   -1.2756   -5.0239 H   0  0  0  0  0  0  0  0  0  0  0  0
    2.3060   -2.2043   -3.5729 H   0  0  0  0  0  0  0  0  0  0  0  0
  1  2  1  0
  1 14  1  0
  2  5  1  0
  2  3  1  0
  2 15  1  6
  3  9  1  0
  3  4  1  0
  3 16  1  1
  4  5  1  0
  5  6  1  0
  5 17  1  6
  6 13  1  0
  6  7  1  0
  6 18  1  6
  7  8  2  0
  7 19  1  0
  8  9  1  0
  8 20  1  0
  9 10  1  0
  9 21  1  1
 10 13  1  0
 10 11  1  0
 10 22  1  1
 11 12  2  0
 11 23  1  0
 12 13  1  0
 12 24  1  0
 13 25  1  6
M  END
>  <i_m_ct_stereo_status>  (65) 
1

>  <s_m_source_file>  (65) 
/var/tmp/pbs.5076255.sched01/tmp44bw07az/09l6mph0o.sdf

>  <i_m_source_file_index>  (65) 
28

>  <i_lp_mmshare_version>  (65) 
48012

>  <i_f3d_flags>  (65) 
1

>  <s_epik_input>  (65) 
W09IXVtDQEhdMVtDQEBIXShPMilbQ0hdKFtDSF09W0NIXTMpW0NIXShbQ0hdPVtDSF00KVtDSF00W0NIXTNbQ0BIXTEy

>  <s_epik_cmdline>  (65) 
J2VwaWtfcHl0aG9uJywgJy1waHQnLCAnMi4wJywgJy1waCcsICc3LjAnLCAnLXRuJywgJzgnLCAnLW1hJywgJzIwMCcsICctaW1hZScsICc8aW5maWxlLm1hZT4nLCAnLW9tYWUnLCAnPG91dGZpbGUubWFlPic=

>  <r_lp_tautomer_probability>  (65) 
1

>  <r_epik_Ionization_Penalty>  (65) 
5.80975e-08

>  <r_epik_Ionization_Penalty_Charging>  (65) 
0

>  <r_epik_Ionization_Penalty_Neutral>  (65) 
5.80975e-08

>  <r_epik_State_Penalty>  (65) 
-0

>  <r_epik_Charging_Adjusted_Penalty>  (65) 
0

>  <i_epik_Tot_Q>  (65) 
0

>  <i_epik_Tot_abs_Q>  (65) 
0

>  <s_lp_Force_Field>  (65) 
OPLS3e

>  <r_lp_Energy>  (65) 
61.2421

>  <b_lp_Chiralities_Consistent>  (65) 
1

>  <s_lp_Variant>  (65) 
14:0-2

>  <s_i_glide_gridfile>  (65) 
pfpi4k_grid

>  <i_i_glide_lignum>  (65) 
28

>  <i_i_glide_rotatable_bonds>  (65) 
1

>  <r_i_docking_score>  (65) 
-3.80026

>  <r_i_glide_ligand_efficiency>  (65) 
-0.292328

>  <r_i_glide_ligand_efficiency_sa>  (65) 
-0.687361

>  <r_i_glide_ligand_efficiency_ln>  (65) 
-1.06601

>  <r_i_glide_gscore>  (65) 
-3.80026

>  <r_i_glide_lipo>  (65) 
-0.486096

>  <r_i_glide_hbond>  (65) 
0

>  <r_i_glide_metal>  (65) 
-0

>  <r_i_glide_rewards>  (65) 
-2.20765

>  <r_i_glide_evdw>  (65) 
-9.19477

>  <r_i_glide_ecoul>  (65) 
-4.31188

>  <r_i_glide_erotb>  (65) 
0

>  <r_i_glide_esite>  (65) 
0

>  <r_i_glide_emodel>  (65) 
-18.3458

>  <r_i_glide_energy>  (65) 
-13.5067

>  <r_i_glide_einternal>  (65) 
0.924838

>  <r_i_glide_intrahb_reward>  (65) 
-0

>  <i_i_glide_confnum>  (65) 
1

>  <i_i_glide_posenum>  (65) 
1

>  <r_i_glide_eff_state_penalty>  (65) 
0

>  <ligand_id>  (65) 
14

>  <original_smiles>  (65) 
OC1C2OC1C1C=CC2C2C=CC21

>  <smiles>  (65) 
[H]OC1([H])C2([H])OC1([H])C1([H])C([H])=C([H])C2([H])C2([H])C([H])=C([H])C12[H]

$$$$
14:2:0
     RDKit          3D

 25 28  0  0  1  0  0  0  0  0999 V2000
   -7.6098  -13.0419   -6.9170 O   0  0  0  0  0  0  0  0  0  0  0  0
   -7.1437  -11.7164   -6.7319 C   0  0  2  0  0  0  0  0  0  0  0  0
   -7.8102  -10.5812   -7.5515 C   0  0  2  0  0  0  0  0  0  0  0  0
   -6.8224  -10.8898   -8.5789 O   0  0  0  0  0  0  0  0  0  0  0  0
   -5.8926  -11.2735   -7.5249 C   0  0  1  0  0  0  0  0  0  0  0  0
   -5.0678  -10.0030   -7.0887 C   0  0  1  0  0  0  0  0  0  0  0  0
   -5.3900   -8.8438   -8.0447 C   0  0  0  0  0  0  0  0  0  0  0  0
   -6.6583   -8.3956   -8.0834 C   0  0  0  0  0  0  0  0  0  0  0  0
   -7.6360   -9.0700   -7.1309 C   0  0  2  0  0  0  0  0  0  0  0  0
   -6.9821   -9.0113   -5.7348 C   0  0  2  0  0  0  0  0  0  0  0  0
   -6.3960   -7.6658   -5.3093 C   0  0  0  0  0  0  0  0  0  0  0  0
   -5.1386   -8.1198   -5.2825 C   0  0  0  0  0  0  0  0  0  0  0  0
   -5.5276   -9.5301   -5.7025 C   0  0  2  0  0  0  0  0  0  0  0  0
   -7.7600  -13.1567   -7.8458 H   0  0  0  0  0  0  0  0  0  0  0  0
   -7.0862  -11.5455   -5.6641 H   0  0  0  0  0  0  0  0  0  0  0  0
   -8.8142  -10.8569   -7.8689 H   0  0  0  0  0  0  0  0  0  0  0  0
   -5.2860  -12.1260   -7.8259 H   0  0  0  0  0  0  0  0  0  0  0  0
   -4.0078  -10.2546   -7.0763 H   0  0  0  0  0  0  0  0  0  0  0  0
   -4.6166   -8.4488   -8.6817 H   0  0  0  0  0  0  0  0  0  0  0  0
   -7.0009   -7.6195   -8.7457 H   0  0  0  0  0  0  0  0  0  0  0  0
   -8.5925   -8.5462   -7.1408 H   0  0  0  0  0  0  0  0  0  0  0  0
   -7.5814   -9.5119   -4.9765 H   0  0  0  0  0  0  0  0  0  0  0  0
   -6.8537   -6.7191   -5.0209 H   0  0  0  0  0  0  0  0  0  0  0  0
   -4.1912   -7.6788   -4.9686 H   0  0  0  0  0  0  0  0  0  0  0  0
   -5.3599  -10.2559   -4.9051 H   0  0  0  0  0  0  0  0  0  0  0  0
  1  2  1  0
  1 14  1  0
  2  5  1  0
  2  3  1  0
  2 15  1  1
  3  9  1  0
  3  4  1  0
  3 16  1  6
  4  5  1  0
  5  6  1  0
  5 17  1  6
  6 13  1  0
  6  7  1  0
  6 18  1  1
  7  8  2  0
  7 19  1  0
  8  9  1  0
  8 20  1  0
  9 10  1  0
  9 21  1  1
 10 13  1  0
 10 11  1  0
 10 22  1  1
 11 12  2  0
 11 23  1  0
 12 13  1  0
 12 24  1  0
 13 25  1  1
M  END
>  <i_m_ct_stereo_status>  (66) 
1

>  <s_m_source_file>  (66) 
/var/tmp/pbs.5076255.sched01/tmp44bw07az/09l6mph0o.sdf

>  <i_m_source_file_index>  (66) 
29

>  <i_lp_mmshare_version>  (66) 
48012

>  <i_f3d_flags>  (66) 
0

>  <s_epik_input>  (66) 
W09IXVtDQEhdMVtDQEBIXShPMilbQ0hdKFtDSF09W0NIXTMpW0NIXShbQ0hdPVtDSF00KVtDSF00W0NIXTNbQ0BIXTEy

>  <s_epik_cmdline>  (66) 
J2VwaWtfcHl0aG9uJywgJy1waHQnLCAnMi4wJywgJy1waCcsICc3LjAnLCAnLXRuJywgJzgnLCAnLW1hJywgJzIwMCcsICctaW1hZScsICc8aW5maWxlLm1hZT4nLCAnLW9tYWUnLCAnPG91dGZpbGUubWFlPic=

>  <r_lp_tautomer_probability>  (66) 
1

>  <r_epik_Ionization_Penalty>  (66) 
5.80975e-08

>  <r_epik_Ionization_Penalty_Charging>  (66) 
0

>  <r_epik_Ionization_Penalty_Neutral>  (66) 
5.80975e-08

>  <r_epik_State_Penalty>  (66) 
-0

>  <r_epik_Charging_Adjusted_Penalty>  (66) 
0

>  <i_epik_Tot_Q>  (66) 
0

>  <i_epik_Tot_abs_Q>  (66) 
0

>  <s_lp_Force_Field>  (66) 
OPLS3e

>  <r_lp_Energy>  (66) 
53.5188

>  <b_lp_Chiralities_Consistent>  (66) 
1

>  <s_lp_Variant>  (66) 
14:0-3

>  <s_i_glide_gridfile>  (66) 
pfpi4k_grid

>  <i_i_glide_lignum>  (66) 
29

>  <i_i_glide_rotatable_bonds>  (66) 
1

>  <r_i_docking_score>  (66) 
-5.13171

>  <r_i_glide_ligand_efficiency>  (66) 
-0.394747

>  <r_i_glide_ligand_efficiency_sa>  (66) 
-0.928182

>  <r_i_glide_ligand_efficiency_ln>  (66) 
-1.43949

>  <r_i_glide_gscore>  (66) 
-5.13171

>  <r_i_glide_lipo>  (66) 
-1.81513

>  <r_i_glide_hbond>  (66) 
0

>  <r_i_glide_metal>  (66) 
-0

>  <r_i_glide_rewards>  (66) 
-2.59626

>  <r_i_glide_evdw>  (66) 
-11.0347

>  <r_i_glide_ecoul>  (66) 
-1.12389

>  <r_i_glide_erotb>  (66) 
0

>  <r_i_glide_esite>  (66) 
0

>  <r_i_glide_emodel>  (66) 
-15.514

>  <r_i_glide_energy>  (66) 
-12.1586

>  <r_i_glide_einternal>  (66) 
0.0369751

>  <r_i_glide_intrahb_reward>  (66) 
-0

>  <i_i_glide_confnum>  (66) 
1

>  <i_i_glide_posenum>  (66) 
2

>  <r_i_glide_eff_state_penalty>  (66) 
0

>  <ligand_id>  (66) 
14

>  <original_smiles>  (66) 
OC1C2OC1C1C=CC2C2C=CC21

>  <smiles>  (66) 
[H]OC1([H])C2([H])OC1([H])C1([H])C([H])=C([H])C2([H])C2([H])C([H])=C([H])C12[H]

$$$$
14:2:1
     RDKit          3D

 25 28  0  0  1  0  0  0  0  0999 V2000
    3.6452   -2.2436    1.1304 O   0  0  0  0  0  0  0  0  0  0  0  0
    3.6616   -2.0575   -0.2746 C   0  0  2  0  0  0  0  0  0  0  0  0
    2.8425   -3.0330   -1.1640 C   0  0  2  0  0  0  0  0  0  0  0  0
    4.0332   -3.8634   -1.1678 O   0  0  0  0  0  0  0  0  0  0  0  0
    4.8396   -2.6615   -1.0719 C   0  0  1  0  0  0  0  0  0  0  0  0
    5.1545   -2.1801   -2.5306 C   0  0  1  0  0  0  0  0  0  0  0  0
    4.6769   -3.2364   -3.5392 C   0  0  0  0  0  0  0  0  0  0  0  0
    3.3575   -3.4569   -3.6042 C   0  0  0  0  0  0  0  0  0  0  0  0
    2.4818   -2.6460   -2.6515 C   0  0  2  0  0  0  0  0  0  0  0  0
    2.8475   -1.1578   -2.8808 C   0  0  2  0  0  0  0  0  0  0  0  0
    2.9148   -0.6932   -4.3207 C   0  0  0  0  0  0  0  0  0  0  0  0
    4.2067   -0.4736   -4.2790 C   0  0  0  0  0  0  0  0  0  0  0  0
    4.3560   -0.8828   -2.8169 C   0  0  2  0  0  0  0  0  0  0  0  0
    2.9163   -1.7273    1.4507 H   0  0  0  0  0  0  0  0  0  0  0  0
    3.4800   -1.0024   -0.4570 H   0  0  0  0  0  0  0  0  0  0  0  0
    2.0358   -3.4924   -0.5998 H   0  0  0  0  0  0  0  0  0  0  0  0
    5.7141   -2.8270   -0.4469 H   0  0  0  0  0  0  0  0  0  0  0  0
    6.2252   -2.0348   -2.6425 H   0  0  0  0  0  0  0  0  0  0  0  0
    5.3997   -3.7841   -4.1144 H   0  0  0  0  0  0  0  0  0  0  0  0
    2.8945   -4.1901   -4.2305 H   0  0  0  0  0  0  0  0  0  0  0  0
    1.4255   -2.8353   -2.8576 H   0  0  0  0  0  0  0  0  0  0  0  0
    2.2614   -0.4524   -2.2959 H   0  0  0  0  0  0  0  0  0  0  0  0
    2.1476   -0.5158   -5.0815 H   0  0  0  0  0  0  0  0  0  0  0  0
    4.8610   -0.0386   -5.0302 H   0  0  0  0  0  0  0  0  0  0  0  0
    4.5818   -0.0472   -2.1499 H   0  0  0  0  0  0  0  0  0  0  0  0
  1  2  1  0
  1 14  1  0
  2  5  1  0
  2  3  1  0
  2 15  1  1
  3  9  1  0
  3  4  1  0
  3 16  1  1
  4  5  1  0
  5  6  1  0
  5 17  1  1
  6 13  1  0
  6  7  1  0
  6 18  1  1
  7  8  2  0
  7 19  1  0
  8  9  1  0
  8 20  1  0
  9 10  1  0
  9 21  1  6
 10 13  1  0
 10 11  1  0
 10 22  1  1
 11 12  2  0
 11 23  1  0
 12 13  1  0
 12 24  1  0
 13 25  1  1
M  END
>  <i_m_ct_stereo_status>  (67) 
1

>  <s_m_source_file>  (67) 
/var/tmp/pbs.5076255.sched01/tmp44bw07az/09l6mph0o.sdf

>  <i_m_source_file_index>  (67) 
29

>  <i_lp_mmshare_version>  (67) 
48012

>  <i_f3d_flags>  (67) 
0

>  <s_epik_input>  (67) 
W09IXVtDQEhdMVtDQEBIXShPMilbQ0hdKFtDSF09W0NIXTMpW0NIXShbQ0hdPVtDSF00KVtDSF00W0NIXTNbQ0BIXTEy

>  <s_epik_cmdline>  (67) 
J2VwaWtfcHl0aG9uJywgJy1waHQnLCAnMi4wJywgJy1waCcsICc3LjAnLCAnLXRuJywgJzgnLCAnLW1hJywgJzIwMCcsICctaW1hZScsICc8aW5maWxlLm1hZT4nLCAnLW9tYWUnLCAnPG91dGZpbGUubWFlPic=

>  <r_lp_tautomer_probability>  (67) 
1

>  <r_epik_Ionization_Penalty>  (67) 
5.80975e-08

>  <r_epik_Ionization_Penalty_Charging>  (67) 
0

>  <r_epik_Ionization_Penalty_Neutral>  (67) 
5.80975e-08

>  <r_epik_State_Penalty>  (67) 
-0

>  <r_epik_Charging_Adjusted_Penalty>  (67) 
0

>  <i_epik_Tot_Q>  (67) 
0

>  <i_epik_Tot_abs_Q>  (67) 
0

>  <s_lp_Force_Field>  (67) 
OPLS3e

>  <r_lp_Energy>  (67) 
53.5188

>  <b_lp_Chiralities_Consistent>  (67) 
1

>  <s_lp_Variant>  (67) 
14:0-3

>  <s_i_glide_gridfile>  (67) 
pfpi4k_grid

>  <i_i_glide_lignum>  (67) 
29

>  <i_i_glide_rotatable_bonds>  (67) 
1

>  <r_i_docking_score>  (67) 
-3.84126

>  <r_i_glide_ligand_efficiency>  (67) 
-0.295482

>  <r_i_glide_ligand_efficiency_sa>  (67) 
-0.694776

>  <r_i_glide_ligand_efficiency_ln>  (67) 
-1.07751

>  <r_i_glide_gscore>  (67) 
-3.84126

>  <r_i_glide_lipo>  (67) 
-0.946918

>  <r_i_glide_hbond>  (67) 
0

>  <r_i_glide_metal>  (67) 
-0

>  <r_i_glide_rewards>  (67) 
-2.20765

>  <r_i_glide_evdw>  (67) 
-12.9227

>  <r_i_glide_ecoul>  (67) 
-0.270417

>  <r_i_glide_erotb>  (67) 
0

>  <r_i_glide_esite>  (67) 
0

>  <r_i_glide_emodel>  (67) 
-15.099

>  <r_i_glide_energy>  (67) 
-13.1931

>  <r_i_glide_einternal>  (67) 
1.0611

>  <r_i_glide_intrahb_reward>  (67) 
-0

>  <i_i_glide_confnum>  (67) 
2

>  <i_i_glide_posenum>  (67) 
18

>  <r_i_glide_eff_state_penalty>  (67) 
0

>  <ligand_id>  (67) 
14

>  <original_smiles>  (67) 
OC1C2OC1C1C=CC2C2C=CC21

>  <smiles>  (67) 
[H]OC1([H])C2([H])OC1([H])C1([H])C([H])=C([H])C2([H])C2([H])C([H])=C([H])C12[H]

$$$$
14:3:0
     RDKit          3D

 25 28  0  0  1  0  0  0  0  0999 V2000
    2.6252    0.2260   -4.2758 O   0  0  0  0  0  0  0  0  0  0  0  0
    2.9983   -0.7063   -3.2824 C   0  0  2  0  0  0  0  0  0  0  0  0
    4.4534   -0.7014   -2.8727 C   0  0  2  0  0  0  0  0  0  0  0  0
    4.6234   -1.5189   -4.0810 O   0  0  0  0  0  0  0  0  0  0  0  0
    3.3451   -2.1297   -3.8067 C   0  0  1  0  0  0  0  0  0  0  0  0
    3.5816   -3.4033   -2.9012 C   0  0  1  0  0  0  0  0  0  0  0  0
    5.1069   -3.6223   -2.8109 C   0  0  0  0  0  0  0  0  0  0  0  0
    5.8508   -2.6435   -2.2311 C   0  0  0  0  0  0  0  0  0  0  0  0
    5.0632   -1.4588   -1.6182 C   0  0  2  0  0  0  0  0  0  0  0  0
    4.1654   -2.3578   -0.7347 C   0  0  1  0  0  0  0  0  0  0  0  0
    3.0774   -2.2669    0.2905 C   0  0  0  0  0  0  0  0  0  0  0  0
    2.6587   -3.4738   -0.2036 C   0  0  0  0  0  0  0  0  0  0  0  0
    3.0114   -2.9325   -1.5639 C   0  0  2  0  0  0  0  0  0  0  0  0
    2.3761    1.0191   -3.7993 H   0  0  0  0  0  0  0  0  0  0  0  0
    2.3538   -0.5503   -2.4286 H   0  0  0  0  0  0  0  0  0  0  0  0
    4.8447    0.2994   -2.9952 H   0  0  0  0  0  0  0  0  0  0  0  0
    2.8196   -2.3647   -4.7109 H   0  0  0  0  0  0  0  0  0  0  0  0
    3.0717   -4.2539   -3.3445 H   0  0  0  0  0  0  0  0  0  0  0  0
    5.5050   -4.5089   -3.2644 H   0  0  0  0  0  0  0  0  0  0  0  0
    6.9248   -2.6775   -2.1587 H   0  0  0  0  0  0  0  0  0  0  0  0
    5.7148   -0.8138   -1.0279 H   0  0  0  0  0  0  0  0  0  0  0  0
    4.8574   -3.0909   -0.2841 H   0  0  0  0  0  0  0  0  0  0  0  0
    2.9410   -1.7253    1.2190 H   0  0  0  0  0  0  0  0  0  0  0  0
    1.9675   -4.2286    0.1443 H   0  0  0  0  0  0  0  0  0  0  0  0
    2.0970   -2.3853   -1.7927 H   0  0  0  0  0  0  0  0  0  0  0  0
  1  2  1  0
  1 14  1  0
  2  5  1  0
  2  3  1  0
  2 15  1  1
  3  9  1  0
  3  4  1  0
  3 16  1  6
  4  5  1  0
  5  6  1  0
  5 17  1  6
  6 13  1  0
  6  7  1  0
  6 18  1  6
  7  8  2  0
  7 19  1  0
  8  9  1  0
  8 20  1  0
  9 10  1  0
  9 21  1  1
 10 13  1  0
 10 11  1  0
 10 22  1  1
 11 12  2  0
 11 23  1  0
 12 13  1  0
 12 24  1  0
 13 25  1  6
M  END
>  <i_m_ct_stereo_status>  (68) 
1

>  <s_m_source_file>  (68) 
/var/tmp/pbs.5076255.sched01/tmp44bw07az/09l6mph0o.sdf

>  <i_m_source_file_index>  (68) 
30

>  <i_lp_mmshare_version>  (68) 
48012

>  <i_f3d_flags>  (68) 
1

>  <s_epik_input>  (68) 
W09IXVtDQEhdMVtDQEBIXShPMilbQ0hdKFtDSF09W0NIXTMpW0NIXShbQ0hdPVtDSF00KVtDSF00W0NIXTNbQ0BIXTEy

>  <s_epik_cmdline>  (68) 
J2VwaWtfcHl0aG9uJywgJy1waHQnLCAnMi4wJywgJy1waCcsICc3LjAnLCAnLXRuJywgJzgnLCAnLW1hJywgJzIwMCcsICctaW1hZScsICc8aW5maWxlLm1hZT4nLCAnLW9tYWUnLCAnPG91dGZpbGUubWFlPic=

>  <r_lp_tautomer_probability>  (68) 
1

>  <r_epik_Ionization_Penalty>  (68) 
5.80975e-08

>  <r_epik_Ionization_Penalty_Charging>  (68) 
0

>  <r_epik_Ionization_Penalty_Neutral>  (68) 
5.80975e-08

>  <r_epik_State_Penalty>  (68) 
-0

>  <r_epik_Charging_Adjusted_Penalty>  (68) 
0

>  <i_epik_Tot_Q>  (68) 
0

>  <i_epik_Tot_abs_Q>  (68) 
0

>  <s_lp_Force_Field>  (68) 
OPLS3e

>  <r_lp_Energy>  (68) 
115.085

>  <b_lp_Chiralities_Consistent>  (68) 
1

>  <s_lp_Variant>  (68) 
14:0-4

>  <s_i_glide_gridfile>  (68) 
pfpi4k_grid

>  <i_i_glide_lignum>  (68) 
30

>  <i_i_glide_rotatable_bonds>  (68) 
1

>  <r_i_docking_score>  (68) 
-4.48618

>  <r_i_glide_ligand_efficiency>  (68) 
-0.345091

>  <r_i_glide_ligand_efficiency_sa>  (68) 
-0.811424

>  <r_i_glide_ligand_efficiency_ln>  (68) 
-1.25841

>  <r_i_glide_gscore>  (68) 
-4.48618

>  <r_i_glide_lipo>  (68) 
-0.431123

>  <r_i_glide_hbond>  (68) 
-0.120086

>  <r_i_glide_metal>  (68) 
-0

>  <r_i_glide_rewards>  (68) 
-2.20765

>  <r_i_glide_evdw>  (68) 
-12.0979

>  <r_i_glide_ecoul>  (68) 
-7.48284

>  <r_i_glide_erotb>  (68) 
0

>  <r_i_glide_esite>  (68) 
0

>  <r_i_glide_emodel>  (68) 
-25.2861

>  <r_i_glide_energy>  (68) 
-19.5808

>  <r_i_glide_einternal>  (68) 
1.03081

>  <r_i_glide_intrahb_reward>  (68) 
-0

>  <i_i_glide_confnum>  (68) 
2

>  <i_i_glide_posenum>  (68) 
4

>  <r_i_glide_eff_state_penalty>  (68) 
0

>  <ligand_id>  (68) 
14

>  <original_smiles>  (68) 
OC1C2OC1C1C=CC2C2C=CC21

>  <smiles>  (68) 
[H]OC1([H])C2([H])OC1([H])C1([H])C([H])=C([H])C2([H])C2([H])C([H])=C([H])C12[H]

$$$$
14:3:1
     RDKit          3D

 25 28  0  0  1  0  0  0  0  0999 V2000
    2.4531   -4.9803    0.5138 O   0  0  0  0  0  0  0  0  0  0  0  0
    3.1050   -4.0250   -0.3124 C   0  0  2  0  0  0  0  0  0  0  0  0
    4.5461   -4.3254   -0.7422 C   0  0  2  0  0  0  0  0  0  0  0  0
    4.9346   -3.7111    0.5294 O   0  0  0  0  0  0  0  0  0  0  0  0
    3.8028   -2.8023    0.3931 C   0  0  1  0  0  0  0  0  0  0  0  0
    4.2929   -1.4934   -0.3952 C   0  0  1  0  0  0  0  0  0  0  0  0
    5.8323   -1.6029   -0.5150 C   0  0  0  0  0  0  0  0  0  0  0  0
    6.3302   -2.6580   -1.2199 C   0  0  0  0  0  0  0  0  0  0  0  0
    5.2961   -3.5686   -1.9235 C   0  0  2  0  0  0  0  0  0  0  0  0
    4.5956   -2.4090   -2.6759 C   0  0  1  0  0  0  0  0  0  0  0  0
    3.5113   -2.1389   -3.6784 C   0  0  0  0  0  0  0  0  0  0  0  0
    3.3837   -0.9340   -3.0589 C   0  0  0  0  0  0  0  0  0  0  0  0
    3.6201   -1.6866   -1.7680 C   0  0  2  0  0  0  0  0  0  0  0  0
    2.6429   -5.8248    0.1286 H   0  0  0  0  0  0  0  0  0  0  0  0
    2.4791   -3.9090   -1.1893 H   0  0  0  0  0  0  0  0  0  0  0  0
    4.7409   -5.3927   -0.7214 H   0  0  0  0  0  0  0  0  0  0  0  0
    3.3602   -2.5998    1.3657 H   0  0  0  0  0  0  0  0  0  0  0  0
    3.9750   -0.5726    0.0983 H   0  0  0  0  0  0  0  0  0  0  0  0
    6.4402   -0.9039    0.0382 H   0  0  0  0  0  0  0  0  0  0  0  0
    7.3787   -2.8717   -1.3231 H   0  0  0  0  0  0  0  0  0  0  0  0
    5.7910   -4.2517   -2.6128 H   0  0  0  0  0  0  0  0  0  0  0  0
    5.4139   -1.8016   -3.0832 H   0  0  0  0  0  0  0  0  0  0  0  0
    3.2444   -2.5289   -4.6657 H   0  0  0  0  0  0  0  0  0  0  0  0
    2.8701    0.0020   -3.3028 H   0  0  0  0  0  0  0  0  0  0  0  0
    2.6040   -2.0317   -1.5869 H   0  0  0  0  0  0  0  0  0  0  0  0
  1  2  1  0
  1 14  1  0
  2  5  1  0
  2  3  1  0
  2 15  1  6
  3  9  1  0
  3  4  1  0
  3 16  1  1
  4  5  1  0
  5  6  1  0
  5 17  1  1
  6 13  1  0
  6  7  1  0
  6 18  1  1
  7  8  2  0
  7 19  1  0
  8  9  1  0
  8 20  1  0
  9 10  1  0
  9 21  1  6
 10 13  1  0
 10 11  1  0
 10 22  1  6
 11 12  2  0
 11 23  1  0
 12 13  1  0
 12 24  1  0
 13 25  1  1
M  END
>  <i_m_ct_stereo_status>  (69) 
1

>  <s_m_source_file>  (69) 
/var/tmp/pbs.5076255.sched01/tmp44bw07az/09l6mph0o.sdf

>  <i_m_source_file_index>  (69) 
30

>  <i_lp_mmshare_version>  (69) 
48012

>  <i_f3d_flags>  (69) 
1

>  <s_epik_input>  (69) 
W09IXVtDQEhdMVtDQEBIXShPMilbQ0hdKFtDSF09W0NIXTMpW0NIXShbQ0hdPVtDSF00KVtDSF00W0NIXTNbQ0BIXTEy

>  <s_epik_cmdline>  (69) 
J2VwaWtfcHl0aG9uJywgJy1waHQnLCAnMi4wJywgJy1waCcsICc3LjAnLCAnLXRuJywgJzgnLCAnLW1hJywgJzIwMCcsICctaW1hZScsICc8aW5maWxlLm1hZT4nLCAnLW9tYWUnLCAnPG91dGZpbGUubWFlPic=

>  <r_lp_tautomer_probability>  (69) 
1

>  <r_epik_Ionization_Penalty>  (69) 
5.80975e-08

>  <r_epik_Ionization_Penalty_Charging>  (69) 
0

>  <r_epik_Ionization_Penalty_Neutral>  (69) 
5.80975e-08

>  <r_epik_State_Penalty>  (69) 
-0

>  <r_epik_Charging_Adjusted_Penalty>  (69) 
0

>  <i_epik_Tot_Q>  (69) 
0

>  <i_epik_Tot_abs_Q>  (69) 
0

>  <s_lp_Force_Field>  (69) 
OPLS3e

>  <r_lp_Energy>  (69) 
115.085

>  <b_lp_Chiralities_Consistent>  (69) 
1

>  <s_lp_Variant>  (69) 
14:0-4

>  <s_i_glide_gridfile>  (69) 
pfpi4k_grid

>  <i_i_glide_lignum>  (69) 
30

>  <i_i_glide_rotatable_bonds>  (69) 
1

>  <r_i_docking_score>  (69) 
-3.96392

>  <r_i_glide_ligand_efficiency>  (69) 
-0.304917

>  <r_i_glide_ligand_efficiency_sa>  (69) 
-0.716962

>  <r_i_glide_ligand_efficiency_ln>  (69) 
-1.11192

>  <r_i_glide_gscore>  (69) 
-3.96392

>  <r_i_glide_lipo>  (69) 
-0.459075

>  <r_i_glide_hbond>  (69) 
0

>  <r_i_glide_metal>  (69) 
-0

>  <r_i_glide_rewards>  (69) 
-2.20765

>  <r_i_glide_evdw>  (69) 
-19.935

>  <r_i_glide_ecoul>  (69) 
-2.00299

>  <r_i_glide_erotb>  (69) 
0

>  <r_i_glide_esite>  (69) 
0

>  <r_i_glide_emodel>  (69) 
-26.9389

>  <r_i_glide_energy>  (69) 
-21.938

>  <r_i_glide_einternal>  (69) 
1.07131

>  <r_i_glide_intrahb_reward>  (69) 
-0

>  <i_i_glide_confnum>  (69) 
1

>  <i_i_glide_posenum>  (69) 
9

>  <r_i_glide_eff_state_penalty>  (69) 
0

>  <ligand_id>  (69) 
14

>  <original_smiles>  (69) 
OC1C2OC1C1C=CC2C2C=CC21

>  <smiles>  (69) 
[H]OC1([H])C2([H])OC1([H])C1([H])C([H])=C([H])C2([H])C2([H])C([H])=C([H])C12[H]

$$$$
14:3:2
     RDKit          3D

 25 28  0  0  1  0  0  0  0  0999 V2000
    2.3824   -4.8369    0.5441 O   0  0  0  0  0  0  0  0  0  0  0  0
    3.0529   -3.9107   -0.2974 C   0  0  2  0  0  0  0  0  0  0  0  0
    4.4720   -4.2665   -0.7498 C   0  0  2  0  0  0  0  0  0  0  0  0
    4.8950   -3.6566    0.5150 O   0  0  0  0  0  0  0  0  0  0  0  0
    3.7997   -2.7029    0.3860 C   0  0  1  0  0  0  0  0  0  0  0  0
    4.3305   -1.4223   -0.4247 C   0  0  1  0  0  0  0  0  0  0  0  0
    5.8625   -1.5915   -0.5595 C   0  0  0  0  0  0  0  0  0  0  0  0
    6.3108   -2.6680   -1.2621 C   0  0  0  0  0  0  0  0  0  0  0  0
    5.2376   -3.5457   -1.9475 C   0  0  2  0  0  0  0  0  0  0  0  0
    4.5818   -2.3658   -2.7048 C   0  0  1  0  0  0  0  0  0  0  0  0
    3.4836   -2.0686   -3.6905 C   0  0  0  0  0  0  0  0  0  0  0  0
    3.4098   -0.8530   -3.0794 C   0  0  0  0  0  0  0  0  0  0  0  0
    3.6368   -1.6056   -1.7860 C   0  0  2  0  0  0  0  0  0  0  0  0
    3.0361   -5.1564    1.1563 H   0  0  0  0  0  0  0  0  0  0  0  0
    2.4110   -3.7773   -1.1594 H   0  0  0  0  0  0  0  0  0  0  0  0
    4.6236   -5.3395   -0.7251 H   0  0  0  0  0  0  0  0  0  0  0  0
    3.3768   -2.4744    1.3598 H   0  0  0  0  0  0  0  0  0  0  0  0
    4.0514   -0.4842    0.0617 H   0  0  0  0  0  0  0  0  0  0  0  0
    6.4987   -0.9066   -0.0231 H   0  0  0  0  0  0  0  0  0  0  0  0
    7.3501   -2.9210   -1.3841 H   0  0  0  0  0  0  0  0  0  0  0  0
    5.6937   -4.2550   -2.6380 H   0  0  0  0  0  0  0  0  0  0  0  0
    5.4190   -1.7923   -3.1160 H   0  0  0  0  0  0  0  0  0  0  0  0
    3.1782   -2.4624   -4.6652 H   0  0  0  0  0  0  0  0  0  0  0  0
    2.9162    0.0935   -3.3229 H   0  0  0  0  0  0  0  0  0  0  0  0
    2.6158   -1.9139   -1.5904 H   0  0  0  0  0  0  0  0  0  0  0  0
  1  2  1  0
  1 14  1  0
  2  5  1  0
  2  3  1  0
  2 15  1  6
  3  9  1  0
  3  4  1  0
  3 16  1  1
  4  5  1  0
  5  6  1  0
  5 17  1  1
  6 13  1  0
  6  7  1  0
  6 18  1  1
  7  8  2  0
  7 19  1  0
  8  9  1  0
  8 20  1  0
  9 10  1  0
  9 21  1  6
 10 13  1  0
 10 11  1  0
 10 22  1  6
 11 12  2  0
 11 23  1  0
 12 13  1  0
 12 24  1  0
 13 25  1  1
M  END
>  <i_m_ct_stereo_status>  (70) 
1

>  <s_m_source_file>  (70) 
/var/tmp/pbs.5076255.sched01/tmp44bw07az/09l6mph0o.sdf

>  <i_m_source_file_index>  (70) 
30

>  <i_lp_mmshare_version>  (70) 
48012

>  <i_f3d_flags>  (70) 
1

>  <s_epik_input>  (70) 
W09IXVtDQEhdMVtDQEBIXShPMilbQ0hdKFtDSF09W0NIXTMpW0NIXShbQ0hdPVtDSF00KVtDSF00W0NIXTNbQ0BIXTEy

>  <s_epik_cmdline>  (70) 
J2VwaWtfcHl0aG9uJywgJy1waHQnLCAnMi4wJywgJy1waCcsICc3LjAnLCAnLXRuJywgJzgnLCAnLW1hJywgJzIwMCcsICctaW1hZScsICc8aW5maWxlLm1hZT4nLCAnLW9tYWUnLCAnPG91dGZpbGUubWFlPic=

>  <r_lp_tautomer_probability>  (70) 
1

>  <r_epik_Ionization_Penalty>  (70) 
5.80975e-08

>  <r_epik_Ionization_Penalty_Charging>  (70) 
0

>  <r_epik_Ionization_Penalty_Neutral>  (70) 
5.80975e-08

>  <r_epik_State_Penalty>  (70) 
-0

>  <r_epik_Charging_Adjusted_Penalty>  (70) 
0

>  <i_epik_Tot_Q>  (70) 
0

>  <i_epik_Tot_abs_Q>  (70) 
0

>  <s_lp_Force_Field>  (70) 
OPLS3e

>  <r_lp_Energy>  (70) 
115.085

>  <b_lp_Chiralities_Consistent>  (70) 
1

>  <s_lp_Variant>  (70) 
14:0-4

>  <s_i_glide_gridfile>  (70) 
pfpi4k_grid

>  <i_i_glide_lignum>  (70) 
30

>  <i_i_glide_rotatable_bonds>  (70) 
1

>  <r_i_docking_score>  (70) 
-3.95963

>  <r_i_glide_ligand_efficiency>  (70) 
-0.304587

>  <r_i_glide_ligand_efficiency_sa>  (70) 
-0.716185

>  <r_i_glide_ligand_efficiency_ln>  (70) 
-1.11071

>  <r_i_glide_gscore>  (70) 
-3.95963

>  <r_i_glide_lipo>  (70) 
-0.476085

>  <r_i_glide_hbond>  (70) 
0

>  <r_i_glide_metal>  (70) 
-0

>  <r_i_glide_rewards>  (70) 
-2.20765

>  <r_i_glide_evdw>  (70) 
-19.7999

>  <r_i_glide_ecoul>  (70) 
-1.90599

>  <r_i_glide_erotb>  (70) 
0

>  <r_i_glide_esite>  (70) 
0

>  <r_i_glide_emodel>  (70) 
-27.1939

>  <r_i_glide_energy>  (70) 
-21.7059

>  <r_i_glide_einternal>  (70) 
0.0772869

>  <r_i_glide_intrahb_reward>  (70) 
-0

>  <i_i_glide_confnum>  (70) 
1

>  <i_i_glide_posenum>  (70) 
1

>  <r_i_glide_eff_state_penalty>  (70) 
0

>  <ligand_id>  (70) 
14

>  <original_smiles>  (70) 
OC1C2OC1C1C=CC2C2C=CC21

>  <smiles>  (70) 
[H]OC1([H])C2([H])OC1([H])C1([H])C([H])=C([H])C2([H])C2([H])C([H])=C([H])C12[H]

$$$$
14:4:0
     RDKit          3D

 25 28  0  0  1  0  0  0  0  0999 V2000
    2.2841   -3.8659   -1.0960 O   0  0  0  0  0  0  0  0  0  0  0  0
    3.4301   -4.0764   -0.2866 C   0  0  1  0  0  0  0  0  0  0  0  0
    4.9303   -4.2155   -0.7684 C   0  0  2  0  0  0  0  0  0  0  0  0
    5.2150   -3.7166    0.5736 O   0  0  0  0  0  0  0  0  0  0  0  0
    4.0046   -2.8868    0.4749 C   0  0  1  0  0  0  0  0  0  0  0  0
    4.4009   -1.4783   -0.1458 C   0  0  1  0  0  0  0  0  0  0  0  0
    5.9450   -1.4556   -0.1169 C   0  0  0  0  0  0  0  0  0  0  0  0
    6.5839   -2.2981   -0.9817 C   0  0  0  0  0  0  0  0  0  0  0  0
    5.6937   -3.2629   -1.8096 C   0  0  2  0  0  0  0  0  0  0  0  0
    4.5177   -2.5287   -2.4562 C   0  0  2  0  0  0  0  0  0  0  0  0
    4.2239   -1.5813   -3.5939 C   0  0  0  0  0  0  0  0  0  0  0  0
    3.2948   -1.0215   -2.7667 C   0  0  0  0  0  0  0  0  0  0  0  0
    4.3092   -1.2352   -1.6792 C   0  0  1  0  0  0  0  0  0  0  0  0
    2.3625   -4.5005   -1.8028 H   0  0  0  0  0  0  0  0  0  0  0  0
    3.2048   -4.8961    0.4066 H   0  0  0  0  0  0  0  0  0  0  0  0
    5.2082   -5.2642   -0.8438 H   0  0  0  0  0  0  0  0  0  0  0  0
    3.5314   -2.8071    1.4493 H   0  0  0  0  0  0  0  0  0  0  0  0
    3.9860   -0.6494    0.4289 H   0  0  0  0  0  0  0  0  0  0  0  0
    6.4566   -0.7799    0.5482 H   0  0  0  0  0  0  0  0  0  0  0  0
    7.6537   -2.3953   -1.0507 H   0  0  0  0  0  0  0  0  0  0  0  0
    6.2732   -3.8332   -2.5383 H   0  0  0  0  0  0  0  0  0  0  0  0
    3.7453   -3.2726   -2.6609 H   0  0  0  0  0  0  0  0  0  0  0  0
    4.3525   -1.6178   -4.6783 H   0  0  0  0  0  0  0  0  0  0  0  0
    2.4708   -0.3215   -2.9153 H   0  0  0  0  0  0  0  0  0  0  0  0
    5.0234   -0.4090   -1.8750 H   0  0  0  0  0  0  0  0  0  0  0  0
  1  2  1  0
  1 14  1  0
  2  5  1  0
  2  3  1  0
  2 15  1  1
  3  9  1  0
  3  4  1  0
  3 16  1  1
  4  5  1  0
  5  6  1  0
  5 17  1  1
  6 13  1  0
  6  7  1  0
  6 18  1  1
  7  8  2  0
  7 19  1  0
  8  9  1  0
  8 20  1  0
  9 10  1  0
  9 21  1  6
 10 13  1  0
 10 11  1  0
 10 22  1  1
 11 12  2  0
 11 23  1  0
 12 13  1  0
 12 24  1  0
 13 25  1  6
M  END
>  <i_m_ct_stereo_status>  (71) 
1

>  <s_m_source_file>  (71) 
/var/tmp/pbs.5076255.sched01/tmp44bw07az/09l6mph0o.sdf

>  <i_m_source_file_index>  (71) 
31

>  <i_lp_mmshare_version>  (71) 
48012

>  <i_f3d_flags>  (71) 
0

>  <s_epik_input>  (71) 
W09IXVtDQEhdMVtDQEBIXShPMilbQ0hdKFtDSF09W0NIXTMpW0NIXShbQ0hdPVtDSF00KVtDSF00W0NIXTNbQ0BIXTEy

>  <s_epik_cmdline>  (71) 
J2VwaWtfcHl0aG9uJywgJy1waHQnLCAnMi4wJywgJy1waCcsICc3LjAnLCAnLXRuJywgJzgnLCAnLW1hJywgJzIwMCcsICctaW1hZScsICc8aW5maWxlLm1hZT4nLCAnLW9tYWUnLCAnPG91dGZpbGUubWFlPic=

>  <r_lp_tautomer_probability>  (71) 
1

>  <r_epik_Ionization_Penalty>  (71) 
5.80975e-08

>  <r_epik_Ionization_Penalty_Charging>  (71) 
0

>  <r_epik_Ionization_Penalty_Neutral>  (71) 
5.80975e-08

>  <r_epik_State_Penalty>  (71) 
-0

>  <r_epik_Charging_Adjusted_Penalty>  (71) 
0

>  <i_epik_Tot_Q>  (71) 
0

>  <i_epik_Tot_abs_Q>  (71) 
0

>  <s_lp_Force_Field>  (71) 
OPLS3e

>  <r_lp_Energy>  (71) 
120.055

>  <b_lp_Chiralities_Consistent>  (71) 
1

>  <s_lp_Variant>  (71) 
14:0-5

>  <s_i_glide_gridfile>  (71) 
pfpi4k_grid

>  <i_i_glide_lignum>  (71) 
31

>  <i_i_glide_rotatable_bonds>  (71) 
1

>  <r_i_docking_score>  (71) 
-4.11169

>  <r_i_glide_ligand_efficiency>  (71) 
-0.316284

>  <r_i_glide_ligand_efficiency_sa>  (71) 
-0.743689

>  <r_i_glide_ligand_efficiency_ln>  (71) 
-1.15337

>  <r_i_glide_gscore>  (71) 
-4.11169

>  <r_i_glide_lipo>  (71) 
-0.449071

>  <r_i_glide_hbond>  (71) 
0

>  <r_i_glide_metal>  (71) 
-0

>  <r_i_glide_rewards>  (71) 
-2.20765

>  <r_i_glide_evdw>  (71) 
-19.7043

>  <r_i_glide_ecoul>  (71) 
-3.13171

>  <r_i_glide_erotb>  (71) 
0

>  <r_i_glide_esite>  (71) 
0

>  <r_i_glide_emodel>  (71) 
-28.1678

>  <r_i_glide_energy>  (71) 
-22.836

>  <r_i_glide_einternal>  (71) 
1.62147

>  <r_i_glide_intrahb_reward>  (71) 
-0

>  <i_i_glide_confnum>  (71) 
2

>  <i_i_glide_posenum>  (71) 
10

>  <r_i_glide_eff_state_penalty>  (71) 
0

>  <ligand_id>  (71) 
14

>  <original_smiles>  (71) 
OC1C2OC1C1C=CC2C2C=CC21

>  <smiles>  (71) 
[H]OC1([H])C2([H])OC1([H])C1([H])C([H])=C([H])C2([H])C2([H])C([H])=C([H])C12[H]

$$$$
14:4:1
     RDKit          3D

 25 28  0  0  1  0  0  0  0  0999 V2000
    1.8938   -3.4547   -1.1528 O   0  0  0  0  0  0  0  0  0  0  0  0
    3.0002   -3.7890   -0.3313 C   0  0  1  0  0  0  0  0  0  0  0  0
    4.4835   -4.1316   -0.7597 C   0  0  2  0  0  0  0  0  0  0  0  0
    4.7879   -3.6289    0.5786 O   0  0  0  0  0  0  0  0  0  0  0  0
    3.6971   -2.6568    0.4177 C   0  0  1  0  0  0  0  0  0  0  0  0
    4.2947   -1.3332   -0.2228 C   0  0  1  0  0  0  0  0  0  0  0  0
    5.8295   -1.5092   -0.1447 C   0  0  0  0  0  0  0  0  0  0  0  0
    6.3804   -2.4501   -0.9623 C   0  0  0  0  0  0  0  0  0  0  0  0
    5.3946   -3.3225   -1.7965 C   0  0  2  0  0  0  0  0  0  0  0  0
    4.3398   -2.4677   -2.4911 C   0  0  2  0  0  0  0  0  0  0  0  0
    4.2116   -1.5274   -3.6620 C   0  0  0  0  0  0  0  0  0  0  0  0
    3.3372   -0.8232   -2.8886 C   0  0  0  0  0  0  0  0  0  0  0  0
    4.2831   -1.1329   -1.7623 C   0  0  1  0  0  0  0  0  0  0  0  0
    1.8082   -2.5115   -1.1321 H   0  0  0  0  0  0  0  0  0  0  0  0
    2.6550   -4.5485    0.3832 H   0  0  0  0  0  0  0  0  0  0  0  0
    4.6217   -5.2089   -0.7878 H   0  0  0  0  0  0  0  0  0  0  0  0
    3.2114   -2.4973    1.3715 H   0  0  0  0  0  0  0  0  0  0  0  0
    3.9773   -0.4407    0.3192 H   0  0  0  0  0  0  0  0  0  0  0  0
    6.4029   -0.8865    0.5254 H   0  0  0  0  0  0  0  0  0  0  0  0
    7.4311   -2.6883   -0.9965 H   0  0  0  0  0  0  0  0  0  0  0  0
    5.9164   -3.9858   -2.4863 H   0  0  0  0  0  0  0  0  0  0  0  0
    3.4812   -3.1105   -2.7040 H   0  0  0  0  0  0  0  0  0  0  0  0
    4.3718   -1.6127   -4.7361 H   0  0  0  0  0  0  0  0  0  0  0  0
    2.6222   -0.0276   -3.1059 H   0  0  0  0  0  0  0  0  0  0  0  0
    5.1055   -0.4149   -1.9566 H   0  0  0  0  0  0  0  0  0  0  0  0
  1  2  1  0
  1 14  1  0
  2  5  1  0
  2  3  1  0
  2 15  1  1
  3  9  1  0
  3  4  1  0
  3 16  1  1
  4  5  1  0
  5  6  1  0
  5 17  1  1
  6 13  1  0
  6  7  1  0
  6 18  1  1
  7  8  2  0
  7 19  1  0
  8  9  1  0
  8 20  1  0
  9 10  1  0
  9 21  1  6
 10 13  1  0
 10 11  1  0
 10 22  1  1
 11 12  2  0
 11 23  1  0
 12 13  1  0
 12 24  1  0
 13 25  1  6
M  END
>  <i_m_ct_stereo_status>  (72) 
1

>  <s_m_source_file>  (72) 
/var/tmp/pbs.5076255.sched01/tmp44bw07az/09l6mph0o.sdf

>  <i_m_source_file_index>  (72) 
31

>  <i_lp_mmshare_version>  (72) 
48012

>  <i_f3d_flags>  (72) 
0

>  <s_epik_input>  (72) 
W09IXVtDQEhdMVtDQEBIXShPMilbQ0hdKFtDSF09W0NIXTMpW0NIXShbQ0hdPVtDSF00KVtDSF00W0NIXTNbQ0BIXTEy

>  <s_epik_cmdline>  (72) 
J2VwaWtfcHl0aG9uJywgJy1waHQnLCAnMi4wJywgJy1waCcsICc3LjAnLCAnLXRuJywgJzgnLCAnLW1hJywgJzIwMCcsICctaW1hZScsICc8aW5maWxlLm1hZT4nLCAnLW9tYWUnLCAnPG91dGZpbGUubWFlPic=

>  <r_lp_tautomer_probability>  (72) 
1

>  <r_epik_Ionization_Penalty>  (72) 
5.80975e-08

>  <r_epik_Ionization_Penalty_Charging>  (72) 
0

>  <r_epik_Ionization_Penalty_Neutral>  (72) 
5.80975e-08

>  <r_epik_State_Penalty>  (72) 
-0

>  <r_epik_Charging_Adjusted_Penalty>  (72) 
0

>  <i_epik_Tot_Q>  (72) 
0

>  <i_epik_Tot_abs_Q>  (72) 
0

>  <s_lp_Force_Field>  (72) 
OPLS3e

>  <r_lp_Energy>  (72) 
120.055

>  <b_lp_Chiralities_Consistent>  (72) 
1

>  <s_lp_Variant>  (72) 
14:0-5

>  <s_i_glide_gridfile>  (72) 
pfpi4k_grid

>  <i_i_glide_lignum>  (72) 
31

>  <i_i_glide_rotatable_bonds>  (72) 
1

>  <r_i_docking_score>  (72) 
-3.95922

>  <r_i_glide_ligand_efficiency>  (72) 
-0.304556

>  <r_i_glide_ligand_efficiency_sa>  (72) 
-0.716112

>  <r_i_glide_ligand_efficiency_ln>  (72) 
-1.1106

>  <r_i_glide_gscore>  (72) 
-3.95922

>  <r_i_glide_lipo>  (72) 
-0.407749

>  <r_i_glide_hbond>  (72) 
0

>  <r_i_glide_metal>  (72) 
-0

>  <r_i_glide_rewards>  (72) 
-2.20765

>  <r_i_glide_evdw>  (72) 
-19.4826

>  <r_i_glide_ecoul>  (72) 
-2.46468

>  <r_i_glide_erotb>  (72) 
0

>  <r_i_glide_esite>  (72) 
0

>  <r_i_glide_emodel>  (72) 
-26.7764

>  <r_i_glide_energy>  (72) 
-21.9472

>  <r_i_glide_einternal>  (72) 
1.60703

>  <r_i_glide_intrahb_reward>  (72) 
-0

>  <i_i_glide_confnum>  (72) 
2

>  <i_i_glide_posenum>  (72) 
11

>  <r_i_glide_eff_state_penalty>  (72) 
0

>  <ligand_id>  (72) 
14

>  <original_smiles>  (72) 
OC1C2OC1C1C=CC2C2C=CC21

>  <smiles>  (72) 
[H]OC1([H])C2([H])OC1([H])C1([H])C([H])=C([H])C2([H])C2([H])C([H])=C([H])C12[H]

$$$$
14:4:2
     RDKit          3D

 25 28  0  0  1  0  0  0  0  0999 V2000
    2.3645   -4.5410   -0.2793 O   0  0  0  0  0  0  0  0  0  0  0  0
    3.2304   -3.9688    0.6765 C   0  0  1  0  0  0  0  0  0  0  0  0
    4.8045   -3.9358    0.6481 C   0  0  2  0  0  0  0  0  0  0  0  0
    4.6221   -2.7743    1.4960 O   0  0  0  0  0  0  0  0  0  0  0  0
    3.4131   -2.4588    0.7340 C   0  0  1  0  0  0  0  0  0  0  0  0
    3.8120   -1.5080   -0.4750 C   0  0  1  0  0  0  0  0  0  0  0  0
    5.2664   -1.0684   -0.1729 C   0  0  0  0  0  0  0  0  0  0  0  0
    6.2262   -2.0389   -0.2870 C   0  0  0  0  0  0  0  0  0  0  0  0
    5.7369   -3.4809   -0.5832 C   0  0  2  0  0  0  0  0  0  0  0  0
    4.7314   -3.5085   -1.7317 C   0  0  2  0  0  0  0  0  0  0  0  0
    4.6735   -3.3804   -3.2317 C   0  0  0  0  0  0  0  0  0  0  0  0
    3.4805   -2.7480   -3.0468 C   0  0  0  0  0  0  0  0  0  0  0  0
    4.1471   -2.0960   -1.8696 C   0  0  1  0  0  0  0  0  0  0  0  0
    2.7777   -4.4067   -1.1232 H   0  0  0  0  0  0  0  0  0  0  0  0
    2.9073   -4.3127    1.6586 H   0  0  0  0  0  0  0  0  0  0  0  0
    5.2083   -4.7700    1.2207 H   0  0  0  0  0  0  0  0  0  0  0  0
    2.6580   -2.0207    1.3881 H   0  0  0  0  0  0  0  0  0  0  0  0
    3.1372   -0.6564   -0.5394 H   0  0  0  0  0  0  0  0  0  0  0  0
    5.4657   -0.0405    0.0965 H   0  0  0  0  0  0  0  0  0  0  0  0
    7.2712   -1.8775   -0.0850 H   0  0  0  0  0  0  0  0  0  0  0  0
    6.5682   -4.1676   -0.7401 H   0  0  0  0  0  0  0  0  0  0  0  0
    4.1583   -4.4189   -1.6194 H   0  0  0  0  0  0  0  0  0  0  0  0
    5.1152   -3.9415   -4.0464 H   0  0  0  0  0  0  0  0  0  0  0  0
    2.6581   -2.4824   -3.7045 H   0  0  0  0  0  0  0  0  0  0  0  0
    4.8029   -1.3447   -2.3431 H   0  0  0  0  0  0  0  0  0  0  0  0
  1  2  1  0
  1 14  1  0
  2  5  1  0
  2  3  1  0
  2 15  1  1
  3  9  1  0
  3  4  1  0
  3 16  1  1
  4  5  1  0
  5  6  1  0
  5 17  1  1
  6 13  1  0
  6  7  1  0
  6 18  1  6
  7  8  2  0
  7 19  1  0
  8  9  1  0
  8 20  1  0
  9 10  1  0
  9 21  1  6
 10 13  1  0
 10 11  1  0
 10 22  1  1
 11 12  2  0
 11 23  1  0
 12 13  1  0
 12 24  1  0
 13 25  1  6
M  END
>  <i_m_ct_stereo_status>  (73) 
1

>  <s_m_source_file>  (73) 
/var/tmp/pbs.5076255.sched01/tmp44bw07az/09l6mph0o.sdf

>  <i_m_source_file_index>  (73) 
31

>  <i_lp_mmshare_version>  (73) 
48012

>  <i_f3d_flags>  (73) 
0

>  <s_epik_input>  (73) 
W09IXVtDQEhdMVtDQEBIXShPMilbQ0hdKFtDSF09W0NIXTMpW0NIXShbQ0hdPVtDSF00KVtDSF00W0NIXTNbQ0BIXTEy

>  <s_epik_cmdline>  (73) 
J2VwaWtfcHl0aG9uJywgJy1waHQnLCAnMi4wJywgJy1waCcsICc3LjAnLCAnLXRuJywgJzgnLCAnLW1hJywgJzIwMCcsICctaW1hZScsICc8aW5maWxlLm1hZT4nLCAnLW9tYWUnLCAnPG91dGZpbGUubWFlPic=

>  <r_lp_tautomer_probability>  (73) 
1

>  <r_epik_Ionization_Penalty>  (73) 
5.80975e-08

>  <r_epik_Ionization_Penalty_Charging>  (73) 
0

>  <r_epik_Ionization_Penalty_Neutral>  (73) 
5.80975e-08

>  <r_epik_State_Penalty>  (73) 
-0

>  <r_epik_Charging_Adjusted_Penalty>  (73) 
0

>  <i_epik_Tot_Q>  (73) 
0

>  <i_epik_Tot_abs_Q>  (73) 
0

>  <s_lp_Force_Field>  (73) 
OPLS3e

>  <r_lp_Energy>  (73) 
120.055

>  <b_lp_Chiralities_Consistent>  (73) 
1

>  <s_lp_Variant>  (73) 
14:0-5

>  <s_i_glide_gridfile>  (73) 
pfpi4k_grid

>  <i_i_glide_lignum>  (73) 
31

>  <i_i_glide_rotatable_bonds>  (73) 
1

>  <r_i_docking_score>  (73) 
-3.83497

>  <r_i_glide_ligand_efficiency>  (73) 
-0.294998

>  <r_i_glide_ligand_efficiency_sa>  (73) 
-0.693638

>  <r_i_glide_ligand_efficiency_ln>  (73) 
-1.07574

>  <r_i_glide_gscore>  (73) 
-3.83497

>  <r_i_glide_lipo>  (73) 
-0.343634

>  <r_i_glide_hbond>  (73) 
0

>  <r_i_glide_metal>  (73) 
-0

>  <r_i_glide_rewards>  (73) 
-2.20765

>  <r_i_glide_evdw>  (73) 
-17.8788

>  <r_i_glide_ecoul>  (73) 
-2.59831

>  <r_i_glide_erotb>  (73) 
0

>  <r_i_glide_esite>  (73) 
0

>  <r_i_glide_emodel>  (73) 
-25.9899

>  <r_i_glide_energy>  (73) 
-20.4771

>  <r_i_glide_einternal>  (73) 
0.372402

>  <r_i_glide_intrahb_reward>  (73) 
-0

>  <i_i_glide_confnum>  (73) 
1

>  <i_i_glide_posenum>  (73) 
9

>  <r_i_glide_eff_state_penalty>  (73) 
0

>  <ligand_id>  (73) 
14

>  <original_smiles>  (73) 
OC1C2OC1C1C=CC2C2C=CC21

>  <smiles>  (73) 
[H]OC1([H])C2([H])OC1([H])C1([H])C([H])=C([H])C2([H])C2([H])C([H])=C([H])C12[H]

$$$$
14:5:0
     RDKit          3D

 25 28  0  0  1  0  0  0  0  0999 V2000
    6.2280   -3.1059   -2.9774 O   0  0  0  0  0  0  0  0  0  0  0  0
    6.2558   -3.0776   -1.5763 C   0  0  1  0  0  0  0  0  0  0  0  0
    5.8101   -1.8797   -0.7212 C   0  0  2  0  0  0  0  0  0  0  0  0
    5.6798   -2.8848    0.3284 O   0  0  0  0  0  0  0  0  0  0  0  0
    5.2262   -3.8149   -0.7010 C   0  0  1  0  0  0  0  0  0  0  0  0
    3.6379   -3.7000   -0.7748 C   0  0  1  0  0  0  0  0  0  0  0  0
    3.1730   -2.8324    0.4088 C   0  0  0  0  0  0  0  0  0  0  0  0
    3.5661   -1.5360    0.3887 C   0  0  0  0  0  0  0  0  0  0  0  0
    4.4279   -1.1075   -0.8131 C   0  0  2  0  0  0  0  0  0  0  0  0
    3.4599   -1.4448   -1.9786 C   0  0  1  0  0  0  0  0  0  0  0  0
    3.8913   -1.6987   -3.4063 C   0  0  0  0  0  0  0  0  0  0  0  0
    3.4981   -2.9890   -3.3837 C   0  0  0  0  0  0  0  0  0  0  0  0
    2.9951   -2.9118   -1.9551 C   0  0  1  0  0  0  0  0  0  0  0  0
    7.1332   -3.0562   -3.2841 H   0  0  0  0  0  0  0  0  0  0  0  0
    7.2573   -3.3827   -1.2574 H   0  0  0  0  0  0  0  0  0  0  0  0
    6.6443   -1.2196   -0.4891 H   0  0  0  0  0  0  0  0  0  0  0  0
    5.5712   -4.8230   -0.4668 H   0  0  0  0  0  0  0  0  0  0  0  0
    3.1950   -4.6910   -0.7025 H   0  0  0  0  0  0  0  0  0  0  0  0
    2.5703   -3.2689    1.1900 H   0  0  0  0  0  0  0  0  0  0  0  0
    3.3061   -0.8125    1.1459 H   0  0  0  0  0  0  0  0  0  0  0  0
    4.6033   -0.0363   -0.7691 H   0  0  0  0  0  0  0  0  0  0  0  0
    2.6120   -0.7757   -1.9468 H   0  0  0  0  0  0  0  0  0  0  0  0
    4.2993   -1.0535   -4.1779 H   0  0  0  0  0  0  0  0  0  0  0  0
    3.4789   -3.7770   -4.1309 H   0  0  0  0  0  0  0  0  0  0  0  0
    1.9051   -2.9451   -1.9048 H   0  0  0  0  0  0  0  0  0  0  0  0
  1  2  1  0
  1 14  1  0
  2  5  1  0
  2  3  1  0
  2 15  1  1
  3  9  1  0
  3  4  1  0
  3 16  1  1
  4  5  1  0
  5  6  1  0
  5 17  1  1
  6 13  1  0
  6  7  1  0
  6 18  1  1
  7  8  2  0
  7 19  1  0
  8  9  1  0
  8 20  1  0
  9 10  1  0
  9 21  1  1
 10 13  1  0
 10 11  1  0
 10 22  1  6
 11 12  2  0
 11 23  1  0
 12 13  1  0
 12 24  1  0
 13 25  1  6
M  END
>  <i_m_ct_stereo_status>  (74) 
1

>  <s_m_source_file>  (74) 
/var/tmp/pbs.5076255.sched01/tmp44bw07az/09l6mph0o.sdf

>  <i_m_source_file_index>  (74) 
32

>  <i_lp_mmshare_version>  (74) 
48012

>  <i_f3d_flags>  (74) 
1

>  <s_epik_input>  (74) 
W09IXVtDQEhdMVtDQEBIXShPMilbQ0hdKFtDSF09W0NIXTMpW0NIXShbQ0hdPVtDSF00KVtDSF00W0NIXTNbQ0BIXTEy

>  <s_epik_cmdline>  (74) 
J2VwaWtfcHl0aG9uJywgJy1waHQnLCAnMi4wJywgJy1waCcsICc3LjAnLCAnLXRuJywgJzgnLCAnLW1hJywgJzIwMCcsICctaW1hZScsICc8aW5maWxlLm1hZT4nLCAnLW9tYWUnLCAnPG91dGZpbGUubWFlPic=

>  <r_lp_tautomer_probability>  (74) 
1

>  <r_epik_Ionization_Penalty>  (74) 
5.80975e-08

>  <r_epik_Ionization_Penalty_Charging>  (74) 
0

>  <r_epik_Ionization_Penalty_Neutral>  (74) 
5.80975e-08

>  <r_epik_State_Penalty>  (74) 
-0

>  <r_epik_Charging_Adjusted_Penalty>  (74) 
0

>  <i_epik_Tot_Q>  (74) 
0

>  <i_epik_Tot_abs_Q>  (74) 
0

>  <s_lp_Force_Field>  (74) 
OPLS3e

>  <r_lp_Energy>  (74) 
70.0673

>  <b_lp_Chiralities_Consistent>  (74) 
1

>  <s_lp_Variant>  (74) 
14:0-6

>  <s_i_glide_gridfile>  (74) 
pfpi4k_grid

>  <i_i_glide_lignum>  (74) 
32

>  <i_i_glide_rotatable_bonds>  (74) 
1

>  <r_i_docking_score>  (74) 
-4.06685

>  <r_i_glide_ligand_efficiency>  (74) 
-0.312835

>  <r_i_glide_ligand_efficiency_sa>  (74) 
-0.73558

>  <r_i_glide_ligand_efficiency_ln>  (74) 
-1.14079

>  <r_i_glide_gscore>  (74) 
-4.06685

>  <r_i_glide_lipo>  (74) 
-0.446003

>  <r_i_glide_hbond>  (74) 
0

>  <r_i_glide_metal>  (74) 
-0

>  <r_i_glide_rewards>  (74) 
-2.20765

>  <r_i_glide_evdw>  (74) 
-18.3345

>  <r_i_glide_ecoul>  (74) 
-3.30988

>  <r_i_glide_erotb>  (74) 
0

>  <r_i_glide_esite>  (74) 
0

>  <r_i_glide_emodel>  (74) 
-26.0756

>  <r_i_glide_energy>  (74) 
-21.6443

>  <r_i_glide_einternal>  (74) 
1.42025

>  <r_i_glide_intrahb_reward>  (74) 
-0

>  <i_i_glide_confnum>  (74) 
1

>  <i_i_glide_posenum>  (74) 
6

>  <r_i_glide_eff_state_penalty>  (74) 
0

>  <ligand_id>  (74) 
14

>  <original_smiles>  (74) 
OC1C2OC1C1C=CC2C2C=CC21

>  <smiles>  (74) 
[H]OC1([H])C2([H])OC1([H])C1([H])C([H])=C([H])C2([H])C2([H])C([H])=C([H])C12[H]

$$$$
14:5:1
     RDKit          3D

 25 28  0  0  1  0  0  0  0  0999 V2000
    5.8195   -3.4576   -3.2392 O   0  0  0  0  0  0  0  0  0  0  0  0
    5.9869   -3.4343   -1.8561 C   0  0  1  0  0  0  0  0  0  0  0  0
    5.7667   -2.1872   -1.0016 C   0  0  2  0  0  0  0  0  0  0  0  0
    5.6249   -3.1603    0.0775 O   0  0  0  0  0  0  0  0  0  0  0  0
    4.9696   -4.0450   -0.8818 C   0  0  1  0  0  0  0  0  0  0  0  0
    3.4057   -3.7447   -0.8140 C   0  0  1  0  0  0  0  0  0  0  0  0
    3.1509   -2.8133    0.3845 C   0  0  0  0  0  0  0  0  0  0  0  0
    3.6876   -1.5705    0.2985 C   0  0  0  0  0  0  0  0  0  0  0  0
    4.4810   -1.2617   -0.9843 C   0  0  2  0  0  0  0  0  0  0  0  0
    3.3867   -1.4975   -2.0529 C   0  0  1  0  0  0  0  0  0  0  0  0
    3.6493   -1.8170   -3.5090 C   0  0  0  0  0  0  0  0  0  0  0  0
    3.1172   -3.0527   -3.4230 C   0  0  0  0  0  0  0  0  0  0  0  0
    2.7640   -2.9027   -1.9559 C   0  0  1  0  0  0  0  0  0  0  0  0
    4.8853   -3.3343   -3.3706 H   0  0  0  0  0  0  0  0  0  0  0  0
    6.9800   -3.8284   -1.6452 H   0  0  0  0  0  0  0  0  0  0  0  0
    6.6954   -1.6289   -0.8837 H   0  0  0  0  0  0  0  0  0  0  0  0
    5.2182   -5.0872   -0.6680 H   0  0  0  0  0  0  0  0  0  0  0  0
    2.8569   -4.6747   -0.6798 H   0  0  0  0  0  0  0  0  0  0  0  0
    2.5820   -3.1685    1.2311 H   0  0  0  0  0  0  0  0  0  0  0  0
    3.5905   -0.8141    1.0639 H   0  0  0  0  0  0  0  0  0  0  0  0
    4.7786   -0.2198   -0.9811 H   0  0  0  0  0  0  0  0  0  0  0  0
    2.6174   -0.7414   -1.9518 H   0  0  0  0  0  0  0  0  0  0  0  0
    4.0441   -1.2238   -4.3292 H   0  0  0  0  0  0  0  0  0  0  0  0
    2.9134   -3.8400   -4.1479 H   0  0  0  0  0  0  0  0  0  0  0  0
    1.6865   -2.8182   -1.8197 H   0  0  0  0  0  0  0  0  0  0  0  0
  1  2  1  0
  1 14  1  0
  2  5  1  0
  2  3  1  0
  2 15  1  6
  3  9  1  0
  3  4  1  0
  3 16  1  1
  4  5  1  0
  5  6  1  0
  5 17  1  1
  6 13  1  0
  6  7  1  0
  6 18  1  1
  7  8  2  0
  7 19  1  0
  8  9  1  0
  8 20  1  0
  9 10  1  0
  9 21  1  1
 10 13  1  0
 10 11  1  0
 10 22  1  6
 11 12  2  0
 11 23  1  0
 12 13  1  0
 12 24  1  0
 13 25  1  6
M  END
>  <i_m_ct_stereo_status>  (75) 
1

>  <s_m_source_file>  (75) 
/var/tmp/pbs.5076255.sched01/tmp44bw07az/09l6mph0o.sdf

>  <i_m_source_file_index>  (75) 
32

>  <i_lp_mmshare_version>  (75) 
48012

>  <i_f3d_flags>  (75) 
1

>  <s_epik_input>  (75) 
W09IXVtDQEhdMVtDQEBIXShPMilbQ0hdKFtDSF09W0NIXTMpW0NIXShbQ0hdPVtDSF00KVtDSF00W0NIXTNbQ0BIXTEy

>  <s_epik_cmdline>  (75) 
J2VwaWtfcHl0aG9uJywgJy1waHQnLCAnMi4wJywgJy1waCcsICc3LjAnLCAnLXRuJywgJzgnLCAnLW1hJywgJzIwMCcsICctaW1hZScsICc8aW5maWxlLm1hZT4nLCAnLW9tYWUnLCAnPG91dGZpbGUubWFlPic=

>  <r_lp_tautomer_probability>  (75) 
1

>  <r_epik_Ionization_Penalty>  (75) 
5.80975e-08

>  <r_epik_Ionization_Penalty_Charging>  (75) 
0

>  <r_epik_Ionization_Penalty_Neutral>  (75) 
5.80975e-08

>  <r_epik_State_Penalty>  (75) 
-0

>  <r_epik_Charging_Adjusted_Penalty>  (75) 
0

>  <i_epik_Tot_Q>  (75) 
0

>  <i_epik_Tot_abs_Q>  (75) 
0

>  <s_lp_Force_Field>  (75) 
OPLS3e

>  <r_lp_Energy>  (75) 
70.0673

>  <b_lp_Chiralities_Consistent>  (75) 
1

>  <s_lp_Variant>  (75) 
14:0-6

>  <s_i_glide_gridfile>  (75) 
pfpi4k_grid

>  <i_i_glide_lignum>  (75) 
32

>  <i_i_glide_rotatable_bonds>  (75) 
1

>  <r_i_docking_score>  (75) 
-3.68902

>  <r_i_glide_ligand_efficiency>  (75) 
-0.283771

>  <r_i_glide_ligand_efficiency_sa>  (75) 
-0.66724

>  <r_i_glide_ligand_efficiency_ln>  (75) 
-1.0348

>  <r_i_glide_gscore>  (75) 
-3.68902

>  <r_i_glide_lipo>  (75) 
-0.565288

>  <r_i_glide_hbond>  (75) 
0

>  <r_i_glide_metal>  (75) 
-0

>  <r_i_glide_rewards>  (75) 
-2.20765

>  <r_i_glide_evdw>  (75) 
-18.2913

>  <r_i_glide_ecoul>  (75) 
-0.0101486

>  <r_i_glide_erotb>  (75) 
0

>  <r_i_glide_esite>  (75) 
0

>  <r_i_glide_emodel>  (75) 
-22.7209

>  <r_i_glide_energy>  (75) 
-18.3014

>  <r_i_glide_einternal>  (75) 
0.301208

>  <r_i_glide_intrahb_reward>  (75) 
-0

>  <i_i_glide_confnum>  (75) 
1

>  <i_i_glide_posenum>  (75) 
17

>  <r_i_glide_eff_state_penalty>  (75) 
0

>  <ligand_id>  (75) 
14

>  <original_smiles>  (75) 
OC1C2OC1C1C=CC2C2C=CC21

>  <smiles>  (75) 
[H]OC1([H])C2([H])OC1([H])C1([H])C([H])=C([H])C2([H])C2([H])C([H])=C([H])C12[H]

$$$$
14:5:2
     RDKit          3D

 25 28  0  0  1  0  0  0  0  0999 V2000
    7.3251   -1.8655   -0.2689 O   0  0  0  0  0  0  0  0  0  0  0  0
    6.6544   -2.8194   -1.0461 C   0  0  1  0  0  0  0  0  0  0  0  0
    5.7858   -3.9389   -0.4484 C   0  0  2  0  0  0  0  0  0  0  0  0
    5.2335   -3.9867   -1.8009 O   0  0  0  0  0  0  0  0  0  0  0  0
    5.3791   -2.5337   -1.8567 C   0  0  1  0  0  0  0  0  0  0  0  0
    4.0025   -1.9170   -1.3311 C   0  0  1  0  0  0  0  0  0  0  0  0
    2.9856   -3.0582   -1.1966 C   0  0  0  0  0  0  0  0  0  0  0  0
    3.2538   -3.9936   -0.2519 C   0  0  0  0  0  0  0  0  0  0  0  0
    4.5477   -3.7924    0.5514 C   0  0  2  0  0  0  0  0  0  0  0  0
    4.2540   -2.4013    1.1824 C   0  0  1  0  0  0  0  0  0  0  0  0
    5.3493   -1.4686    1.6580 C   0  0  0  0  0  0  0  0  0  0  0  0
    5.0784   -0.5402    0.7220 C   0  0  0  0  0  0  0  0  0  0  0  0
    3.9463   -1.3370    0.1126 C   0  0  1  0  0  0  0  0  0  0  0  0
    6.7062   -1.6396    0.4145 H   0  0  0  0  0  0  0  0  0  0  0  0
    7.4022   -3.2591   -1.7087 H   0  0  0  0  0  0  0  0  0  0  0  0
    6.3818   -4.8314   -0.2540 H   0  0  0  0  0  0  0  0  0  0  0  0
    5.6234   -2.2318   -2.8749 H   0  0  0  0  0  0  0  0  0  0  0  0
    3.6332   -1.1795   -2.0450 H   0  0  0  0  0  0  0  0  0  0  0  0
    2.1210   -3.0805   -1.8432 H   0  0  0  0  0  0  0  0  0  0  0  0
    2.6360   -4.8579   -0.0678 H   0  0  0  0  0  0  0  0  0  0  0  0
    4.6174   -4.5494    1.3325 H   0  0  0  0  0  0  0  0  0  0  0  0
    3.4126   -2.4496    1.8788 H   0  0  0  0  0  0  0  0  0  0  0  0
    6.0442   -1.4997    2.4987 H   0  0  0  0  0  0  0  0  0  0  0  0
    5.4707    0.4565    0.5147 H   0  0  0  0  0  0  0  0  0  0  0  0
    2.9679   -0.8979    0.3214 H   0  0  0  0  0  0  0  0  0  0  0  0
  1  2  1  0
  1 14  1  0
  2  5  1  0
  2  3  1  0
  2 15  1  6
  3  9  1  0
  3  4  1  0
  3 16  1  1
  4  5  1  0
  5  6  1  0
  5 17  1  6
  6 13  1  0
  6  7  1  0
  6 18  1  6
  7  8  2  0
  7 19  1  0
  8  9  1  0
  8 20  1  0
  9 10  1  0
  9 21  1  1
 10 13  1  0
 10 11  1  0
 10 22  1  1
 11 12  2  0
 11 23  1  0
 12 13  1  0
 12 24  1  0
 13 25  1  1
M  END
>  <i_m_ct_stereo_status>  (76) 
1

>  <s_m_source_file>  (76) 
/var/tmp/pbs.5076255.sched01/tmp44bw07az/09l6mph0o.sdf

>  <i_m_source_file_index>  (76) 
32

>  <i_lp_mmshare_version>  (76) 
48012

>  <i_f3d_flags>  (76) 
1

>  <s_epik_input>  (76) 
W09IXVtDQEhdMVtDQEBIXShPMilbQ0hdKFtDSF09W0NIXTMpW0NIXShbQ0hdPVtDSF00KVtDSF00W0NIXTNbQ0BIXTEy

>  <s_epik_cmdline>  (76) 
J2VwaWtfcHl0aG9uJywgJy1waHQnLCAnMi4wJywgJy1waCcsICc3LjAnLCAnLXRuJywgJzgnLCAnLW1hJywgJzIwMCcsICctaW1hZScsICc8aW5maWxlLm1hZT4nLCAnLW9tYWUnLCAnPG91dGZpbGUubWFlPic=

>  <r_lp_tautomer_probability>  (76) 
1

>  <r_epik_Ionization_Penalty>  (76) 
5.80975e-08

>  <r_epik_Ionization_Penalty_Charging>  (76) 
0

>  <r_epik_Ionization_Penalty_Neutral>  (76) 
5.80975e-08

>  <r_epik_State_Penalty>  (76) 
-0

>  <r_epik_Charging_Adjusted_Penalty>  (76) 
0

>  <i_epik_Tot_Q>  (76) 
0

>  <i_epik_Tot_abs_Q>  (76) 
0

>  <s_lp_Force_Field>  (76) 
OPLS3e

>  <r_lp_Energy>  (76) 
70.0673

>  <b_lp_Chiralities_Consistent>  (76) 
1

>  <s_lp_Variant>  (76) 
14:0-6

>  <s_i_glide_gridfile>  (76) 
pfpi4k_grid

>  <i_i_glide_lignum>  (76) 
32

>  <i_i_glide_rotatable_bonds>  (76) 
1

>  <r_i_docking_score>  (76) 
-3.67427

>  <r_i_glide_ligand_efficiency>  (76) 
-0.282636

>  <r_i_glide_ligand_efficiency_sa>  (76) 
-0.664572

>  <r_i_glide_ligand_efficiency_ln>  (76) 
-1.03066

>  <r_i_glide_gscore>  (76) 
-3.67427

>  <r_i_glide_lipo>  (76) 
-0.355327

>  <r_i_glide_hbond>  (76) 
0

>  <r_i_glide_metal>  (76) 
-0

>  <r_i_glide_rewards>  (76) 
-2.20765

>  <r_i_glide_evdw>  (76) 
-16.9051

>  <r_i_glide_ecoul>  (76) 
-1.7736

>  <r_i_glide_erotb>  (76) 
0

>  <r_i_glide_esite>  (76) 
0

>  <r_i_glide_emodel>  (76) 
-23.244

>  <r_i_glide_energy>  (76) 
-18.6787

>  <r_i_glide_einternal>  (76) 
0.263829

>  <r_i_glide_intrahb_reward>  (76) 
-0

>  <i_i_glide_confnum>  (76) 
1

>  <i_i_glide_posenum>  (76) 
3

>  <r_i_glide_eff_state_penalty>  (76) 
0

>  <ligand_id>  (76) 
14

>  <original_smiles>  (76) 
OC1C2OC1C1C=CC2C2C=CC21

>  <smiles>  (76) 
[H]OC1([H])C2([H])OC1([H])C1([H])C([H])=C([H])C2([H])C2([H])C([H])=C([H])C12[H]

$$$$
14:6:0
     RDKit          3D

 25 28  0  0  1  0  0  0  0  0999 V2000
    1.9051   -3.8648   -1.3875 O   0  0  0  0  0  0  0  0  0  0  0  0
    3.0507   -3.9113   -0.5697 C   0  0  1  0  0  0  0  0  0  0  0  0
    4.4802   -4.1045   -1.1630 C   0  0  2  0  0  0  0  0  0  0  0  0
    4.9242   -3.4322    0.0529 O   0  0  0  0  0  0  0  0  0  0  0  0
    3.6998   -2.6323    0.0050 C   0  0  1  0  0  0  0  0  0  0  0  0
    3.9937   -1.3512   -0.8492 C   0  0  1  0  0  0  0  0  0  0  0  0
    5.4978   -1.2766   -1.1234 C   0  0  0  0  0  0  0  0  0  0  0  0
    6.0180   -2.2514   -1.9045 C   0  0  0  0  0  0  0  0  0  0  0  0
    5.0353   -3.3132   -2.4115 C   0  0  2  0  0  0  0  0  0  0  0  0
    3.8725   -2.5727   -3.1073 C   0  0  2  0  0  0  0  0  0  0  0  0
    4.2074   -1.4581   -4.0861 C   0  0  0  0  0  0  0  0  0  0  0  0
    3.7483   -0.4828   -3.2898 C   0  0  0  0  0  0  0  0  0  0  0  0
    3.2997   -1.4598   -2.2244 C   0  0  2  0  0  0  0  0  0  0  0  0
    2.0559   -4.5016   -2.0720 H   0  0  0  0  0  0  0  0  0  0  0  0
    2.8793   -4.6575    0.2203 H   0  0  0  0  0  0  0  0  0  0  0  0
    4.7635   -5.1498   -1.1342 H   0  0  0  0  0  0  0  0  0  0  0  0
    3.3310   -2.4425    1.0061 H   0  0  0  0  0  0  0  0  0  0  0  0
    3.6817   -0.4574   -0.3067 H   0  0  0  0  0  0  0  0  0  0  0  0
    6.0585   -0.4832   -0.6717 H   0  0  0  0  0  0  0  0  0  0  0  0
    7.0576   -2.3365   -2.1659 H   0  0  0  0  0  0  0  0  0  0  0  0
    5.5451   -3.9834   -3.1051 H   0  0  0  0  0  0  0  0  0  0  0  0
    3.0889   -3.2329   -3.5054 H   0  0  0  0  0  0  0  0  0  0  0  0
    4.6091   -1.4225   -5.0897 H   0  0  0  0  0  0  0  0  0  0  0  0
    3.6378    0.5883   -3.4303 H   0  0  0  0  0  0  0  0  0  0  0  0
    2.2393   -1.5372   -2.1994 H   0  0  0  0  0  0  0  0  0  0  0  0
  1  2  1  0
  1 14  1  0
  2  5  1  0
  2  3  1  0
  2 15  1  1
  3  9  1  0
  3  4  1  0
  3 16  1  1
  4  5  1  0
  5  6  1  0
  5 17  1  1
  6 13  1  0
  6  7  1  0
  6 18  1  1
  7  8  2  0
  7 19  1  0
  8  9  1  0
  8 20  1  0
  9 10  1  0
  9 21  1  6
 10 13  1  0
 10 11  1  0
 10 22  1  6
 11 12  2  0
 11 23  1  0
 12 13  1  0
 12 24  1  0
 13 25  1  1
M  END
>  <i_m_ct_stereo_status>  (77) 
1

>  <s_m_source_file>  (77) 
/var/tmp/pbs.5076255.sched01/tmp44bw07az/09l6mph0o.sdf

>  <i_m_source_file_index>  (77) 
33

>  <i_lp_mmshare_version>  (77) 
48012

>  <i_f3d_flags>  (77) 
0

>  <s_epik_input>  (77) 
W09IXVtDQEhdMVtDQEBIXShPMilbQ0hdKFtDSF09W0NIXTMpW0NIXShbQ0hdPVtDSF00KVtDSF00W0NIXTNbQ0BIXTEy

>  <s_epik_cmdline>  (77) 
J2VwaWtfcHl0aG9uJywgJy1waHQnLCAnMi4wJywgJy1waCcsICc3LjAnLCAnLXRuJywgJzgnLCAnLW1hJywgJzIwMCcsICctaW1hZScsICc8aW5maWxlLm1hZT4nLCAnLW9tYWUnLCAnPG91dGZpbGUubWFlPic=

>  <r_lp_tautomer_probability>  (77) 
1

>  <r_epik_Ionization_Penalty>  (77) 
5.80975e-08

>  <r_epik_Ionization_Penalty_Charging>  (77) 
0

>  <r_epik_Ionization_Penalty_Neutral>  (77) 
5.80975e-08

>  <r_epik_State_Penalty>  (77) 
-0

>  <r_epik_Charging_Adjusted_Penalty>  (77) 
0

>  <i_epik_Tot_Q>  (77) 
0

>  <i_epik_Tot_abs_Q>  (77) 
0

>  <s_lp_Force_Field>  (77) 
OPLS3e

>  <r_lp_Energy>  (77) 
56.875

>  <b_lp_Chiralities_Consistent>  (77) 
1

>  <s_lp_Variant>  (77) 
14:0-7

>  <s_i_glide_gridfile>  (77) 
pfpi4k_grid

>  <i_i_glide_lignum>  (77) 
33

>  <i_i_glide_rotatable_bonds>  (77) 
1

>  <r_i_docking_score>  (77) 
-4.08029

>  <r_i_glide_ligand_efficiency>  (77) 
-0.313869

>  <r_i_glide_ligand_efficiency_sa>  (77) 
-0.73801

>  <r_i_glide_ligand_efficiency_ln>  (77) 
-1.14456

>  <r_i_glide_gscore>  (77) 
-4.08029

>  <r_i_glide_lipo>  (77) 
-0.462389

>  <r_i_glide_hbond>  (77) 
0

>  <r_i_glide_metal>  (77) 
-0

>  <r_i_glide_rewards>  (77) 
-2.20765

>  <r_i_glide_evdw>  (77) 
-17.2237

>  <r_i_glide_ecoul>  (77) 
-3.66047

>  <r_i_glide_erotb>  (77) 
0

>  <r_i_glide_esite>  (77) 
0

>  <r_i_glide_emodel>  (77) 
-25.1852

>  <r_i_glide_energy>  (77) 
-20.8842

>  <r_i_glide_einternal>  (77) 
1.65163

>  <r_i_glide_intrahb_reward>  (77) 
-0

>  <i_i_glide_confnum>  (77) 
1

>  <i_i_glide_posenum>  (77) 
16

>  <r_i_glide_eff_state_penalty>  (77) 
0

>  <ligand_id>  (77) 
14

>  <original_smiles>  (77) 
OC1C2OC1C1C=CC2C2C=CC21

>  <smiles>  (77) 
[H]OC1([H])C2([H])OC1([H])C1([H])C([H])=C([H])C2([H])C2([H])C([H])=C([H])C12[H]

$$$$
14:6:1
     RDKit          3D

 25 28  0  0  1  0  0  0  0  0999 V2000
    4.6176   -5.8024   -0.2938 O   0  0  0  0  0  0  0  0  0  0  0  0
    5.0418   -4.8879    0.6912 C   0  0  1  0  0  0  0  0  0  0  0  0
    6.0763   -3.7796    0.3905 C   0  0  2  0  0  0  0  0  0  0  0  0
    5.4603   -3.0925    1.5238 O   0  0  0  0  0  0  0  0  0  0  0  0
    4.1790   -3.6806    1.1362 C   0  0  1  0  0  0  0  0  0  0  0  0
    3.4632   -2.6928    0.1300 C   0  0  1  0  0  0  0  0  0  0  0  0
    4.2519   -1.3772    0.0796 C   0  0  0  0  0  0  0  0  0  0  0  0
    5.5059   -1.4462   -0.4116 C   0  0  0  0  0  0  0  0  0  0  0  0
    5.9966   -2.8305   -0.8690 C   0  0  2  0  0  0  0  0  0  0  0  0
    4.9390   -3.3700   -1.8693 C   0  0  2  0  0  0  0  0  0  0  0  0
    4.4545   -2.4061   -2.9415 C   0  0  0  0  0  0  0  0  0  0  0  0
    3.2123   -2.3389   -2.4502 C   0  0  0  0  0  0  0  0  0  0  0  0
    3.5005   -3.2900   -1.2991 C   0  0  2  0  0  0  0  0  0  0  0  0
    4.2372   -5.2923   -0.9976 H   0  0  0  0  0  0  0  0  0  0  0  0
    5.3543   -5.4638    1.5628 H   0  0  0  0  0  0  0  0  0  0  0  0
    7.0855   -4.1157    0.6392 H   0  0  0  0  0  0  0  0  0  0  0  0
    3.5845   -3.9299    2.0183 H   0  0  0  0  0  0  0  0  0  0  0  0
    2.4421   -2.4857    0.4433 H   0  0  0  0  0  0  0  0  0  0  0  0
    3.8059   -0.4735    0.4629 H   0  0  0  0  0  0  0  0  0  0  0  0
    6.1656   -0.5970   -0.4510 H   0  0  0  0  0  0  0  0  0  0  0  0
    6.9707   -2.7377   -1.3456 H   0  0  0  0  0  0  0  0  0  0  0  0
    5.1777   -4.3572   -2.2750 H   0  0  0  0  0  0  0  0  0  0  0  0
    4.9376   -1.9627   -3.8132 H   0  0  0  0  0  0  0  0  0  0  0  0
    2.3046   -1.8202   -2.7617 H   0  0  0  0  0  0  0  0  0  0  0  0
    2.9492   -4.2284   -1.3885 H   0  0  0  0  0  0  0  0  0  0  0  0
  1  2  1  0
  1 14  1  0
  2  5  1  0
  2  3  1  0
  2 15  1  1
  3  9  1  0
  3  4  1  0
  3 16  1  1
  4  5  1  0
  5  6  1  0
  5 17  1  1
  6 13  1  0
  6  7  1  0
  6 18  1  1
  7  8  2  0
  7 19  1  0
  8  9  1  0
  8 20  1  0
  9 10  1  0
  9 21  1  6
 10 13  1  0
 10 11  1  0
 10 22  1  6
 11 12  2  0
 11 23  1  0
 12 13  1  0
 12 24  1  0
 13 25  1  1
M  END
>  <i_m_ct_stereo_status>  (78) 
1

>  <s_m_source_file>  (78) 
/var/tmp/pbs.5076255.sched01/tmp44bw07az/09l6mph0o.sdf

>  <i_m_source_file_index>  (78) 
33

>  <i_lp_mmshare_version>  (78) 
48012

>  <i_f3d_flags>  (78) 
0

>  <s_epik_input>  (78) 
W09IXVtDQEhdMVtDQEBIXShPMilbQ0hdKFtDSF09W0NIXTMpW0NIXShbQ0hdPVtDSF00KVtDSF00W0NIXTNbQ0BIXTEy

>  <s_epik_cmdline>  (78) 
J2VwaWtfcHl0aG9uJywgJy1waHQnLCAnMi4wJywgJy1waCcsICc3LjAnLCAnLXRuJywgJzgnLCAnLW1hJywgJzIwMCcsICctaW1hZScsICc8aW5maWxlLm1hZT4nLCAnLW9tYWUnLCAnPG91dGZpbGUubWFlPic=

>  <r_lp_tautomer_probability>  (78) 
1

>  <r_epik_Ionization_Penalty>  (78) 
5.80975e-08

>  <r_epik_Ionization_Penalty_Charging>  (78) 
0

>  <r_epik_Ionization_Penalty_Neutral>  (78) 
5.80975e-08

>  <r_epik_State_Penalty>  (78) 
-0

>  <r_epik_Charging_Adjusted_Penalty>  (78) 
0

>  <i_epik_Tot_Q>  (78) 
0

>  <i_epik_Tot_abs_Q>  (78) 
0

>  <s_lp_Force_Field>  (78) 
OPLS3e

>  <r_lp_Energy>  (78) 
56.875

>  <b_lp_Chiralities_Consistent>  (78) 
1

>  <s_lp_Variant>  (78) 
14:0-7

>  <s_i_glide_gridfile>  (78) 
pfpi4k_grid

>  <i_i_glide_lignum>  (78) 
33

>  <i_i_glide_rotatable_bonds>  (78) 
1

>  <r_i_docking_score>  (78) 
-3.75444

>  <r_i_glide_ligand_efficiency>  (78) 
-0.288803

>  <r_i_glide_ligand_efficiency_sa>  (78) 
-0.679073

>  <r_i_glide_ligand_efficiency_ln>  (78) 
-1.05315

>  <r_i_glide_gscore>  (78) 
-3.75444

>  <r_i_glide_lipo>  (78) 
-0.414249

>  <r_i_glide_hbond>  (78) 
0

>  <r_i_glide_metal>  (78) 
-0

>  <r_i_glide_rewards>  (78) 
-2.20765

>  <r_i_glide_evdw>  (78) 
-17.6537

>  <r_i_glide_ecoul>  (78) 
-1.66572

>  <r_i_glide_erotb>  (78) 
0

>  <r_i_glide_esite>  (78) 
0

>  <r_i_glide_emodel>  (78) 
-24.1143

>  <r_i_glide_energy>  (78) 
-19.3195

>  <r_i_glide_einternal>  (78) 
0.0467896

>  <r_i_glide_intrahb_reward>  (78) 
-0

>  <i_i_glide_confnum>  (78) 
2

>  <i_i_glide_posenum>  (78) 
36

>  <r_i_glide_eff_state_penalty>  (78) 
0

>  <ligand_id>  (78) 
14

>  <original_smiles>  (78) 
OC1C2OC1C1C=CC2C2C=CC21

>  <smiles>  (78) 
[H]OC1([H])C2([H])OC1([H])C1([H])C([H])=C([H])C2([H])C2([H])C([H])=C([H])C12[H]

$$$$
14:6:2
     RDKit          3D

 25 28  0  0  1  0  0  0  0  0999 V2000
    4.2119   -0.4174   -2.8776 O   0  0  0  0  0  0  0  0  0  0  0  0
    4.2394   -1.8008   -3.1548 C   0  0  1  0  0  0  0  0  0  0  0  0
    5.4118   -2.7020   -2.6758 C   0  0  2  0  0  0  0  0  0  0  0  0
    4.4399   -3.7773   -2.7600 O   0  0  0  0  0  0  0  0  0  0  0  0
    3.4108   -2.8301   -2.3410 C   0  0  1  0  0  0  0  0  0  0  0  0
    3.3313   -2.8605   -0.7669 C   0  0  1  0  0  0  0  0  0  0  0  0
    4.1843   -4.0248   -0.2447 C   0  0  0  0  0  0  0  0  0  0  0  0
    5.5111   -3.9393   -0.4647 C   0  0  0  0  0  0  0  0  0  0  0  0
    6.0044   -2.6917   -1.2148 C   0  0  2  0  0  0  0  0  0  0  0  0
    5.4628   -1.4592   -0.4502 C   0  0  2  0  0  0  0  0  0  0  0  0
    5.6127   -1.4776    1.0637 C   0  0  0  0  0  0  0  0  0  0  0  0
    4.3003   -1.5612    1.2843 C   0  0  0  0  0  0  0  0  0  0  0  0
    3.9431   -1.5598   -0.1942 C   0  0  2  0  0  0  0  0  0  0  0  0
    3.3014   -0.1635   -2.8211 H   0  0  0  0  0  0  0  0  0  0  0  0
    4.0602   -1.9381   -4.2278 H   0  0  0  0  0  0  0  0  0  0  0  0
    6.1550   -2.8239   -3.4568 H   0  0  0  0  0  0  0  0  0  0  0  0
    2.4710   -3.0494   -2.8411 H   0  0  0  0  0  0  0  0  0  0  0  0
    2.2999   -2.9844   -0.4361 H   0  0  0  0  0  0  0  0  0  0  0  0
    3.7074   -4.8582    0.2366 H   0  0  0  0  0  0  0  0  0  0  0  0
    6.2128   -4.6996   -0.1767 H   0  0  0  0  0  0  0  0  0  0  0  0
    7.0940   -2.6940   -1.2397 H   0  0  0  0  0  0  0  0  0  0  0  0
    5.7458   -0.4953   -0.8868 H   0  0  0  0  0  0  0  0  0  0  0  0
    6.4750   -1.3857    1.7317 H   0  0  0  0  0  0  0  0  0  0  0  0
    3.6937   -1.5642    2.1957 H   0  0  0  0  0  0  0  0  0  0  0  0
    3.4039   -0.6544   -0.4913 H   0  0  0  0  0  0  0  0  0  0  0  0
  1  2  1  0
  1 14  1  0
  2  5  1  0
  2  3  1  0
  2 15  1  6
  3  9  1  0
  3  4  1  0
  3 16  1  6
  4  5  1  0
  5  6  1  0
  5 17  1  6
  6 13  1  0
  6  7  1  0
  6 18  1  6
  7  8  2  0
  7 19  1  0
  8  9  1  0
  8 20  1  0
  9 10  1  0
  9 21  1  6
 10 13  1  0
 10 11  1  0
 10 22  1  6
 11 12  2  0
 11 23  1  0
 12 13  1  0
 12 24  1  0
 13 25  1  1
M  END
>  <i_m_ct_stereo_status>  (79) 
1

>  <s_m_source_file>  (79) 
/var/tmp/pbs.5076255.sched01/tmp44bw07az/09l6mph0o.sdf

>  <i_m_source_file_index>  (79) 
33

>  <i_lp_mmshare_version>  (79) 
48012

>  <i_f3d_flags>  (79) 
0

>  <s_epik_input>  (79) 
W09IXVtDQEhdMVtDQEBIXShPMilbQ0hdKFtDSF09W0NIXTMpW0NIXShbQ0hdPVtDSF00KVtDSF00W0NIXTNbQ0BIXTEy

>  <s_epik_cmdline>  (79) 
J2VwaWtfcHl0aG9uJywgJy1waHQnLCAnMi4wJywgJy1waCcsICc3LjAnLCAnLXRuJywgJzgnLCAnLW1hJywgJzIwMCcsICctaW1hZScsICc8aW5maWxlLm1hZT4nLCAnLW9tYWUnLCAnPG91dGZpbGUubWFlPic=

>  <r_lp_tautomer_probability>  (79) 
1

>  <r_epik_Ionization_Penalty>  (79) 
5.80975e-08

>  <r_epik_Ionization_Penalty_Charging>  (79) 
0

>  <r_epik_Ionization_Penalty_Neutral>  (79) 
5.80975e-08

>  <r_epik_State_Penalty>  (79) 
-0

>  <r_epik_Charging_Adjusted_Penalty>  (79) 
0

>  <i_epik_Tot_Q>  (79) 
0

>  <i_epik_Tot_abs_Q>  (79) 
0

>  <s_lp_Force_Field>  (79) 
OPLS3e

>  <r_lp_Energy>  (79) 
56.875

>  <b_lp_Chiralities_Consistent>  (79) 
1

>  <s_lp_Variant>  (79) 
14:0-7

>  <s_i_glide_gridfile>  (79) 
pfpi4k_grid

>  <i_i_glide_lignum>  (79) 
33

>  <i_i_glide_rotatable_bonds>  (79) 
1

>  <r_i_docking_score>  (79) 
-3.57195

>  <r_i_glide_ligand_efficiency>  (79) 
-0.274765

>  <r_i_glide_ligand_efficiency_sa>  (79) 
-0.646065

>  <r_i_glide_ligand_efficiency_ln>  (79) 
-1.00196

>  <r_i_glide_gscore>  (79) 
-3.57195

>  <r_i_glide_lipo>  (79) 
-0.419647

>  <r_i_glide_hbond>  (79) 
0

>  <r_i_glide_metal>  (79) 
-0

>  <r_i_glide_rewards>  (79) 
-2.20765

>  <r_i_glide_evdw>  (79) 
-20.4108

>  <r_i_glide_ecoul>  (79) 
0.505912

>  <r_i_glide_erotb>  (79) 
0

>  <r_i_glide_esite>  (79) 
0

>  <r_i_glide_emodel>  (79) 
-23.7053

>  <r_i_glide_energy>  (79) 
-19.9049

>  <r_i_glide_einternal>  (79) 
1.4721

>  <r_i_glide_intrahb_reward>  (79) 
-0

>  <i_i_glide_confnum>  (79) 
1

>  <i_i_glide_posenum>  (79) 
29

>  <r_i_glide_eff_state_penalty>  (79) 
0

>  <ligand_id>  (79) 
14

>  <original_smiles>  (79) 
OC1C2OC1C1C=CC2C2C=CC21

>  <smiles>  (79) 
[H]OC1([H])C2([H])OC1([H])C1([H])C([H])=C([H])C2([H])C2([H])C([H])=C([H])C12[H]

$$$$
14:7:0
     RDKit          3D

 25 28  0  0  1  0  0  0  0  0999 V2000
    2.9944   -2.2398   -0.0890 O   0  0  0  0  0  0  0  0  0  0  0  0
    3.9848   -1.5574   -0.8234 C   0  0  1  0  0  0  0  0  0  0  0  0
    5.2831   -1.2002   -0.1192 C   0  0  2  0  0  0  0  0  0  0  0  0
    5.8124   -1.0590   -1.4727 O   0  0  0  0  0  0  0  0  0  0  0  0
    4.9718   -2.1558   -1.8912 C   0  0  1  0  0  0  0  0  0  0  0  0
    5.8436   -3.4820   -1.7358 C   0  0  1  0  0  0  0  0  0  0  0  0
    7.2956   -3.0540   -1.3727 C   0  0  0  0  0  0  0  0  0  0  0  0
    7.4714   -2.3726   -0.2041 C   0  0  0  0  0  0  0  0  0  0  0  0
    6.2145   -2.1997    0.6905 C   0  0  2  0  0  0  0  0  0  0  0  0
    5.8906   -3.7193    0.7225 C   0  0  1  0  0  0  0  0  0  0  0  0
    4.9183   -4.6921    1.3306 C   0  0  0  0  0  0  0  0  0  0  0  0
    5.1590   -5.4518    0.2150 C   0  0  0  0  0  0  0  0  0  0  0  0
    5.1484   -4.1510   -0.5469 C   0  0  2  0  0  0  0  0  0  0  0  0
    2.1553   -1.8324   -0.3343 H   0  0  0  0  0  0  0  0  0  0  0  0
    3.5263   -0.6681   -1.2520 H   0  0  0  0  0  0  0  0  0  0  0  0
    5.1946   -0.2193    0.3496 H   0  0  0  0  0  0  0  0  0  0  0  0
    4.6059   -1.9756   -2.8996 H   0  0  0  0  0  0  0  0  0  0  0  0
    5.8141   -4.0928   -2.6395 H   0  0  0  0  0  0  0  0  0  0  0  0
    8.0900   -3.2438   -2.0828 H   0  0  0  0  0  0  0  0  0  0  0  0
    8.4280   -1.9890    0.1302 H   0  0  0  0  0  0  0  0  0  0  0  0
    6.4904   -1.8053    1.6711 H   0  0  0  0  0  0  0  0  0  0  0  0
    6.8601   -4.2067    0.9193 H   0  0  0  0  0  0  0  0  0  0  0  0
    4.5963   -4.9287    2.3313 H   0  0  0  0  0  0  0  0  0  0  0  0
    4.9597   -6.4771   -0.0516 H   0  0  0  0  0  0  0  0  0  0  0  0
    4.0791   -4.0742   -0.7102 H   0  0  0  0  0  0  0  0  0  0  0  0
  1  2  1  0
  1 14  1  0
  2  5  1  0
  2  3  1  0
  2 15  1  6
  3  9  1  0
  3  4  1  0
  3 16  1  1
  4  5  1  0
  5  6  1  0
  5 17  1  6
  6 13  1  0
  6  7  1  0
  6 18  1  6
  7  8  2  0
  7 19  1  0
  8  9  1  0
  8 20  1  0
  9 10  1  0
  9 21  1  1
 10 13  1  0
 10 11  1  0
 10 22  1  6
 11 12  2  0
 11 23  1  0
 12 13  1  0
 12 24  1  0
 13 25  1  1
M  END
>  <i_m_ct_stereo_status>  (80) 
1

>  <s_m_source_file>  (80) 
/var/tmp/pbs.5076255.sched01/tmp44bw07az/09l6mph0o.sdf

>  <i_m_source_file_index>  (80) 
34

>  <i_lp_mmshare_version>  (80) 
48012

>  <i_f3d_flags>  (80) 
1

>  <s_epik_input>  (80) 
W09IXVtDQEhdMVtDQEBIXShPMilbQ0hdKFtDSF09W0NIXTMpW0NIXShbQ0hdPVtDSF00KVtDSF00W0NIXTNbQ0BIXTEy

>  <s_epik_cmdline>  (80) 
J2VwaWtfcHl0aG9uJywgJy1waHQnLCAnMi4wJywgJy1waCcsICc3LjAnLCAnLXRuJywgJzgnLCAnLW1hJywgJzIwMCcsICctaW1hZScsICc8aW5maWxlLm1hZT4nLCAnLW9tYWUnLCAnPG91dGZpbGUubWFlPic=

>  <r_lp_tautomer_probability>  (80) 
1

>  <r_epik_Ionization_Penalty>  (80) 
5.80975e-08

>  <r_epik_Ionization_Penalty_Charging>  (80) 
0

>  <r_epik_Ionization_Penalty_Neutral>  (80) 
5.80975e-08

>  <r_epik_State_Penalty>  (80) 
-0

>  <r_epik_Charging_Adjusted_Penalty>  (80) 
0

>  <i_epik_Tot_Q>  (80) 
0

>  <i_epik_Tot_abs_Q>  (80) 
0

>  <s_lp_Force_Field>  (80) 
OPLS3e

>  <r_lp_Energy>  (80) 
120.115

>  <b_lp_Chiralities_Consistent>  (80) 
1

>  <s_lp_Variant>  (80) 
14:0-8

>  <s_i_glide_gridfile>  (80) 
pfpi4k_grid

>  <i_i_glide_lignum>  (80) 
34

>  <i_i_glide_rotatable_bonds>  (80) 
1

>  <r_i_docking_score>  (80) 
-4.43943

>  <r_i_glide_ligand_efficiency>  (80) 
-0.341494

>  <r_i_glide_ligand_efficiency_sa>  (80) 
-0.802968

>  <r_i_glide_ligand_efficiency_ln>  (80) 
-1.2453

>  <r_i_glide_gscore>  (80) 
-4.43943

>  <r_i_glide_lipo>  (80) 
-0.48298

>  <r_i_glide_hbond>  (80) 
-0.0659184

>  <r_i_glide_metal>  (80) 
-0

>  <r_i_glide_rewards>  (80) 
-2.20765

>  <r_i_glide_evdw>  (80) 
-15.8093

>  <r_i_glide_ecoul>  (80) 
-5.94945

>  <r_i_glide_erotb>  (80) 
0

>  <r_i_glide_esite>  (80) 
0

>  <r_i_glide_emodel>  (80) 
-28.0285

>  <r_i_glide_energy>  (80) 
-21.7588

>  <r_i_glide_einternal>  (80) 
1.45734

>  <r_i_glide_intrahb_reward>  (80) 
-0

>  <i_i_glide_confnum>  (80) 
2

>  <i_i_glide_posenum>  (80) 
12

>  <r_i_glide_eff_state_penalty>  (80) 
0

>  <ligand_id>  (80) 
14

>  <original_smiles>  (80) 
OC1C2OC1C1C=CC2C2C=CC21

>  <smiles>  (80) 
[H]OC1([H])C2([H])OC1([H])C1([H])C([H])=C([H])C2([H])C2([H])C([H])=C([H])C12[H]

$$$$
14:7:1
     RDKit          3D

 25 28  0  0  1  0  0  0  0  0999 V2000
    1.8112   -3.4628   -1.1031 O   0  0  0  0  0  0  0  0  0  0  0  0
    2.8760   -3.6173   -0.1899 C   0  0  1  0  0  0  0  0  0  0  0  0
    4.1794   -4.2183   -0.7044 C   0  0  2  0  0  0  0  0  0  0  0  0
    4.7627   -3.6091    0.4997 O   0  0  0  0  0  0  0  0  0  0  0  0
    3.8453   -2.4881    0.3311 C   0  0  1  0  0  0  0  0  0  0  0  0
    4.5870   -1.3874   -0.5640 C   0  0  1  0  0  0  0  0  0  0  0  0
    6.0500   -1.8578   -0.7488 C   0  0  0  0  0  0  0  0  0  0  0  0
    6.2443   -3.0401   -1.4070 C   0  0  0  0  0  0  0  0  0  0  0  0
    4.9835   -3.7263   -1.9792 C   0  0  2  0  0  0  0  0  0  0  0  0
    4.5179   -2.4790   -2.7761 C   0  0  1  0  0  0  0  0  0  0  0  0
    3.4513   -2.0238   -3.7325 C   0  0  0  0  0  0  0  0  0  0  0  0
    3.6666   -0.7784   -3.2022 C   0  0  0  0  0  0  0  0  0  0  0  0
    3.8107   -1.4863   -1.8767 C   0  0  2  0  0  0  0  0  0  0  0  0
    1.5936   -2.5217   -1.1210 H   0  0  0  0  0  0  0  0  0  0  0  0
    2.5035   -4.2084    0.6584 H   0  0  0  0  0  0  0  0  0  0  0  0
    4.1605   -5.2965   -0.6000 H   0  0  0  0  0  0  0  0  0  0  0  0
    3.5169   -2.1296    1.3014 H   0  0  0  0  0  0  0  0  0  0  0  0
    4.5232   -0.3923   -0.1188 H   0  0  0  0  0  0  0  0  0  0  0  0
    6.8352   -1.2957   -0.2803 H   0  0  0  0  0  0  0  0  0  0  0  0
    7.2126   -3.4848   -1.5530 H   0  0  0  0  0  0  0  0  0  0  0  0
    5.2455   -4.5599   -2.6326 H   0  0  0  0  0  0  0  0  0  0  0  0
    5.4276   -2.1240   -3.2881 H   0  0  0  0  0  0  0  0  0  0  0  0
    3.0358   -2.3926   -4.6712 H   0  0  0  0  0  0  0  0  0  0  0  0
    3.3724    0.2326   -3.4974 H   0  0  0  0  0  0  0  0  0  0  0  0
    2.7532   -1.5268   -1.6152 H   0  0  0  0  0  0  0  0  0  0  0  0
  1  2  1  0
  1 14  1  0
  2  5  1  0
  2  3  1  0
  2 15  1  1
  3  9  1  0
  3  4  1  0
  3 16  1  1
  4  5  1  0
  5  6  1  0
  5 17  1  1
  6 13  1  0
  6  7  1  0
  6 18  1  1
  7  8  2  0
  7 19  1  0
  8  9  1  0
  8 20  1  0
  9 10  1  0
  9 21  1  6
 10 13  1  0
 10 11  1  0
 10 22  1  6
 11 12  2  0
 11 23  1  0
 12 13  1  0
 12 24  1  0
 13 25  1  1
M  END
>  <i_m_ct_stereo_status>  (81) 
1

>  <s_m_source_file>  (81) 
/var/tmp/pbs.5076255.sched01/tmp44bw07az/09l6mph0o.sdf

>  <i_m_source_file_index>  (81) 
34

>  <i_lp_mmshare_version>  (81) 
48012

>  <i_f3d_flags>  (81) 
1

>  <s_epik_input>  (81) 
W09IXVtDQEhdMVtDQEBIXShPMilbQ0hdKFtDSF09W0NIXTMpW0NIXShbQ0hdPVtDSF00KVtDSF00W0NIXTNbQ0BIXTEy

>  <s_epik_cmdline>  (81) 
J2VwaWtfcHl0aG9uJywgJy1waHQnLCAnMi4wJywgJy1waCcsICc3LjAnLCAnLXRuJywgJzgnLCAnLW1hJywgJzIwMCcsICctaW1hZScsICc8aW5maWxlLm1hZT4nLCAnLW9tYWUnLCAnPG91dGZpbGUubWFlPic=

>  <r_lp_tautomer_probability>  (81) 
1

>  <r_epik_Ionization_Penalty>  (81) 
5.80975e-08

>  <r_epik_Ionization_Penalty_Charging>  (81) 
0

>  <r_epik_Ionization_Penalty_Neutral>  (81) 
5.80975e-08

>  <r_epik_State_Penalty>  (81) 
-0

>  <r_epik_Charging_Adjusted_Penalty>  (81) 
0

>  <i_epik_Tot_Q>  (81) 
0

>  <i_epik_Tot_abs_Q>  (81) 
0

>  <s_lp_Force_Field>  (81) 
OPLS3e

>  <r_lp_Energy>  (81) 
120.115

>  <b_lp_Chiralities_Consistent>  (81) 
1

>  <s_lp_Variant>  (81) 
14:0-8

>  <s_i_glide_gridfile>  (81) 
pfpi4k_grid

>  <i_i_glide_lignum>  (81) 
34

>  <i_i_glide_rotatable_bonds>  (81) 
1

>  <r_i_docking_score>  (81) 
-4.23499

>  <r_i_glide_ligand_efficiency>  (81) 
-0.325769

>  <r_i_glide_ligand_efficiency_sa>  (81) 
-0.765991

>  <r_i_glide_ligand_efficiency_ln>  (81) 
-1.18795

>  <r_i_glide_gscore>  (81) 
-4.23499

>  <r_i_glide_lipo>  (81) 
-0.496609

>  <r_i_glide_hbond>  (81) 
0

>  <r_i_glide_metal>  (81) 
-0

>  <r_i_glide_rewards>  (81) 
-2.20765

>  <r_i_glide_evdw>  (81) 
-19.1462

>  <r_i_glide_ecoul>  (81) 
-3.82285

>  <r_i_glide_erotb>  (81) 
0

>  <r_i_glide_esite>  (81) 
0

>  <r_i_glide_emodel>  (81) 
-28.6016

>  <r_i_glide_energy>  (81) 
-22.969

>  <r_i_glide_einternal>  (81) 
1.83799

>  <r_i_glide_intrahb_reward>  (81) 
-0

>  <i_i_glide_confnum>  (81) 
2

>  <i_i_glide_posenum>  (81) 
1

>  <r_i_glide_eff_state_penalty>  (81) 
0

>  <ligand_id>  (81) 
14

>  <original_smiles>  (81) 
OC1C2OC1C1C=CC2C2C=CC21

>  <smiles>  (81) 
[H]OC1([H])C2([H])OC1([H])C1([H])C([H])=C([H])C2([H])C2([H])C([H])=C([H])C12[H]

$$$$
14:7:2
     RDKit          3D

 25 28  0  0  1  0  0  0  0  0999 V2000
    1.8143   -3.8939   -1.1204 O   0  0  0  0  0  0  0  0  0  0  0  0
    2.7996   -3.7397   -0.1157 C   0  0  1  0  0  0  0  0  0  0  0  0
    4.2130   -4.2161   -0.4211 C   0  0  2  0  0  0  0  0  0  0  0  0
    4.5870   -3.3619    0.7150 O   0  0  0  0  0  0  0  0  0  0  0  0
    3.5585   -2.4162    0.2901 C   0  0  1  0  0  0  0  0  0  0  0  0
    4.2400   -1.3638   -0.7117 C   0  0  1  0  0  0  0  0  0  0  0  0
    5.7658   -1.6373   -0.6978 C   0  0  0  0  0  0  0  0  0  0  0  0
    6.1760   -2.8653   -1.1334 C   0  0  0  0  0  0  0  0  0  0  0  0
    5.0721   -3.7939   -1.6910 C   0  0  2  0  0  0  0  0  0  0  0  0
    4.5484   -2.7593   -2.7215 C   0  0  1  0  0  0  0  0  0  0  0  0
    3.5300   -2.6159   -3.8184 C   0  0  0  0  0  0  0  0  0  0  0  0
    3.5248   -1.2894   -3.4835 C   0  0  0  0  0  0  0  0  0  0  0  0
    3.6173   -1.7634   -2.0530 C   0  0  2  0  0  0  0  0  0  0  0  0
    2.2303   -4.3576   -1.8447 H   0  0  0  0  0  0  0  0  0  0  0  0
    2.4288   -4.2349    0.7851 H   0  0  0  0  0  0  0  0  0  0  0  0
    4.3281   -5.2636   -0.1522 H   0  0  0  0  0  0  0  0  0  0  0  0
    3.0900   -1.9548    1.1591 H   0  0  0  0  0  0  0  0  0  0  0  0
    4.0128   -0.3352   -0.4318 H   0  0  0  0  0  0  0  0  0  0  0  0
    6.4222   -0.9002   -0.2684 H   0  0  0  0  0  0  0  0  0  0  0  0
    7.2037   -3.1953   -1.1244 H   0  0  0  0  0  0  0  0  0  0  0  0
    5.4972   -4.6538   -2.1930 H   0  0  0  0  0  0  0  0  0  0  0  0
    5.4647   -2.3561   -3.1950 H   0  0  0  0  0  0  0  0  0  0  0  0
    3.2754   -3.1830   -4.7138 H   0  0  0  0  0  0  0  0  0  0  0  0
    3.1398   -0.3833   -3.9550 H   0  0  0  0  0  0  0  0  0  0  0  0
    2.5605   -1.9369   -1.8643 H   0  0  0  0  0  0  0  0  0  0  0  0
  1  2  1  0
  1 14  1  0
  2  5  1  0
  2  3  1  0
  2 15  1  1
  3  9  1  0
  3  4  1  0
  3 16  1  1
  4  5  1  0
  5  6  1  0
  5 17  1  1
  6 13  1  0
  6  7  1  0
  6 18  1  1
  7  8  2  0
  7 19  1  0
  8  9  1  0
  8 20  1  0
  9 10  1  0
  9 21  1  6
 10 13  1  0
 10 11  1  0
 10 22  1  6
 11 12  2  0
 11 23  1  0
 12 13  1  0
 12 24  1  0
 13 25  1  1
M  END
>  <i_m_ct_stereo_status>  (82) 
1

>  <s_m_source_file>  (82) 
/var/tmp/pbs.5076255.sched01/tmp44bw07az/09l6mph0o.sdf

>  <i_m_source_file_index>  (82) 
34

>  <i_lp_mmshare_version>  (82) 
48012

>  <i_f3d_flags>  (82) 
1

>  <s_epik_input>  (82) 
W09IXVtDQEhdMVtDQEBIXShPMilbQ0hdKFtDSF09W0NIXTMpW0NIXShbQ0hdPVtDSF00KVtDSF00W0NIXTNbQ0BIXTEy

>  <s_epik_cmdline>  (82) 
J2VwaWtfcHl0aG9uJywgJy1waHQnLCAnMi4wJywgJy1waCcsICc3LjAnLCAnLXRuJywgJzgnLCAnLW1hJywgJzIwMCcsICctaW1hZScsICc8aW5maWxlLm1hZT4nLCAnLW9tYWUnLCAnPG91dGZpbGUubWFlPic=

>  <r_lp_tautomer_probability>  (82) 
1

>  <r_epik_Ionization_Penalty>  (82) 
5.80975e-08

>  <r_epik_Ionization_Penalty_Charging>  (82) 
0

>  <r_epik_Ionization_Penalty_Neutral>  (82) 
5.80975e-08

>  <r_epik_State_Penalty>  (82) 
-0

>  <r_epik_Charging_Adjusted_Penalty>  (82) 
0

>  <i_epik_Tot_Q>  (82) 
0

>  <i_epik_Tot_abs_Q>  (82) 
0

>  <s_lp_Force_Field>  (82) 
OPLS3e

>  <r_lp_Energy>  (82) 
120.115

>  <b_lp_Chiralities_Consistent>  (82) 
1

>  <s_lp_Variant>  (82) 
14:0-8

>  <s_i_glide_gridfile>  (82) 
pfpi4k_grid

>  <i_i_glide_lignum>  (82) 
34

>  <i_i_glide_rotatable_bonds>  (82) 
1

>  <r_i_docking_score>  (82) 
-4.1446

>  <r_i_glide_ligand_efficiency>  (82) 
-0.318815

>  <r_i_glide_ligand_efficiency_sa>  (82) 
-0.749642

>  <r_i_glide_ligand_efficiency_ln>  (82) 
-1.1626

>  <r_i_glide_gscore>  (82) 
-4.1446

>  <r_i_glide_lipo>  (82) 
-0.41828

>  <r_i_glide_hbond>  (82) 
0

>  <r_i_glide_metal>  (82) 
-0

>  <r_i_glide_rewards>  (82) 
-2.20765

>  <r_i_glide_evdw>  (82) 
-20.0581

>  <r_i_glide_ecoul>  (82) 
-3.43847

>  <r_i_glide_erotb>  (82) 
0

>  <r_i_glide_esite>  (82) 
0

>  <r_i_glide_emodel>  (82) 
-29.0369

>  <r_i_glide_energy>  (82) 
-23.4965

>  <r_i_glide_einternal>  (82) 
1.66047

>  <r_i_glide_intrahb_reward>  (82) 
-0

>  <i_i_glide_confnum>  (82) 
2

>  <i_i_glide_posenum>  (82) 
10

>  <r_i_glide_eff_state_penalty>  (82) 
0

>  <ligand_id>  (82) 
14

>  <original_smiles>  (82) 
OC1C2OC1C1C=CC2C2C=CC21

>  <smiles>  (82) 
[H]OC1([H])C2([H])OC1([H])C1([H])C([H])=C([H])C2([H])C2([H])C([H])=C([H])C12[H]

$$$$
15:0:0
     RDKit          3D

 41 45  0  0  1  0  0  0  0  0999 V2000
    3.1754   -1.1174   -3.2253 C   0  0  0  0  0  0  0  0  0  0  0  0
    2.9821   -2.1064   -2.1469 N   0  0  1  0  0  0  0  0  0  0  0  0
    3.4150   -3.4592   -2.5191 C   0  0  0  0  0  0  0  0  0  0  0  0
    4.9225   -3.6366   -2.3260 C   0  0  0  0  0  0  0  0  0  0  0  0
    5.4215   -3.1660   -0.9340 C   0  0  1  0  0  0  0  0  0  0  0  0
    4.8403   -3.9949    0.1760 C   0  0  0  0  0  0  0  0  0  0  0  0
    3.5637   -3.8358    0.7446 C   0  0  0  0  0  0  0  0  0  0  0  0
    3.2131   -4.7211    1.7825 C   0  0  0  0  0  0  0  0  0  0  0  0
    4.1482   -5.7121    2.1844 C   0  0  0  0  0  0  0  0  0  0  0  0
    5.4498   -5.7670    1.6236 C   0  0  0  0  0  0  0  0  0  0  0  0
    6.3587   -6.6788    2.0738 O   0  0  0  0  0  0  0  0  0  0  0  0
    5.8348   -4.8408    0.6230 C   0  0  0  0  0  0  0  0  0  0  0  0
    7.0626   -4.5651    0.0964 O   0  0  0  0  0  0  0  0  0  0  0  0
    6.9387   -3.5217   -0.8507 C   0  0  2  0  0  0  0  0  0  0  0  0
    7.8928   -2.4872   -0.5648 N   0  0  0  0  0  0  0  0  0  0  0  0
    7.9260   -1.6224    0.4679 C   0  0  0  0  0  0  0  0  0  0  0  0
    9.0149   -1.1281    0.7132 O   0  0  0  0  0  0  0  0  0  0  0  0
    6.7090   -1.1816    1.1122 C   0  0  0  0  0  0  0  0  0  0  0  0
    5.4754   -1.1475    0.5853 C   0  0  0  0  0  0  0  0  0  0  0  0
    5.0168   -1.7008   -0.7395 C   0  0  2  0  0  0  0  0  0  0  0  0
    3.4640   -1.6943   -0.8031 C   0  0  2  0  0  0  0  0  0  0  0  0
    2.8077   -2.5878    0.2924 C   0  0  0  0  0  0  0  0  0  0  0  0
    4.2281   -1.0173   -3.4757 H   0  0  0  0  0  0  0  0  0  0  0  0
    2.7919   -0.1441   -2.9291 H   0  0  0  0  0  0  0  0  0  0  0  0
    2.6405   -1.4177   -4.1283 H   0  0  0  0  0  0  0  0  0  0  0  0
    2.8755   -4.1584   -1.8858 H   0  0  0  0  0  0  0  0  0  0  0  0
    3.1169   -3.6982   -3.5390 H   0  0  0  0  0  0  0  0  0  0  0  0
    5.1631   -4.6825   -2.4935 H   0  0  0  0  0  0  0  0  0  0  0  0
    5.4380   -3.0837   -3.1103 H   0  0  0  0  0  0  0  0  0  0  0  0
    2.2565   -4.6281    2.2889 H   0  0  0  0  0  0  0  0  0  0  0  0
    3.8809   -6.3883    2.9822 H   0  0  0  0  0  0  0  0  0  0  0  0
    6.0179   -7.2443    2.7496 H   0  0  0  0  0  0  0  0  0  0  0  0
    7.2866   -3.8550   -1.8264 H   0  0  0  0  0  0  0  0  0  0  0  0
    8.8218   -2.7278   -0.8751 H   0  0  0  0  0  0  0  0  0  0  0  0
    6.8250   -0.7262    2.0884 H   0  0  0  0  0  0  0  0  0  0  0  0
    4.7130   -0.6782    1.1800 H   0  0  0  0  0  0  0  0  0  0  0  0
    5.4231   -1.0561   -1.5152 H   0  0  0  0  0  0  0  0  0  0  0  0
    3.0753   -0.6876   -0.6537 H   0  0  0  0  0  0  0  0  0  0  0  0
    1.8154   -2.9017   -0.0065 H   0  0  0  0  0  0  0  0  0  0  0  0
    2.6642   -1.9695    1.1772 H   0  0  0  0  0  0  0  0  0  0  0  0
    1.9754   -2.1412   -2.0327 H   0  0  0  0  0  0  0  0  0  0  0  0
  1  2  1  0
  1 23  1  0
  1 24  1  0
  1 25  1  0
  2 21  1  0
  2  3  1  0
  2 41  1  1
  3  4  1  0
  3 26  1  0
  3 27  1  0
  5  4  1  6
  4 28  1  0
  4 29  1  0
  5 14  1  0
  5 20  1  0
  5  6  1  0
  6 12  2  0
  6  7  1  0
  7 22  1  0
  7  8  2  0
  8  9  1  0
  8 30  1  0
  9 10  2  0
  9 31  1  0
 10 11  1  0
 10 12  1  0
 11 32  1  0
 12 13  1  0
 13 14  1  0
 14 15  1  0
 14 33  1  6
 15 16  1  0
 15 34  1  0
 16 17  2  0
 16 18  1  0
 18 19  2  0
 18 35  1  0
 19 20  1  0
 19 36  1  0
 20 21  1  0
 20 37  1  6
 21 22  1  0
 21 38  1  1
 22 39  1  0
 22 40  1  0
M  CHG  1   2   1
M  END
>  <i_m_ct_stereo_status>  (83) 
1

>  <s_m_source_file>  (83) 
/var/tmp/pbs.5076255.sched01/tmp44bw07az/09l6mph0o.sdf

>  <i_m_source_file_index>  (83) 
35

>  <i_lp_mmshare_version>  (83) 
48012

>  <i_f3d_flags>  (83) 
0

>  <s_epik_input>  (83) 
W0NIMl0xW0NIMl1OKFtDSDNdKVtDQEBIXShbQ0gyXTIpW0NASF0zW0NIXT1bQ0hdQyg9TylbTkhdW0NASF00T2M1YyhbT0hdKVtjSF1bY0hdYzJjNVtDQEBdMTM0

>  <s_epik_cmdline>  (83) 
J2VwaWtfcHl0aG9uJywgJy1waHQnLCAnMi4wJywgJy1waCcsICc3LjAnLCAnLXRuJywgJzgnLCAnLW1hJywgJzIwMCcsICctaW1hZScsICc8aW5maWxlLm1hZT4nLCAnLW9tYWUnLCAnPG91dGZpbGUubWFlPic=

>  <r_lp_tautomer_probability>  (83) 
1

>  <r_epik_Ionization_Penalty>  (83) 
0.201147

>  <r_epik_Ionization_Penalty_Charging>  (83) 
0.185093

>  <r_epik_Ionization_Penalty_Neutral>  (83) 
0.0160539

>  <r_epik_State_Penalty>  (83) 
0.248568

>  <r_epik_Charging_Adjusted_Penalty>  (83) 
0.433661

>  <i_epik_Tot_Q>  (83) 
1

>  <i_epik_Tot_abs_Q>  (83) 
1

>  <s_epik_Chemistry_Notes>  (83) 
This compound contains an acetal/aminal-like group ( X-CH(R)-Y where X, Y are N, S, or O) that may be acid/base labile, releasing an aldehyde.

>  <s_lp_Force_Field>  (83) 
OPLS3e

>  <r_lp_Energy>  (83) 
50.0331

>  <b_lp_Chiralities_Consistent>  (83) 
1

>  <s_lp_Variant>  (83) 
15:0-1

>  <s_i_glide_gridfile>  (83) 
pfpi4k_grid

>  <i_i_glide_lignum>  (83) 
35

>  <i_i_glide_rotatable_bonds>  (83) 
1

>  <r_i_docking_score>  (83) 
-4.04485

>  <r_i_glide_ligand_efficiency>  (83) 
-0.183857

>  <r_i_glide_ligand_efficiency_sa>  (83) 
-0.515175

>  <r_i_glide_ligand_efficiency_ln>  (83) 
-0.98871

>  <r_i_glide_gscore>  (83) 
-4.04485

>  <r_i_glide_lipo>  (83) 
-0.4809

>  <r_i_glide_hbond>  (83) 
-0.115121

>  <r_i_glide_metal>  (83) 
-0

>  <r_i_glide_rewards>  (83) 
-1.54705

>  <r_i_glide_evdw>  (83) 
-16.0763

>  <r_i_glide_ecoul>  (83) 
-6.49062

>  <r_i_glide_erotb>  (83) 
0

>  <r_i_glide_esite>  (83) 
-0.124375

>  <r_i_glide_emodel>  (83) 
-28.1913

>  <r_i_glide_energy>  (83) 
-22.5669

>  <r_i_glide_einternal>  (83) 
0.00310277

>  <r_i_glide_intrahb_reward>  (83) 
-0

>  <i_i_glide_confnum>  (83) 
2

>  <i_i_glide_posenum>  (83) 
11

>  <r_i_glide_eff_state_penalty>  (83) 
0

>  <ligand_id>  (83) 
15

>  <original_smiles>  (83) 
CN1CCC23c4c5ccc(O)c4OC2NC(=O)C=CC3C1C5

>  <smiles>  (83) 
[H]Oc1c([H])c([H])c2c3c1OC1([H])N([H])C(=O)C([H])=C([H])C4([H])C31C([H])([H])C([H])([H])[N+]([H])(C([H])([H])[H])C4([H])C2([H])[H]

$$$$
15:0:1
     RDKit          3D

 41 45  0  0  1  0  0  0  0  0999 V2000
    4.1802   -1.1581   -3.7577 C   0  0  0  0  0  0  0  0  0  0  0  0
    3.8311   -2.4006   -3.0167 N   0  0  1  0  0  0  0  0  0  0  0  0
    4.9453   -3.3790   -2.9232 C   0  0  0  0  0  0  0  0  0  0  0  0
    5.9111   -3.0043   -1.7911 C   0  0  0  0  0  0  0  0  0  0  0  0
    5.1893   -2.6972   -0.4339 C   0  0  1  0  0  0  0  0  0  0  0  0
    4.4829   -3.9035    0.0985 C   0  0  0  0  0  0  0  0  0  0  0  0
    3.2038   -4.3542   -0.2789 C   0  0  0  0  0  0  0  0  0  0  0  0
    2.7468   -5.5181    0.3648 C   0  0  0  0  0  0  0  0  0  0  0  0
    3.5562   -6.1650    1.3351 C   0  0  0  0  0  0  0  0  0  0  0  0
    4.7924   -5.6028    1.7317 C   0  0  0  0  0  0  0  0  0  0  0  0
    5.5286   -6.2024    2.7094 O   0  0  0  0  0  0  0  0  0  0  0  0
    5.2579   -4.4195    1.1251 C   0  0  0  0  0  0  0  0  0  0  0  0
    6.3273   -3.6352    1.4544 O   0  0  0  0  0  0  0  0  0  0  0  0
    6.3268   -2.4886    0.6314 C   0  0  2  0  0  0  0  0  0  0  0  0
    6.3056   -1.2666    1.4129 N   0  0  0  0  0  0  0  0  0  0  0  0
    5.3505   -0.7127    2.1856 C   0  0  0  0  0  0  0  0  0  0  0  0
    5.6976    0.0040    3.1126 O   0  0  0  0  0  0  0  0  0  0  0  0
    3.9471   -0.8903    1.8423 C   0  0  0  0  0  0  0  0  0  0  0  0
    3.4389   -1.2077    0.6439 C   0  0  0  0  0  0  0  0  0  0  0  0
    4.1644   -1.5719   -0.6373 C   0  0  2  0  0  0  0  0  0  0  0  0
    3.1790   -2.1457   -1.7012 C   0  0  2  0  0  0  0  0  0  0  0  0
    2.4409   -3.4270   -1.2378 C   0  0  0  0  0  0  0  0  0  0  0  0
    4.9840   -0.6293   -3.2492 H   0  0  0  0  0  0  0  0  0  0  0  0
    3.3150   -0.4986   -3.8447 H   0  0  0  0  0  0  0  0  0  0  0  0
    4.5095   -1.4115   -4.7607 H   0  0  0  0  0  0  0  0  0  0  0  0
    4.5562   -4.3779   -2.7272 H   0  0  0  0  0  0  0  0  0  0  0  0
    5.4845   -3.4336   -3.8713 H   0  0  0  0  0  0  0  0  0  0  0  0
    6.6347   -3.8181   -1.6599 H   0  0  0  0  0  0  0  0  0  0  0  0
    6.4822   -2.1081   -2.0785 H   0  0  0  0  0  0  0  0  0  0  0  0
    1.7787   -5.9302    0.1132 H   0  0  0  0  0  0  0  0  0  0  0  0
    3.2048   -7.0708    1.8036 H   0  0  0  0  0  0  0  0  0  0  0  0
    6.3357   -5.7440    2.8799 H   0  0  0  0  0  0  0  0  0  0  0  0
    7.3047   -2.4835    0.1387 H   0  0  0  0  0  0  0  0  0  0  0  0
    7.2172   -1.0155    1.7661 H   0  0  0  0  0  0  0  0  0  0  0  0
    3.2259   -0.6628    2.6147 H   0  0  0  0  0  0  0  0  0  0  0  0
    2.3586   -1.2368    0.5624 H   0  0  0  0  0  0  0  0  0  0  0  0
    4.6547   -0.6680   -1.0026 H   0  0  0  0  0  0  0  0  0  0  0  0
    2.4424   -1.3989   -1.9454 H   0  0  0  0  0  0  0  0  0  0  0  0
    2.0694   -4.0085   -2.0831 H   0  0  0  0  0  0  0  0  0  0  0  0
    1.5618   -3.1135   -0.6952 H   0  0  0  0  0  0  0  0  0  0  0  0
    3.1201   -2.8599   -3.5618 H   0  0  0  0  0  0  0  0  0  0  0  0
  1  2  1  0
  1 23  1  0
  1 24  1  0
  1 25  1  0
  2 21  1  0
  2  3  1  0
  2 41  1  6
  3  4  1  0
  3 26  1  0
  3 27  1  0
  5  4  1  6
  4 28  1  0
  4 29  1  0
  5 14  1  0
  5 20  1  0
  5  6  1  0
  6 12  2  0
  6  7  1  0
  7 22  1  0
  7  8  2  0
  8  9  1  0
  8 30  1  0
  9 10  2  0
  9 31  1  0
 10 11  1  0
 10 12  1  0
 11 32  1  0
 12 13  1  0
 13 14  1  0
 14 15  1  0
 14 33  1  6
 15 16  1  0
 15 34  1  0
 16 17  2  0
 16 18  1  0
 18 19  2  0
 18 35  1  0
 19 20  1  0
 19 36  1  0
 20 21  1  0
 20 37  1  6
 21 22  1  0
 21 38  1  6
 22 39  1  0
 22 40  1  0
M  CHG  1   2   1
M  END
>  <i_m_ct_stereo_status>  (84) 
1

>  <s_m_source_file>  (84) 
/var/tmp/pbs.5076255.sched01/tmp44bw07az/09l6mph0o.sdf

>  <i_m_source_file_index>  (84) 
35

>  <i_lp_mmshare_version>  (84) 
48012

>  <i_f3d_flags>  (84) 
0

>  <s_epik_input>  (84) 
W0NIMl0xW0NIMl1OKFtDSDNdKVtDQEBIXShbQ0gyXTIpW0NASF0zW0NIXT1bQ0hdQyg9TylbTkhdW0NASF00T2M1YyhbT0hdKVtjSF1bY0hdYzJjNVtDQEBdMTM0

>  <s_epik_cmdline>  (84) 
J2VwaWtfcHl0aG9uJywgJy1waHQnLCAnMi4wJywgJy1waCcsICc3LjAnLCAnLXRuJywgJzgnLCAnLW1hJywgJzIwMCcsICctaW1hZScsICc8aW5maWxlLm1hZT4nLCAnLW9tYWUnLCAnPG91dGZpbGUubWFlPic=

>  <r_lp_tautomer_probability>  (84) 
1

>  <r_epik_Ionization_Penalty>  (84) 
0.201147

>  <r_epik_Ionization_Penalty_Charging>  (84) 
0.185093

>  <r_epik_Ionization_Penalty_Neutral>  (84) 
0.0160539

>  <r_epik_State_Penalty>  (84) 
0.248568

>  <r_epik_Charging_Adjusted_Penalty>  (84) 
0.433661

>  <i_epik_Tot_Q>  (84) 
1

>  <i_epik_Tot_abs_Q>  (84) 
1

>  <s_epik_Chemistry_Notes>  (84) 
This compound contains an acetal/aminal-like group ( X-CH(R)-Y where X, Y are N, S, or O) that may be acid/base labile, releasing an aldehyde.

>  <s_lp_Force_Field>  (84) 
OPLS3e

>  <r_lp_Energy>  (84) 
50.0331

>  <b_lp_Chiralities_Consistent>  (84) 
1

>  <s_lp_Variant>  (84) 
15:0-1

>  <s_i_glide_gridfile>  (84) 
pfpi4k_grid

>  <i_i_glide_lignum>  (84) 
35

>  <i_i_glide_rotatable_bonds>  (84) 
1

>  <r_i_docking_score>  (84) 
-3.9242

>  <r_i_glide_ligand_efficiency>  (84) 
-0.178373

>  <r_i_glide_ligand_efficiency_sa>  (84) 
-0.499808

>  <r_i_glide_ligand_efficiency_ln>  (84) 
-0.959219

>  <r_i_glide_gscore>  (84) 
-3.9242

>  <r_i_glide_lipo>  (84) 
-0.640672

>  <r_i_glide_hbond>  (84) 
-0.139297

>  <r_i_glide_metal>  (84) 
-0

>  <r_i_glide_rewards>  (84) 
-1.62947

>  <r_i_glide_evdw>  (84) 
-20.6217

>  <r_i_glide_ecoul>  (84) 
-3.22455

>  <r_i_glide_erotb>  (84) 
0

>  <r_i_glide_esite>  (84) 
0

>  <r_i_glide_emodel>  (84) 
-29.3867

>  <r_i_glide_energy>  (84) 
-23.8463

>  <r_i_glide_einternal>  (84) 
0.0031972

>  <r_i_glide_intrahb_reward>  (84) 
-0

>  <i_i_glide_confnum>  (84) 
2

>  <i_i_glide_posenum>  (84) 
17

>  <r_i_glide_eff_state_penalty>  (84) 
0

>  <ligand_id>  (84) 
15

>  <original_smiles>  (84) 
CN1CCC23c4c5ccc(O)c4OC2NC(=O)C=CC3C1C5

>  <smiles>  (84) 
[H]Oc1c([H])c([H])c2c3c1OC1([H])N([H])C(=O)C([H])=C([H])C4([H])C31C([H])([H])C([H])([H])[N+]([H])(C([H])([H])[H])C4([H])C2([H])[H]

$$$$
15:0:2
     RDKit          3D

 41 45  0  0  1  0  0  0  0  0999 V2000
    4.1990   -1.2635   -3.7109 C   0  0  0  0  0  0  0  0  0  0  0  0
    3.8616   -2.5049   -2.9643 N   0  0  1  0  0  0  0  0  0  0  0  0
    4.9993   -3.4453   -2.8306 C   0  0  0  0  0  0  0  0  0  0  0  0
    5.9260   -3.0328   -1.6760 C   0  0  0  0  0  0  0  0  0  0  0  0
    5.1681   -2.7371   -0.3447 C   0  0  1  0  0  0  0  0  0  0  0  0
    4.4819   -3.9601    0.1857 C   0  0  0  0  0  0  0  0  0  0  0  0
    3.2246   -4.4484   -0.2181 C   0  0  0  0  0  0  0  0  0  0  0  0
    2.7810   -5.6245    0.4200 C   0  0  0  0  0  0  0  0  0  0  0  0
    3.5860   -6.2395    1.4097 C   0  0  0  0  0  0  0  0  0  0  0  0
    4.7993   -5.6405    1.8323 C   0  0  0  0  0  0  0  0  0  0  0  0
    5.5241   -6.2118    2.8332 O   0  0  0  0  0  0  0  0  0  0  0  0
    5.2462   -4.4461    1.2283 C   0  0  0  0  0  0  0  0  0  0  0  0
    6.2841   -3.6265    1.5750 O   0  0  0  0  0  0  0  0  0  0  0  0
    6.2702   -2.4863    0.7479 C   0  0  2  0  0  0  0  0  0  0  0  0
    6.2036   -1.2612    1.5300 N   0  0  0  0  0  0  0  0  0  0  0  0
    5.2063   -0.7136    2.2541 C   0  0  0  0  0  0  0  0  0  0  0  0
    5.5051    0.0452    3.1690 O   0  0  0  0  0  0  0  0  0  0  0  0
    3.8213   -0.9460    1.8856 C   0  0  0  0  0  0  0  0  0  0  0  0
    3.3550   -1.2924    0.6743 C   0  0  0  0  0  0  0  0  0  0  0  0
    4.1171   -1.6457   -0.5869 C   0  0  2  0  0  0  0  0  0  0  0  0
    3.1678   -2.2575   -1.6704 C   0  0  2  0  0  0  0  0  0  0  0  0
    2.4572   -3.5578   -1.2047 C   0  0  0  0  0  0  0  0  0  0  0  0
    4.9764   -0.6986   -3.1924 H   0  0  0  0  0  0  0  0  0  0  0  0
    3.3239   -0.6197   -3.8223 H   0  0  0  0  0  0  0  0  0  0  0  0
    4.5604   -1.5049   -4.7114 H   0  0  0  0  0  0  0  0  0  0  0  0
    4.6246   -4.4533   -2.6491 H   0  0  0  0  0  0  0  0  0  0  0  0
    5.5639   -3.4913   -3.7650 H   0  0  0  0  0  0  0  0  0  0  0  0
    6.6723   -3.8188   -1.5255 H   0  0  0  0  0  0  0  0  0  0  0  0
    6.4786   -2.1312   -1.9681 H   0  0  0  0  0  0  0  0  0  0  0  0
    1.8335   -6.0623    0.1389 H   0  0  0  0  0  0  0  0  0  0  0  0
    3.2374   -7.1524    1.8679 H   0  0  0  0  0  0  0  0  0  0  0  0
    5.1544   -7.0253    3.1436 H   0  0  0  0  0  0  0  0  0  0  0  0
    7.2604   -2.4509    0.2855 H   0  0  0  0  0  0  0  0  0  0  0  0
    7.0969   -0.9840    1.9031 H   0  0  0  0  0  0  0  0  0  0  0  0
    3.0710   -0.7379    2.6362 H   0  0  0  0  0  0  0  0  0  0  0  0
    2.2813   -1.3471    0.5736 H   0  0  0  0  0  0  0  0  0  0  0  0
    4.5759   -0.7275   -0.9553 H   0  0  0  0  0  0  0  0  0  0  0  0
    2.3968   -1.5498   -1.9413 H   0  0  0  0  0  0  0  0  0  0  0  0
    2.1204   -4.1569   -2.0519 H   0  0  0  0  0  0  0  0  0  0  0  0
    1.5452   -3.2682   -0.6987 H   0  0  0  0  0  0  0  0  0  0  0  0
    3.1817   -2.9854   -3.5346 H   0  0  0  0  0  0  0  0  0  0  0  0
  1  2  1  0
  1 23  1  0
  1 24  1  0
  1 25  1  0
  2 21  1  0
  2  3  1  0
  2 41  1  6
  3  4  1  0
  3 26  1  0
  3 27  1  0
  5  4  1  6
  4 28  1  0
  4 29  1  0
  5 14  1  0
  5 20  1  0
  5  6  1  0
  6 12  2  0
  6  7  1  0
  7 22  1  0
  7  8  2  0
  8  9  1  0
  8 30  1  0
  9 10  2  0
  9 31  1  0
 10 11  1  0
 10 12  1  0
 11 32  1  0
 12 13  1  0
 13 14  1  0
 14 15  1  0
 14 33  1  6
 15 16  1  0
 15 34  1  0
 16 17  2  0
 16 18  1  0
 18 19  2  0
 18 35  1  0
 19 20  1  0
 19 36  1  0
 20 21  1  0
 20 37  1  6
 21 22  1  0
 21 38  1  6
 22 39  1  0
 22 40  1  0
M  CHG  1   2   1
M  END
>  <i_m_ct_stereo_status>  (85) 
1

>  <s_m_source_file>  (85) 
/var/tmp/pbs.5076255.sched01/tmp44bw07az/09l6mph0o.sdf

>  <i_m_source_file_index>  (85) 
35

>  <i_lp_mmshare_version>  (85) 
48012

>  <i_f3d_flags>  (85) 
0

>  <s_epik_input>  (85) 
W0NIMl0xW0NIMl1OKFtDSDNdKVtDQEBIXShbQ0gyXTIpW0NASF0zW0NIXT1bQ0hdQyg9TylbTkhdW0NASF00T2M1YyhbT0hdKVtjSF1bY0hdYzJjNVtDQEBdMTM0

>  <s_epik_cmdline>  (85) 
J2VwaWtfcHl0aG9uJywgJy1waHQnLCAnMi4wJywgJy1waCcsICc3LjAnLCAnLXRuJywgJzgnLCAnLW1hJywgJzIwMCcsICctaW1hZScsICc8aW5maWxlLm1hZT4nLCAnLW9tYWUnLCAnPG91dGZpbGUubWFlPic=

>  <r_lp_tautomer_probability>  (85) 
1

>  <r_epik_Ionization_Penalty>  (85) 
0.201147

>  <r_epik_Ionization_Penalty_Charging>  (85) 
0.185093

>  <r_epik_Ionization_Penalty_Neutral>  (85) 
0.0160539

>  <r_epik_State_Penalty>  (85) 
0.248568

>  <r_epik_Charging_Adjusted_Penalty>  (85) 
0.433661

>  <i_epik_Tot_Q>  (85) 
1

>  <i_epik_Tot_abs_Q>  (85) 
1

>  <s_epik_Chemistry_Notes>  (85) 
This compound contains an acetal/aminal-like group ( X-CH(R)-Y where X, Y are N, S, or O) that may be acid/base labile, releasing an aldehyde.

>  <s_lp_Force_Field>  (85) 
OPLS3e

>  <r_lp_Energy>  (85) 
50.0331

>  <b_lp_Chiralities_Consistent>  (85) 
1

>  <s_lp_Variant>  (85) 
15:0-1

>  <s_i_glide_gridfile>  (85) 
pfpi4k_grid

>  <i_i_glide_lignum>  (85) 
35

>  <i_i_glide_rotatable_bonds>  (85) 
1

>  <r_i_docking_score>  (85) 
-3.86328

>  <r_i_glide_ligand_efficiency>  (85) 
-0.175604

>  <r_i_glide_ligand_efficiency_sa>  (85) 
-0.492048

>  <r_i_glide_ligand_efficiency_ln>  (85) 
-0.944326

>  <r_i_glide_gscore>  (85) 
-3.86328

>  <r_i_glide_lipo>  (85) 
-0.571751

>  <r_i_glide_hbond>  (85) 
-0.104218

>  <r_i_glide_metal>  (85) 
-0

>  <r_i_glide_rewards>  (85) 
-1.65032

>  <r_i_glide_evdw>  (85) 
-20.2258

>  <r_i_glide_ecoul>  (85) 
-3.50465

>  <r_i_glide_erotb>  (85) 
0

>  <r_i_glide_esite>  (85) 
0

>  <r_i_glide_emodel>  (85) 
-29.1957

>  <r_i_glide_energy>  (85) 
-23.7305

>  <r_i_glide_einternal>  (85) 
0.0255433

>  <r_i_glide_intrahb_reward>  (85) 
-0

>  <i_i_glide_confnum>  (85) 
2

>  <i_i_glide_posenum>  (85) 
4

>  <r_i_glide_eff_state_penalty>  (85) 
0

>  <ligand_id>  (85) 
15

>  <original_smiles>  (85) 
CN1CCC23c4c5ccc(O)c4OC2NC(=O)C=CC3C1C5

>  <smiles>  (85) 
[H]Oc1c([H])c([H])c2c3c1OC1([H])N([H])C(=O)C([H])=C([H])C4([H])C31C([H])([H])C([H])([H])[N+]([H])(C([H])([H])[H])C4([H])C2([H])[H]

$$$$
15:1:0
     RDKit          3D

 40 44  0  0  1  0  0  0  0  0999 V2000
    4.2539   -1.0979   -3.7078 C   0  0  0  0  0  0  0  0  0  0  0  0
    3.9213   -2.3221   -2.9995 N   0  0  0  0  0  0  0  0  0  0  0  0
    5.0267   -3.2714   -2.8848 C   0  0  0  0  0  0  0  0  0  0  0  0
    5.9599   -2.9458   -1.7101 C   0  0  0  0  0  0  0  0  0  0  0  0
    5.2038   -2.6720   -0.3829 C   0  0  1  0  0  0  0  0  0  0  0  0
    4.4542   -3.8751    0.1092 C   0  0  0  0  0  0  0  0  0  0  0  0
    3.1856   -4.2911   -0.3226 C   0  0  0  0  0  0  0  0  0  0  0  0
    2.6645   -5.4426    0.2984 C   0  0  0  0  0  0  0  0  0  0  0  0
    3.4136   -6.1215    1.2918 C   0  0  0  0  0  0  0  0  0  0  0  0
    4.6564   -5.6046    1.7331 C   0  0  0  0  0  0  0  0  0  0  0  0
    5.3415   -6.2350    2.7294 O   0  0  0  0  0  0  0  0  0  0  0  0
    5.1714   -4.4288    1.1556 C   0  0  0  0  0  0  0  0  0  0  0  0
    6.2499   -3.6774    1.5275 O   0  0  0  0  0  0  0  0  0  0  0  0
    6.2947   -2.5104    0.7321 C   0  0  2  0  0  0  0  0  0  0  0  0
    6.2679   -1.3088    1.5543 N   0  0  0  0  0  0  0  0  0  0  0  0
    5.2860   -0.7316    2.2725 C   0  0  0  0  0  0  0  0  0  0  0  0
    5.6123   -0.0174    3.2205 O   0  0  0  0  0  0  0  0  0  0  0  0
    3.8986   -0.8758    1.8694 C   0  0  0  0  0  0  0  0  0  0  0  0
    3.4373   -1.1565    0.6375 C   0  0  0  0  0  0  0  0  0  0  0  0
    4.2182   -1.5221   -0.6094 C   0  0  2  0  0  0  0  0  0  0  0  0
    3.2542   -2.0626   -1.7168 C   0  0  2  0  0  0  0  0  0  0  0  0
    2.4894   -3.3534   -1.3068 C   0  0  0  0  0  0  0  0  0  0  0  0
    4.6200   -1.3304   -4.7089 H   0  0  0  0  0  0  0  0  0  0  0  0
    5.0112   -0.5231   -3.1747 H   0  0  0  0  0  0  0  0  0  0  0  0
    3.3723   -0.4655   -3.8241 H   0  0  0  0  0  0  0  0  0  0  0  0
    4.6131   -4.2708   -2.7410 H   0  0  0  0  0  0  0  0  0  0  0  0
    5.5832   -3.3088   -3.8175 H   0  0  0  0  0  0  0  0  0  0  0  0
    6.6734   -3.7640   -1.5870 H   0  0  0  0  0  0  0  0  0  0  0  0
    6.5420   -2.0617   -1.9617 H   0  0  0  0  0  0  0  0  0  0  0  0
    1.6963   -5.8214    0.0133 H   0  0  0  0  0  0  0  0  0  0  0  0
    3.0137   -7.0212    1.7363 H   0  0  0  0  0  0  0  0  0  0  0  0
    4.9077   -7.0150    3.0400 H   0  0  0  0  0  0  0  0  0  0  0  0
    7.2951   -2.5049    0.2846 H   0  0  0  0  0  0  0  0  0  0  0  0
    7.1665   -1.0877    1.9513 H   0  0  0  0  0  0  0  0  0  0  0  0
    3.1476   -0.6437    2.6096 H   0  0  0  0  0  0  0  0  0  0  0  0
    2.3704   -1.1637    0.5083 H   0  0  0  0  0  0  0  0  0  0  0  0
    4.7382   -0.6270   -0.9464 H   0  0  0  0  0  0  0  0  0  0  0  0
    2.5268   -1.2936   -1.9391 H   0  0  0  0  0  0  0  0  0  0  0  0
    2.1598   -3.9012   -2.1878 H   0  0  0  0  0  0  0  0  0  0  0  0
    1.5786   -3.0614   -0.8058 H   0  0  0  0  0  0  0  0  0  0  0  0
  1  2  1  0
  1 23  1  0
  1 24  1  0
  1 25  1  0
  2 21  1  0
  2  3  1  0
  3  4  1  0
  3 26  1  0
  3 27  1  0
  5  4  1  6
  4 28  1  0
  4 29  1  0
  5 14  1  0
  5 20  1  0
  5  6  1  0
  6 12  2  0
  6  7  1  0
  7 22  1  0
  7  8  2  0
  8  9  1  0
  8 30  1  0
  9 10  2  0
  9 31  1  0
 10 11  1  0
 10 12  1  0
 11 32  1  0
 12 13  1  0
 13 14  1  0
 14 15  1  0
 14 33  1  6
 15 16  1  0
 15 34  1  0
 16 17  2  0
 16 18  1  0
 18 19  2  0
 18 35  1  0
 19 20  1  0
 19 36  1  0
 20 21  1  0
 20 37  1  6
 21 22  1  0
 21 38  1  6
 22 39  1  0
 22 40  1  0
M  END
>  <i_m_ct_stereo_status>  (86) 
1

>  <s_m_source_file>  (86) 
/var/tmp/pbs.5076255.sched01/tmp44bw07az/09l6mph0o.sdf

>  <i_m_source_file_index>  (86) 
36

>  <i_lp_mmshare_version>  (86) 
48012

>  <i_f3d_flags>  (86) 
0

>  <s_epik_input>  (86) 
W0NIMl0xW0NIMl1OKFtDSDNdKVtDQEBIXShbQ0gyXTIpW0NASF0zW0NIXT1bQ0hdQyg9TylbTkhdW0NASF00T2M1YyhbT0hdKVtjSF1bY0hdYzJjNVtDQEBdMTM0

>  <s_epik_cmdline>  (86) 
J2VwaWtfcHl0aG9uJywgJy1waHQnLCAnMi4wJywgJy1waCcsICc3LjAnLCAnLXRuJywgJzgnLCAnLW1hJywgJzIwMCcsICctaW1hZScsICc8aW5maWxlLm1hZT4nLCAnLW9tYWUnLCAnPG91dGZpbGUubWFlPic=

>  <r_lp_tautomer_probability>  (86) 
1

>  <r_epik_Ionization_Penalty>  (86) 
0.782912

>  <r_epik_Ionization_Penalty_Charging>  (86) 
0

>  <r_epik_Ionization_Penalty_Neutral>  (86) 
0.782912

>  <r_epik_State_Penalty>  (86) 
0.655088

>  <r_epik_Charging_Adjusted_Penalty>  (86) 
0.655088

>  <i_epik_Tot_Q>  (86) 
0

>  <i_epik_Tot_abs_Q>  (86) 
0

>  <s_epik_Chemistry_Notes>  (86) 
This compound contains an acetal/aminal-like group ( X-CH(R)-Y where X, Y are N, S, or O) that may be acid/base labile, releasing an aldehyde.

>  <s_lp_Force_Field>  (86) 
OPLS3e

>  <r_lp_Energy>  (86) 
43.6134

>  <b_lp_Chiralities_Consistent>  (86) 
1

>  <s_lp_Variant>  (86) 
15:0-2

>  <s_i_glide_gridfile>  (86) 
pfpi4k_grid

>  <i_i_glide_lignum>  (86) 
36

>  <i_i_glide_rotatable_bonds>  (86) 
1

>  <r_i_docking_score>  (86) 
-3.66594

>  <r_i_glide_ligand_efficiency>  (86) 
-0.166634

>  <r_i_glide_ligand_efficiency_sa>  (86) 
-0.466914

>  <r_i_glide_ligand_efficiency_ln>  (86) 
-0.896089

>  <r_i_glide_gscore>  (86) 
-3.66594

>  <r_i_glide_lipo>  (86) 
-0.657886

>  <r_i_glide_hbond>  (86) 
-0.0815663

>  <r_i_glide_metal>  (86) 
-0

>  <r_i_glide_rewards>  (86) 
-1.64484

>  <r_i_glide_evdw>  (86) 
-23.0286

>  <r_i_glide_ecoul>  (86) 
-0.86813

>  <r_i_glide_erotb>  (86) 
0

>  <r_i_glide_esite>  (86) 
0

>  <r_i_glide_emodel>  (86) 
-28.5486

>  <r_i_glide_energy>  (86) 
-23.8967

>  <r_i_glide_einternal>  (86) 
0.0043569

>  <r_i_glide_intrahb_reward>  (86) 
-0

>  <i_i_glide_confnum>  (86) 
2

>  <i_i_glide_posenum>  (86) 
1

>  <r_i_glide_eff_state_penalty>  (86) 
0

>  <ligand_id>  (86) 
15

>  <original_smiles>  (86) 
CN1CCC23c4c5ccc(O)c4OC2NC(=O)C=CC3C1C5

>  <smiles>  (86) 
[H]Oc1c([H])c([H])c2c3c1OC1([H])N([H])C(=O)C([H])=C([H])C4([H])C([H])(N(C([H])([H])[H])C([H])([H])C([H])([H])C314)C2([H])[H]

$$$$
15:1:1
     RDKit          3D

 40 44  0  0  1  0  0  0  0  0999 V2000
    4.2547   -1.0953   -3.7082 C   0  0  0  0  0  0  0  0  0  0  0  0
    3.9268   -2.3199   -2.9994 N   0  0  0  0  0  0  0  0  0  0  0  0
    5.0355   -3.2656   -2.8850 C   0  0  0  0  0  0  0  0  0  0  0  0
    5.9682   -2.9361   -1.7103 C   0  0  0  0  0  0  0  0  0  0  0  0
    5.2109   -2.6639   -0.3837 C   0  0  1  0  0  0  0  0  0  0  0  0
    4.4647   -3.8707    0.1075 C   0  0  0  0  0  0  0  0  0  0  0  0
    3.1963   -4.2886   -0.3244 C   0  0  0  0  0  0  0  0  0  0  0  0
    2.6772   -5.4425    0.2961 C   0  0  0  0  0  0  0  0  0  0  0  0
    3.4311   -6.1199    1.2919 C   0  0  0  0  0  0  0  0  0  0  0  0
    4.6713   -5.6001    1.7312 C   0  0  0  0  0  0  0  0  0  0  0  0
    5.3592   -6.2287    2.7281 O   0  0  0  0  0  0  0  0  0  0  0  0
    5.1827   -4.4232    1.1521 C   0  0  0  0  0  0  0  0  0  0  0  0
    6.2616   -3.6695    1.5267 O   0  0  0  0  0  0  0  0  0  0  0  0
    6.3014   -2.5004    0.7330 C   0  0  2  0  0  0  0  0  0  0  0  0
    6.2682   -1.3005    1.5572 N   0  0  0  0  0  0  0  0  0  0  0  0
    5.2852   -0.7249    2.2728 C   0  0  0  0  0  0  0  0  0  0  0  0
    5.6071   -0.0070    3.2193 O   0  0  0  0  0  0  0  0  0  0  0  0
    3.8960   -0.8731    1.8681 C   0  0  0  0  0  0  0  0  0  0  0  0
    3.4394   -1.1563    0.6365 C   0  0  0  0  0  0  0  0  0  0  0  0
    4.2214   -1.5190   -0.6101 C   0  0  2  0  0  0  0  0  0  0  0  0
    3.2585   -2.0634   -1.7177 C   0  0  2  0  0  0  0  0  0  0  0  0
    2.4951   -3.3523   -1.3076 C   0  0  0  0  0  0  0  0  0  0  0  0
    4.6153   -1.3268   -4.7108 H   0  0  0  0  0  0  0  0  0  0  0  0
    5.0099   -0.5179   -3.1758 H   0  0  0  0  0  0  0  0  0  0  0  0
    3.3718   -0.4652   -3.8251 H   0  0  0  0  0  0  0  0  0  0  0  0
    4.6260   -4.2662   -2.7411 H   0  0  0  0  0  0  0  0  0  0  0  0
    5.5927   -3.3013   -3.8174 H   0  0  0  0  0  0  0  0  0  0  0  0
    6.6840   -3.7518   -1.5868 H   0  0  0  0  0  0  0  0  0  0  0  0
    6.5474   -2.0504   -1.9619 H   0  0  0  0  0  0  0  0  0  0  0  0
    1.7111   -5.8271    0.0130 H   0  0  0  0  0  0  0  0  0  0  0  0
    3.0435   -7.0194    1.7439 H   0  0  0  0  0  0  0  0  0  0  0  0
    6.1812   -5.8039    2.9196 H   0  0  0  0  0  0  0  0  0  0  0  0
    7.3015   -2.4897    0.2869 H   0  0  0  0  0  0  0  0  0  0  0  0
    7.1664   -1.0739    1.9526 H   0  0  0  0  0  0  0  0  0  0  0  0
    3.1452   -0.6434    2.6083 H   0  0  0  0  0  0  0  0  0  0  0  0
    2.3723   -1.1657    0.5071 H   0  0  0  0  0  0  0  0  0  0  0  0
    4.7360   -0.6212   -0.9480 H   0  0  0  0  0  0  0  0  0  0  0  0
    2.5273   -1.2963   -1.9411 H   0  0  0  0  0  0  0  0  0  0  0  0
    2.1698   -3.9053   -2.1873 H   0  0  0  0  0  0  0  0  0  0  0  0
    1.5869   -3.0553   -0.8087 H   0  0  0  0  0  0  0  0  0  0  0  0
  1  2  1  0
  1 23  1  0
  1 24  1  0
  1 25  1  0
  2 21  1  0
  2  3  1  0
  3  4  1  0
  3 26  1  0
  3 27  1  0
  5  4  1  6
  4 28  1  0
  4 29  1  0
  5 14  1  0
  5 20  1  0
  5  6  1  0
  6 12  2  0
  6  7  1  0
  7 22  1  0
  7  8  2  0
  8  9  1  0
  8 30  1  0
  9 10  2  0
  9 31  1  0
 10 11  1  0
 10 12  1  0
 11 32  1  0
 12 13  1  0
 13 14  1  0
 14 15  1  0
 14 33  1  6
 15 16  1  0
 15 34  1  0
 16 17  2  0
 16 18  1  0
 18 19  2  0
 18 35  1  0
 19 20  1  0
 19 36  1  0
 20 21  1  0
 20 37  1  6
 21 22  1  0
 21 38  1  6
 22 39  1  0
 22 40  1  0
M  END
>  <i_m_ct_stereo_status>  (87) 
1

>  <s_m_source_file>  (87) 
/var/tmp/pbs.5076255.sched01/tmp44bw07az/09l6mph0o.sdf

>  <i_m_source_file_index>  (87) 
36

>  <i_lp_mmshare_version>  (87) 
48012

>  <i_f3d_flags>  (87) 
0

>  <s_epik_input>  (87) 
W0NIMl0xW0NIMl1OKFtDSDNdKVtDQEBIXShbQ0gyXTIpW0NASF0zW0NIXT1bQ0hdQyg9TylbTkhdW0NASF00T2M1YyhbT0hdKVtjSF1bY0hdYzJjNVtDQEBdMTM0

>  <s_epik_cmdline>  (87) 
J2VwaWtfcHl0aG9uJywgJy1waHQnLCAnMi4wJywgJy1waCcsICc3LjAnLCAnLXRuJywgJzgnLCAnLW1hJywgJzIwMCcsICctaW1hZScsICc8aW5maWxlLm1hZT4nLCAnLW9tYWUnLCAnPG91dGZpbGUubWFlPic=

>  <r_lp_tautomer_probability>  (87) 
1

>  <r_epik_Ionization_Penalty>  (87) 
0.782912

>  <r_epik_Ionization_Penalty_Charging>  (87) 
0

>  <r_epik_Ionization_Penalty_Neutral>  (87) 
0.782912

>  <r_epik_State_Penalty>  (87) 
0.655088

>  <r_epik_Charging_Adjusted_Penalty>  (87) 
0.655088

>  <i_epik_Tot_Q>  (87) 
0

>  <i_epik_Tot_abs_Q>  (87) 
0

>  <s_epik_Chemistry_Notes>  (87) 
This compound contains an acetal/aminal-like group ( X-CH(R)-Y where X, Y are N, S, or O) that may be acid/base labile, releasing an aldehyde.

>  <s_lp_Force_Field>  (87) 
OPLS3e

>  <r_lp_Energy>  (87) 
43.6134

>  <b_lp_Chiralities_Consistent>  (87) 
1

>  <s_lp_Variant>  (87) 
15:0-2

>  <s_i_glide_gridfile>  (87) 
pfpi4k_grid

>  <i_i_glide_lignum>  (87) 
36

>  <i_i_glide_rotatable_bonds>  (87) 
1

>  <r_i_docking_score>  (87) 
-3.65438

>  <r_i_glide_ligand_efficiency>  (87) 
-0.166108

>  <r_i_glide_ligand_efficiency_sa>  (87) 
-0.465442

>  <r_i_glide_ligand_efficiency_ln>  (87) 
-0.893264

>  <r_i_glide_gscore>  (87) 
-3.65438

>  <r_i_glide_lipo>  (87) 
-0.658277

>  <r_i_glide_hbond>  (87) 
-0.0844832

>  <r_i_glide_metal>  (87) 
-0

>  <r_i_glide_rewards>  (87) 
-1.64507

>  <r_i_glide_evdw>  (87) 
-22.983

>  <r_i_glide_ecoul>  (87) 
-0.782686

>  <r_i_glide_erotb>  (87) 
0

>  <r_i_glide_esite>  (87) 
0

>  <r_i_glide_emodel>  (87) 
-28.4006

>  <r_i_glide_energy>  (87) 
-23.7657

>  <r_i_glide_einternal>  (87) 
0.00729546

>  <r_i_glide_intrahb_reward>  (87) 
-0

>  <i_i_glide_confnum>  (87) 
2

>  <i_i_glide_posenum>  (87) 
7

>  <r_i_glide_eff_state_penalty>  (87) 
0

>  <ligand_id>  (87) 
15

>  <original_smiles>  (87) 
CN1CCC23c4c5ccc(O)c4OC2NC(=O)C=CC3C1C5

>  <smiles>  (87) 
[H]Oc1c([H])c([H])c2c3c1OC1([H])N([H])C(=O)C([H])=C([H])C4([H])C([H])(N(C([H])([H])[H])C([H])([H])C([H])([H])C314)C2([H])[H]

$$$$
15:1:2
     RDKit          3D

 40 44  0  0  1  0  0  0  0  0999 V2000
    3.4166   -1.0671   -3.4956 C   0  0  0  0  0  0  0  0  0  0  0  0
    3.1818   -2.0832   -2.4854 N   0  0  0  0  0  0  0  0  0  0  0  0
    3.6611   -3.4076   -2.8546 C   0  0  0  0  0  0  0  0  0  0  0  0
    5.1528   -3.6014   -2.5472 C   0  0  0  0  0  0  0  0  0  0  0  0
    5.5424   -3.1466   -1.1156 C   0  0  1  0  0  0  0  0  0  0  0  0
    4.8768   -3.9777   -0.0471 C   0  0  0  0  0  0  0  0  0  0  0  0
    3.5621   -3.8240    0.4181 C   0  0  0  0  0  0  0  0  0  0  0  0
    3.1408   -4.6955    1.4541 C   0  0  0  0  0  0  0  0  0  0  0  0
    4.0378   -5.6914    1.9244 C   0  0  0  0  0  0  0  0  0  0  0  0
    5.3804   -5.7426    1.4541 C   0  0  0  0  0  0  0  0  0  0  0  0
    6.2479   -6.6662    1.9693 O   0  0  0  0  0  0  0  0  0  0  0  0
    5.8327   -4.8146    0.4918 C   0  0  0  0  0  0  0  0  0  0  0  0
    7.1061   -4.5298    0.0796 O   0  0  0  0  0  0  0  0  0  0  0  0
    7.0426   -3.5131   -0.8976 C   0  0  2  0  0  0  0  0  0  0  0  0
    7.9729   -2.4754   -0.5620 N   0  0  0  0  0  0  0  0  0  0  0  0
    7.9425   -1.6072    0.4535 C   0  0  0  0  0  0  0  0  0  0  0  0
    9.0068   -1.1209    0.8025 O   0  0  0  0  0  0  0  0  0  0  0  0
    6.6814   -1.1714    1.0236 C   0  0  0  0  0  0  0  0  0  0  0  0
    5.4948   -1.1287    0.3970 C   0  0  0  0  0  0  0  0  0  0  0  0
    5.1276   -1.6824   -0.9567 C   0  0  2  0  0  0  0  0  0  0  0  0
    3.5780   -1.6816   -1.1304 C   0  0  2  0  0  0  0  0  0  0  0  0
    2.8323   -2.5979   -0.1099 C   0  0  0  0  0  0  0  0  0  0  0  0
    2.9507   -1.3707   -4.4358 H   0  0  0  0  0  0  0  0  0  0  0  0
    4.4814   -0.8982   -3.6631 H   0  0  0  0  0  0  0  0  0  0  0  0
    2.9481   -0.1284   -3.1882 H   0  0  0  0  0  0  0  0  0  0  0  0
    3.0929   -4.1182   -2.2638 H   0  0  0  0  0  0  0  0  0  0  0  0
    3.4453   -3.6102   -3.9035 H   0  0  0  0  0  0  0  0  0  0  0  0
    5.4020   -4.6508   -2.7074 H   0  0  0  0  0  0  0  0  0  0  0  0
    5.7319   -3.0279   -3.2703 H   0  0  0  0  0  0  0  0  0  0  0  0
    2.1662   -4.5896    1.9042 H   0  0  0  0  0  0  0  0  0  0  0  0
    3.7302   -6.3694    2.7024 H   0  0  0  0  0  0  0  0  0  0  0  0
    7.1149   -6.5885    1.6016 H   0  0  0  0  0  0  0  0  0  0  0  0
    7.4687   -3.8528   -1.8466 H   0  0  0  0  0  0  0  0  0  0  0  0
    8.9194   -2.7049   -0.8092 H   0  0  0  0  0  0  0  0  0  0  0  0
    6.7047   -0.7128    2.0099 H   0  0  0  0  0  0  0  0  0  0  0  0
    4.6639   -0.6807    0.9269 H   0  0  0  0  0  0  0  0  0  0  0  0
    5.6003   -1.0521   -1.7073 H   0  0  0  0  0  0  0  0  0  0  0  0
    3.1943   -0.6716   -0.9897 H   0  0  0  0  0  0  0  0  0  0  0  0
    1.8630   -2.9153   -0.4938 H   0  0  0  0  0  0  0  0  0  0  0  0
    2.6278   -1.9804    0.7614 H   0  0  0  0  0  0  0  0  0  0  0  0
  1  2  1  0
  1 23  1  0
  1 24  1  0
  1 25  1  0
  2 21  1  0
  2  3  1  0
  3  4  1  0
  3 26  1  0
  3 27  1  0
  5  4  1  6
  4 28  1  0
  4 29  1  0
  5 14  1  0
  5 20  1  0
  5  6  1  0
  6 12  2  0
  6  7  1  0
  7 22  1  0
  7  8  2  0
  8  9  1  0
  8 30  1  0
  9 10  2  0
  9 31  1  0
 10 11  1  0
 10 12  1  0
 11 32  1  0
 12 13  1  0
 13 14  1  0
 14 15  1  0
 14 33  1  6
 15 16  1  0
 15 34  1  0
 16 17  2  0
 16 18  1  0
 18 19  2  0
 18 35  1  0
 19 20  1  0
 19 36  1  0
 20 21  1  0
 20 37  1  6
 21 22  1  0
 21 38  1  1
 22 39  1  0
 22 40  1  0
M  END
>  <i_m_ct_stereo_status>  (88) 
1

>  <s_m_source_file>  (88) 
/var/tmp/pbs.5076255.sched01/tmp44bw07az/09l6mph0o.sdf

>  <i_m_source_file_index>  (88) 
36

>  <i_lp_mmshare_version>  (88) 
48012

>  <i_f3d_flags>  (88) 
0

>  <s_epik_input>  (88) 
W0NIMl0xW0NIMl1OKFtDSDNdKVtDQEBIXShbQ0gyXTIpW0NASF0zW0NIXT1bQ0hdQyg9TylbTkhdW0NASF00T2M1YyhbT0hdKVtjSF1bY0hdYzJjNVtDQEBdMTM0

>  <s_epik_cmdline>  (88) 
J2VwaWtfcHl0aG9uJywgJy1waHQnLCAnMi4wJywgJy1waCcsICc3LjAnLCAnLXRuJywgJzgnLCAnLW1hJywgJzIwMCcsICctaW1hZScsICc8aW5maWxlLm1hZT4nLCAnLW9tYWUnLCAnPG91dGZpbGUubWFlPic=

>  <r_lp_tautomer_probability>  (88) 
1

>  <r_epik_Ionization_Penalty>  (88) 
0.782912

>  <r_epik_Ionization_Penalty_Charging>  (88) 
0

>  <r_epik_Ionization_Penalty_Neutral>  (88) 
0.782912

>  <r_epik_State_Penalty>  (88) 
0.655088

>  <r_epik_Charging_Adjusted_Penalty>  (88) 
0.655088

>  <i_epik_Tot_Q>  (88) 
0

>  <i_epik_Tot_abs_Q>  (88) 
0

>  <s_epik_Chemistry_Notes>  (88) 
This compound contains an acetal/aminal-like group ( X-CH(R)-Y where X, Y are N, S, or O) that may be acid/base labile, releasing an aldehyde.

>  <s_lp_Force_Field>  (88) 
OPLS3e

>  <r_lp_Energy>  (88) 
43.6134

>  <b_lp_Chiralities_Consistent>  (88) 
1

>  <s_lp_Variant>  (88) 
15:0-2

>  <s_i_glide_gridfile>  (88) 
pfpi4k_grid

>  <i_i_glide_lignum>  (88) 
36

>  <i_i_glide_rotatable_bonds>  (88) 
1

>  <r_i_docking_score>  (88) 
-3.45119

>  <r_i_glide_ligand_efficiency>  (88) 
-0.156872

>  <r_i_glide_ligand_efficiency_sa>  (88) 
-0.439563

>  <r_i_glide_ligand_efficiency_ln>  (88) 
-0.843598

>  <r_i_glide_gscore>  (88) 
-3.45119

>  <r_i_glide_lipo>  (88) 
-0.710512

>  <r_i_glide_hbond>  (88) 
0

>  <r_i_glide_metal>  (88) 
-0

>  <r_i_glide_rewards>  (88) 
-1.56178

>  <r_i_glide_evdw>  (88) 
-17.7676

>  <r_i_glide_ecoul>  (88) 
-1.53021

>  <r_i_glide_erotb>  (88) 
0

>  <r_i_glide_esite>  (88) 
-0.0609873

>  <r_i_glide_emodel>  (88) 
-23.56

>  <r_i_glide_energy>  (88) 
-19.2978

>  <r_i_glide_einternal>  (88) 
0.0242594

>  <r_i_glide_intrahb_reward>  (88) 
-0

>  <i_i_glide_confnum>  (88) 
1

>  <i_i_glide_posenum>  (88) 
33

>  <r_i_glide_eff_state_penalty>  (88) 
0

>  <ligand_id>  (88) 
15

>  <original_smiles>  (88) 
CN1CCC23c4c5ccc(O)c4OC2NC(=O)C=CC3C1C5

>  <smiles>  (88) 
[H]Oc1c([H])c([H])c2c3c1OC1([H])N([H])C(=O)C([H])=C([H])C4([H])C([H])(N(C([H])([H])[H])C([H])([H])C([H])([H])C314)C2([H])[H]

$$$$
16:0:0
     RDKit          3D

 18 20  0  0  1  0  0  0  0  0999 V2000
    4.1122   -0.3002   -3.9675 C   0  0  0  0  0  0  0  0  0  0  0  0
    3.6174   -1.4429   -3.2425 N   0  0  0  0  0  0  0  0  0  0  0  0
    2.9727   -2.4722   -3.8965 N   0  0  0  0  0  0  0  0  0  0  0  0
    2.5809   -3.3910   -2.9836 C   0  0  0  0  0  0  0  0  0  0  0  0
    3.0326   -2.9775   -1.7124 C   0  0  0  0  0  0  0  0  0  0  0  0
    3.6722   -1.7591   -1.9185 C   0  0  0  0  0  0  0  0  0  0  0  0
    4.2447   -1.0634   -0.8691 N   0  0  0  0  0  0  0  0  0  0  0  0
    4.1451   -1.5926    0.3868 C   0  0  0  0  0  0  0  0  0  0  0  0
    3.4985   -2.8090    0.5470 N   0  0  0  0  0  0  0  0  0  0  0  0
    3.3098   -3.4972    1.6988 N   0  0  0  0  0  0  0  0  0  0  0  0
    2.6493   -4.5844    1.3099 N   0  0  0  0  0  0  0  0  0  0  0  0
    2.3837   -4.6337   -0.0792 N   0  0  0  0  0  0  0  0  0  0  0  0
    2.9486   -3.5226   -0.3997 C   0  0  0  0  0  0  0  0  0  0  0  0
    4.6054    0.3973   -3.2827 H   0  0  0  0  0  0  0  0  0  0  0  0
    3.2970    0.2211   -4.4671 H   0  0  0  0  0  0  0  0  0  0  0  0
    4.8274   -0.6455   -4.7134 H   0  0  0  0  0  0  0  0  0  0  0  0
    2.0273   -4.2604   -3.3060 H   0  0  0  0  0  0  0  0  0  0  0  0
    4.5690   -1.0860    1.2436 H   0  0  0  0  0  0  0  0  0  0  0  0
  1  2  1  0
  1 14  1  0
  1 15  1  0
  1 16  1  0
  2  6  1  0
  2  3  1  0
  3  4  2  0
  4  5  1  0
  4 17  1  0
  5 13  1  0
  5  6  2  0
  6  7  1  0
  7  8  2  0
  8  9  1  0
  8 18  1  0
  9 13  1  0
  9 10  1  0
 10 11  2  0
 11 12  1  0
 12 13  2  0
M  END
>  <i_m_ct_stereo_status>  (89) 
1

>  <s_m_source_file>  (89) 
/var/tmp/pbs.5076255.sched01/tmp44bw07az/09l6mph0o.sdf

>  <i_m_source_file_index>  (89) 
37

>  <i_lp_mmshare_version>  (89) 
48012

>  <i_f3d_flags>  (89) 
0

>  <s_epik_input>  (89) 
W2NIXTFubihbQ0gzXSljKGMxMiluW2NIXW4zYzJubm4z

>  <s_epik_cmdline>  (89) 
J2VwaWtfcHl0aG9uJywgJy1waHQnLCAnMi4wJywgJy1waCcsICc3LjAnLCAnLXRuJywgJzgnLCAnLW1hJywgJzIwMCcsICctaW1hZScsICc8aW5maWxlLm1hZT4nLCAnLW9tYWUnLCAnPG91dGZpbGUubWFlPic=

>  <r_lp_tautomer_probability>  (89) 
1

>  <r_epik_Ionization_Penalty>  (89) 
5.6637e-11

>  <r_epik_Ionization_Penalty_Charging>  (89) 
0

>  <r_epik_Ionization_Penalty_Neutral>  (89) 
5.6637e-11

>  <r_epik_State_Penalty>  (89) 
-0

>  <r_epik_Charging_Adjusted_Penalty>  (89) 
0

>  <i_epik_Tot_Q>  (89) 
0

>  <i_epik_Tot_abs_Q>  (89) 
0

>  <s_lp_Force_Field>  (89) 
OPLS3e

>  <r_lp_Energy>  (89) 
17.4927

>  <b_lp_Chiralities_Consistent>  (89) 
1

>  <s_lp_Variant>  (89) 
16:0-1

>  <s_i_glide_gridfile>  (89) 
pfpi4k_grid

>  <i_i_glide_lignum>  (89) 
37

>  <i_i_glide_rotatable_bonds>  (89) 
0

>  <r_i_docking_score>  (89) 
-4.21929

>  <r_i_glide_ligand_efficiency>  (89) 
-0.32456

>  <r_i_glide_ligand_efficiency_sa>  (89) 
-0.76315

>  <r_i_glide_ligand_efficiency_ln>  (89) 
-1.18355

>  <r_i_glide_gscore>  (89) 
-4.21929

>  <r_i_glide_lipo>  (89) 
-0.407645

>  <r_i_glide_hbond>  (89) 
0

>  <r_i_glide_metal>  (89) 
-0

>  <r_i_glide_rewards>  (89) 
-2.32793

>  <r_i_glide_evdw>  (89) 
-18.3159

>  <r_i_glide_ecoul>  (89) 
-2.57957

>  <r_i_glide_erotb>  (89) 
0

>  <r_i_glide_esite>  (89) 
-0.180985

>  <r_i_glide_emodel>  (89) 
-27.3685

>  <r_i_glide_energy>  (89) 
-20.8955

>  <r_i_glide_einternal>  (89) 
0

>  <r_i_glide_intrahb_reward>  (89) 
-0

>  <i_i_glide_confnum>  (89) 
1

>  <i_i_glide_posenum>  (89) 
2

>  <r_i_glide_eff_state_penalty>  (89) 
0

>  <ligand_id>  (89) 
16

>  <original_smiles>  (89) 
Cn1ncc2c1ncn1nnnc21

>  <smiles>  (89) 
[H]c1nn(C([H])([H])[H])c2nc([H])n3nnnc3c12

$$$$
16:0:1
     RDKit          3D

 18 20  0  0  1  0  0  0  0  0999 V2000
    4.2069   -0.5766   -3.4661 C   0  0  0  0  0  0  0  0  0  0  0  0
    4.4119   -1.4760   -2.3436 N   0  0  0  0  0  0  0  0  0  0  0  0
    5.5717   -1.4454   -1.5807 N   0  0  0  0  0  0  0  0  0  0  0  0
    5.4929   -2.3747   -0.5923 C   0  0  0  0  0  0  0  0  0  0  0  0
    4.2483   -3.0249   -0.7244 C   0  0  0  0  0  0  0  0  0  0  0  0
    3.6256   -2.4558   -1.8323 C   0  0  0  0  0  0  0  0  0  0  0  0
    2.3910   -2.9053   -2.2647 N   0  0  0  0  0  0  0  0  0  0  0  0
    1.7591   -3.8547   -1.5197 C   0  0  0  0  0  0  0  0  0  0  0  0
    2.4116   -4.3986   -0.4236 N   0  0  0  0  0  0  0  0  0  0  0  0
    2.0023   -5.4217    0.3658 N   0  0  0  0  0  0  0  0  0  0  0  0
    3.0086   -5.5756    1.2193 N   0  0  0  0  0  0  0  0  0  0  0  0
    4.0942   -4.6891    1.0063 N   0  0  0  0  0  0  0  0  0  0  0  0
    3.5992   -4.0604    0.0045 C   0  0  0  0  0  0  0  0  0  0  0  0
    3.2356   -0.7555   -3.9323 H   0  0  0  0  0  0  0  0  0  0  0  0
    4.9766   -0.7459   -4.2163 H   0  0  0  0  0  0  0  0  0  0  0  0
    4.2451    0.4623   -3.1330 H   0  0  0  0  0  0  0  0  0  0  0  0
    6.3095   -2.4937    0.1088 H   0  0  0  0  0  0  0  0  0  0  0  0
    0.7910   -4.2242   -1.8201 H   0  0  0  0  0  0  0  0  0  0  0  0
  1  2  1  0
  1 14  1  0
  1 15  1  0
  1 16  1  0
  2  6  1  0
  2  3  1  0
  3  4  2  0
  4  5  1  0
  4 17  1  0
  5 13  1  0
  5  6  2  0
  6  7  1  0
  7  8  2  0
  8  9  1  0
  8 18  1  0
  9 13  1  0
  9 10  1  0
 10 11  2  0
 11 12  1  0
 12 13  2  0
M  END
>  <i_m_ct_stereo_status>  (90) 
1

>  <s_m_source_file>  (90) 
/var/tmp/pbs.5076255.sched01/tmp44bw07az/09l6mph0o.sdf

>  <i_m_source_file_index>  (90) 
37

>  <i_lp_mmshare_version>  (90) 
48012

>  <i_f3d_flags>  (90) 
0

>  <s_epik_input>  (90) 
W2NIXTFubihbQ0gzXSljKGMxMiluW2NIXW4zYzJubm4z

>  <s_epik_cmdline>  (90) 
J2VwaWtfcHl0aG9uJywgJy1waHQnLCAnMi4wJywgJy1waCcsICc3LjAnLCAnLXRuJywgJzgnLCAnLW1hJywgJzIwMCcsICctaW1hZScsICc8aW5maWxlLm1hZT4nLCAnLW9tYWUnLCAnPG91dGZpbGUubWFlPic=

>  <r_lp_tautomer_probability>  (90) 
1

>  <r_epik_Ionization_Penalty>  (90) 
5.6637e-11

>  <r_epik_Ionization_Penalty_Charging>  (90) 
0

>  <r_epik_Ionization_Penalty_Neutral>  (90) 
5.6637e-11

>  <r_epik_State_Penalty>  (90) 
-0

>  <r_epik_Charging_Adjusted_Penalty>  (90) 
0

>  <i_epik_Tot_Q>  (90) 
0

>  <i_epik_Tot_abs_Q>  (90) 
0

>  <s_lp_Force_Field>  (90) 
OPLS3e

>  <r_lp_Energy>  (90) 
17.4927

>  <b_lp_Chiralities_Consistent>  (90) 
1

>  <s_lp_Variant>  (90) 
16:0-1

>  <s_i_glide_gridfile>  (90) 
pfpi4k_grid

>  <i_i_glide_lignum>  (90) 
37

>  <i_i_glide_rotatable_bonds>  (90) 
0

>  <r_i_docking_score>  (90) 
-4.02727

>  <r_i_glide_ligand_efficiency>  (90) 
-0.30979

>  <r_i_glide_ligand_efficiency_sa>  (90) 
-0.728421

>  <r_i_glide_ligand_efficiency_ln>  (90) 
-1.12969

>  <r_i_glide_gscore>  (90) 
-4.02727

>  <r_i_glide_lipo>  (90) 
-0.220946

>  <r_i_glide_hbond>  (90) 
-0.0224119

>  <r_i_glide_metal>  (90) 
-0

>  <r_i_glide_rewards>  (90) 
-2.21488

>  <r_i_glide_evdw>  (90) 
-15.4516

>  <r_i_glide_ecoul>  (90) 
-3.52903

>  <r_i_glide_erotb>  (90) 
0

>  <r_i_glide_esite>  (90) 
-0.267101

>  <r_i_glide_emodel>  (90) 
-25.1356

>  <r_i_glide_energy>  (90) 
-18.9806

>  <r_i_glide_einternal>  (90) 
0

>  <r_i_glide_intrahb_reward>  (90) 
-0

>  <i_i_glide_confnum>  (90) 
2

>  <i_i_glide_posenum>  (90) 
17

>  <r_i_glide_eff_state_penalty>  (90) 
0

>  <ligand_id>  (90) 
16

>  <original_smiles>  (90) 
Cn1ncc2c1ncn1nnnc21

>  <smiles>  (90) 
[H]c1nn(C([H])([H])[H])c2nc([H])n3nnnc3c12

$$$$
16:0:2
     RDKit          3D

 18 20  0  0  1  0  0  0  0  0999 V2000
    0.0142    5.0914    3.4313 C   0  0  0  0  0  0  0  0  0  0  0  0
   -0.6476    3.9482    4.0290 N   0  0  0  0  0  0  0  0  0  0  0  0
   -1.7874    4.1037    4.7973 N   0  0  0  0  0  0  0  0  0  0  0  0
   -2.2058    2.8915    5.2406 C   0  0  0  0  0  0  0  0  0  0  0  0
   -1.3023    1.9200    4.7426 C   0  0  0  0  0  0  0  0  0  0  0  0
   -0.3524    2.6174    3.9997 C   0  0  0  0  0  0  0  0  0  0  0  0
    0.6922    1.9526    3.3825 N   0  0  0  0  0  0  0  0  0  0  0  0
    0.7663    0.5970    3.5028 C   0  0  0  0  0  0  0  0  0  0  0  0
   -0.1996   -0.0566    4.2525 N   0  0  0  0  0  0  0  0  0  0  0  0
   -0.2973   -1.3817    4.5155 N   0  0  0  0  0  0  0  0  0  0  0  0
   -1.3751   -1.4725    5.2884 N   0  0  0  0  0  0  0  0  0  0  0  0
   -2.0097   -0.2391    5.5525 N   0  0  0  0  0  0  0  0  0  0  0  0
   -1.2082    0.5055    4.8718 C   0  0  0  0  0  0  0  0  0  0  0  0
    0.8985    4.7652    2.8858 H   0  0  0  0  0  0  0  0  0  0  0  0
    0.3227    5.7939    4.2028 H   0  0  0  0  0  0  0  0  0  0  0  0
   -0.6614    5.5953    2.7422 H   0  0  0  0  0  0  0  0  0  0  0  0
   -3.0916    2.8084    5.8606 H   0  0  0  0  0  0  0  0  0  0  0  0
    1.5693    0.0381    3.0385 H   0  0  0  0  0  0  0  0  0  0  0  0
  1  2  1  0
  1 14  1  0
  1 15  1  0
  1 16  1  0
  2  6  1  0
  2  3  1  0
  3  4  2  0
  4  5  1  0
  4 17  1  0
  5 13  1  0
  5  6  2  0
  6  7  1  0
  7  8  2  0
  8  9  1  0
  8 18  1  0
  9 13  1  0
  9 10  1  0
 10 11  2  0
 11 12  1  0
 12 13  2  0
M  END
>  <i_m_ct_stereo_status>  (91) 
1

>  <s_m_source_file>  (91) 
/var/tmp/pbs.5076255.sched01/tmp44bw07az/09l6mph0o.sdf

>  <i_m_source_file_index>  (91) 
37

>  <i_lp_mmshare_version>  (91) 
48012

>  <i_f3d_flags>  (91) 
0

>  <s_epik_input>  (91) 
W2NIXTFubihbQ0gzXSljKGMxMiluW2NIXW4zYzJubm4z

>  <s_epik_cmdline>  (91) 
J2VwaWtfcHl0aG9uJywgJy1waHQnLCAnMi4wJywgJy1waCcsICc3LjAnLCAnLXRuJywgJzgnLCAnLW1hJywgJzIwMCcsICctaW1hZScsICc8aW5maWxlLm1hZT4nLCAnLW9tYWUnLCAnPG91dGZpbGUubWFlPic=

>  <r_lp_tautomer_probability>  (91) 
1

>  <r_epik_Ionization_Penalty>  (91) 
5.6637e-11

>  <r_epik_Ionization_Penalty_Charging>  (91) 
0

>  <r_epik_Ionization_Penalty_Neutral>  (91) 
5.6637e-11

>  <r_epik_State_Penalty>  (91) 
-0

>  <r_epik_Charging_Adjusted_Penalty>  (91) 
0

>  <i_epik_Tot_Q>  (91) 
0

>  <i_epik_Tot_abs_Q>  (91) 
0

>  <s_lp_Force_Field>  (91) 
OPLS3e

>  <r_lp_Energy>  (91) 
17.4927

>  <b_lp_Chiralities_Consistent>  (91) 
1

>  <s_lp_Variant>  (91) 
16:0-1

>  <s_i_glide_gridfile>  (91) 
pfpi4k_grid

>  <i_i_glide_lignum>  (91) 
37

>  <i_i_glide_rotatable_bonds>  (91) 
0

>  <r_i_docking_score>  (91) 
-3.93877

>  <r_i_glide_ligand_efficiency>  (91) 
-0.302982

>  <r_i_glide_ligand_efficiency_sa>  (91) 
-0.712412

>  <r_i_glide_ligand_efficiency_ln>  (91) 
-1.10486

>  <r_i_glide_gscore>  (91) 
-3.93877

>  <r_i_glide_lipo>  (91) 
0

>  <r_i_glide_hbond>  (91) 
0

>  <r_i_glide_metal>  (91) 
-0

>  <r_i_glide_rewards>  (91) 
-2.21488

>  <r_i_glide_evdw>  (91) 
-15.8904

>  <r_i_glide_ecoul>  (91) 
-4.13616

>  <r_i_glide_erotb>  (91) 
0

>  <r_i_glide_esite>  (91) 
-0.30894

>  <r_i_glide_emodel>  (91) 
-26.0772

>  <r_i_glide_energy>  (91) 
-20.0266

>  <r_i_glide_einternal>  (91) 
0

>  <r_i_glide_intrahb_reward>  (91) 
-0

>  <i_i_glide_confnum>  (91) 
2

>  <i_i_glide_posenum>  (91) 
33

>  <r_i_glide_eff_state_penalty>  (91) 
0

>  <ligand_id>  (91) 
16

>  <original_smiles>  (91) 
Cn1ncc2c1ncn1nnnc21

>  <smiles>  (91) 
[H]c1nn(C([H])([H])[H])c2nc([H])n3nnnc3c12

$$$$
17:0:0
     RDKit          3D

 34 37  0  0  1  0  0  0  0  0999 V2000
   -2.2221    2.4130    8.7705 C   0  0  0  0  0  0  0  0  0  0  0  0
   -1.7505    3.4018    7.7043 C   0  0  1  0  0  0  0  0  0  0  0  0
   -0.3633    3.1444    7.3321 N   0  0  0  0  0  0  0  0  0  0  0  0
   -0.3473    3.2595    6.0507 C   0  0  0  0  0  0  0  0  0  0  0  0
   -1.5196    3.5264    5.4060 N   0  0  0  0  0  0  0  0  0  0  0  0
   -2.5383    3.2561    6.3785 C   0  0  0  0  0  0  0  0  0  0  0  0
   -1.4535    3.0587    4.0470 C   0  0  1  0  0  0  0  0  0  0  0  0
   -2.4255    3.7249    3.0614 C   0  0  0  0  0  0  0  0  0  0  0  0
   -3.3384    2.9488    2.4796 N   0  0  0  0  0  0  0  0  0  0  0  0
   -2.4142    4.9425    2.8747 O   0  0  0  0  0  0  0  0  0  0  0  0
    0.0755    3.1695    3.7515 C   0  0  2  0  0  0  0  0  0  0  0  0
    0.4100    4.4570    3.2854 O   0  0  0  0  0  0  0  0  0  0  0  0
    0.5610    2.0858    2.7937 C   0  0  2  0  0  0  0  0  0  0  0  0
    1.4738    1.9946    1.7001 O   0  0  0  0  0  0  0  0  0  0  0  0
    2.0988    2.3543    2.9033 C   0  0  2  0  0  0  0  0  0  0  0  0
    2.5063    1.6058    4.1364 C   0  0  1  0  0  0  0  0  0  0  0  0
    3.9109    1.5990    4.2396 O   0  0  0  0  0  0  0  0  0  0  0  0
    1.8363    2.3386    5.3417 C   0  0  0  0  0  0  0  0  0  0  0  0
    2.3565    2.2498    6.4578 O   0  0  0  0  0  0  0  0  0  0  0  0
    0.6512    2.9840    5.1058 N   0  0  0  0  0  0  0  0  0  0  0  0
   -3.2790    2.5546    9.0027 H   0  0  0  0  0  0  0  0  0  0  0  0
   -1.6489    2.5178    9.6916 H   0  0  0  0  0  0  0  0  0  0  0  0
   -2.0891    1.3939    8.4105 H   0  0  0  0  0  0  0  0  0  0  0  0
   -1.8556    4.4200    8.0896 H   0  0  0  0  0  0  0  0  0  0  0  0
   -3.3578    3.9634    6.2847 H   0  0  0  0  0  0  0  0  0  0  0  0
   -2.9360    2.2494    6.2441 H   0  0  0  0  0  0  0  0  0  0  0  0
   -1.7175    1.9984    4.1078 H   0  0  0  0  0  0  0  0  0  0  0  0
   -3.3822    1.9452    2.6530 H   0  0  0  0  0  0  0  0  0  0  0  0
   -3.9736    3.3770    1.8176 H   0  0  0  0  0  0  0  0  0  0  0  0
    0.2217    4.4747    2.3219 H   0  0  0  0  0  0  0  0  0  0  0  0
    0.1906    1.0927    3.0442 H   0  0  0  0  0  0  0  0  0  0  0  0
    2.5277    3.3497    2.8304 H   0  0  0  0  0  0  0  0  0  0  0  0
    2.1543    0.5809    4.0539 H   0  0  0  0  0  0  0  0  0  0  0  0
    4.2645    1.4629    3.3712 H   0  0  0  0  0  0  0  0  0  0  0  0
  1 21  1  0
  1 22  1  0
  1 23  1  0
  1  2  1  0
  2  6  1  0
  2 24  1  1
  2  3  1  0
  3  4  2  0
  4  5  1  0
  4 20  1  0
  5  7  1  0
  5  6  1  0
  6 25  1  0
  6 26  1  0
  7  8  1  0
  7 11  1  0
  7 27  1  1
  8  9  1  0
  8 10  2  0
  9 28  1  0
  9 29  1  0
 11 20  1  0
 11 12  1  6
 11 13  1  0
 12 30  1  0
 13 15  1  0
 13 14  1  0
 13 31  1  1
 14 15  1  0
 15 16  1  0
 15 32  1  6
 16 17  1  0
 16 18  1  0
 16 33  1  6
 17 34  1  0
 18 19  2  0
 18 20  1  0
M  END
>  <i_m_ct_stereo_status>  (92) 
1

>  <s_m_source_file>  (92) 
/var/tmp/pbs.5076255.sched01/tmp44bw07az/09l6mph0o.sdf

>  <i_m_source_file_index>  (92) 
38

>  <i_lp_mmshare_version>  (92) 
48012

>  <i_f3d_flags>  (92) 
0

>  <s_epik_input>  (92) 
W0NIM11DKD1OMSlbQ0gyXU4oW0NASF0yQyg9TylbTkgyXSlbQ0BASF0xTjNDKD1PKVtDQEhdKFtPSF0pW0NAQEhdKE80KVtDQEhdNFtDQEBdMjNbT0hd

>  <s_epik_cmdline>  (92) 
J2VwaWtfcHl0aG9uJywgJy1waHQnLCAnMi4wJywgJy1waCcsICc3LjAnLCAnLXRuJywgJzgnLCAnLW1hJywgJzIwMCcsICctaW1hZScsICc8aW5maWxlLm1hZT4nLCAnLW9tYWUnLCAnPG91dGZpbGUubWFlPic=

>  <r_lp_tautomer_probability>  (92) 
1

>  <r_epik_Ionization_Penalty>  (92) 
0.247522

>  <r_epik_Ionization_Penalty_Charging>  (92) 
0

>  <r_epik_Ionization_Penalty_Neutral>  (92) 
0.247522

>  <r_epik_State_Penalty>  (92) 
0.237798

>  <r_epik_Charging_Adjusted_Penalty>  (92) 
0.237798

>  <i_epik_Tot_Q>  (92) 
0

>  <i_epik_Tot_abs_Q>  (92) 
0

>  <s_epik_Chemistry_Notes>  (92) 
This compound has an imine and may undergo hydrolysis.

>  <s_lp_Force_Field>  (92) 
OPLS3e

>  <r_lp_Energy>  (92) 
43.517

>  <b_lp_Chiralities_Consistent>  (92) 
1

>  <s_lp_Variant>  (92) 
17:0-1

>  <s_i_glide_gridfile>  (92) 
pfpi4k_grid

>  <i_i_glide_lignum>  (92) 
38

>  <i_i_glide_rotatable_bonds>  (92) 
3

>  <r_i_docking_score>  (92) 
-5.38131

>  <r_i_glide_ligand_efficiency>  (92) 
-0.269066

>  <r_i_glide_ligand_efficiency_sa>  (92) 
-0.730356

>  <r_i_glide_ligand_efficiency_ln>  (92) 
-1.34676

>  <r_i_glide_gscore>  (92) 
-5.38131

>  <r_i_glide_lipo>  (92) 
-0.144657

>  <r_i_glide_hbond>  (92) 
-0.445037

>  <r_i_glide_metal>  (92) 
-0

>  <r_i_glide_rewards>  (92) 
-1.48464

>  <r_i_glide_evdw>  (92) 
-17.1282

>  <r_i_glide_ecoul>  (92) 
-15.2023

>  <r_i_glide_erotb>  (92) 
0

>  <r_i_glide_esite>  (92) 
-0.170215

>  <r_i_glide_emodel>  (92) 
-43.1508

>  <r_i_glide_energy>  (92) 
-32.3305

>  <r_i_glide_einternal>  (92) 
0.947255

>  <r_i_glide_intrahb_reward>  (92) 
-0

>  <i_i_glide_confnum>  (92) 
2

>  <i_i_glide_posenum>  (92) 
25

>  <r_i_glide_eff_state_penalty>  (92) 
0

>  <ligand_id>  (92) 
17

>  <original_smiles>  (92) 
CC1=NC2N(C1)C(C(N)=O)C1(O)C3OC3C(O)C(=O)N21

>  <smiles>  (92) 
[H]OC1([H])C(=O)N2C3=NC([H])(C([H])([H])[H])C([H])([H])N3C([H])(C(=O)N([H])[H])C2(O[H])C2([H])OC12[H]

$$$$
17:0:1
     RDKit          3D

 34 37  0  0  1  0  0  0  0  0999 V2000
   -2.2679    2.3686    8.7977 C   0  0  0  0  0  0  0  0  0  0  0  0
   -1.7409    3.3227    7.7257 C   0  0  1  0  0  0  0  0  0  0  0  0
   -0.3747    2.9694    7.3449 N   0  0  0  0  0  0  0  0  0  0  0  0
   -0.3627    3.0699    6.0607 C   0  0  0  0  0  0  0  0  0  0  0  0
   -1.5167    3.4167    5.4265 N   0  0  0  0  0  0  0  0  0  0  0  0
   -2.5450    3.2251    6.4083 C   0  0  0  0  0  0  0  0  0  0  0  0
   -1.5012    2.9390    4.0673 C   0  0  1  0  0  0  0  0  0  0  0  0
   -2.4266    3.6726    3.0831 C   0  0  0  0  0  0  0  0  0  0  0  0
   -3.3873    2.9595    2.5067 N   0  0  0  0  0  0  0  0  0  0  0  0
   -2.3307    4.8815    2.8757 O   0  0  0  0  0  0  0  0  0  0  0  0
    0.0276    2.9426    3.7593 C   0  0  2  0  0  0  0  0  0  0  0  0
    0.4499    4.2033    3.2871 O   0  0  0  0  0  0  0  0  0  0  0  0
    0.4359    1.8275    2.8028 C   0  0  2  0  0  0  0  0  0  0  0  0
    1.3042    1.7027    1.6801 O   0  0  0  0  0  0  0  0  0  0  0  0
    1.9871    1.9927    2.8792 C   0  0  2  0  0  0  0  0  0  0  0  0
    2.3576    1.2174    4.1147 C   0  0  1  0  0  0  0  0  0  0  0  0
    3.7672    1.1001    4.1853 O   0  0  0  0  0  0  0  0  0  0  0  0
    1.7532    2.0062    5.3257 C   0  0  0  0  0  0  0  0  0  0  0  0
    2.2906    1.8967    6.4328 O   0  0  0  0  0  0  0  0  0  0  0  0
    0.6069    2.7156    5.1064 N   0  0  0  0  0  0  0  0  0  0  0  0
   -3.3129    2.5698    9.0394 H   0  0  0  0  0  0  0  0  0  0  0  0
   -1.6816    2.4341    9.7137 H   0  0  0  0  0  0  0  0  0  0  0  0
   -2.2031    1.3442    8.4359 H   0  0  0  0  0  0  0  0  0  0  0  0
   -1.7777    4.3463    8.1077 H   0  0  0  0  0  0  0  0  0  0  0  0
   -3.3185    3.9829    6.3162 H   0  0  0  0  0  0  0  0  0  0  0  0
   -2.9952    2.2421    6.2768 H   0  0  0  0  0  0  0  0  0  0  0  0
   -1.8373    1.9000    4.1375 H   0  0  0  0  0  0  0  0  0  0  0  0
   -3.4721    1.9529    2.6722 H   0  0  0  0  0  0  0  0  0  0  0  0
   -3.9979    3.4181    1.8448 H   0  0  0  0  0  0  0  0  0  0  0  0
    0.2607    4.2365    2.3253 H   0  0  0  0  0  0  0  0  0  0  0  0
    0.0047    0.8589    3.0518 H   0  0  0  0  0  0  0  0  0  0  0  0
    2.4772    2.9573    2.8060 H   0  0  0  0  0  0  0  0  0  0  0  0
    1.9302    0.2177    4.0632 H   0  0  0  0  0  0  0  0  0  0  0  0
    4.1565    1.9143    3.8987 H   0  0  0  0  0  0  0  0  0  0  0  0
  1 21  1  0
  1 22  1  0
  1 23  1  0
  1  2  1  0
  2  6  1  0
  2 24  1  1
  2  3  1  0
  3  4  2  0
  4  5  1  0
  4 20  1  0
  5  7  1  0
  5  6  1  0
  6 25  1  0
  6 26  1  0
  7  8  1  0
  7 11  1  0
  7 27  1  1
  8  9  1  0
  8 10  2  0
  9 28  1  0
  9 29  1  0
 11 20  1  0
 11 12  1  6
 11 13  1  0
 12 30  1  0
 13 15  1  0
 13 14  1  0
 13 31  1  1
 14 15  1  0
 15 16  1  0
 15 32  1  6
 16 17  1  0
 16 18  1  0
 16 33  1  6
 17 34  1  0
 18 19  2  0
 18 20  1  0
M  END
>  <i_m_ct_stereo_status>  (93) 
1

>  <s_m_source_file>  (93) 
/var/tmp/pbs.5076255.sched01/tmp44bw07az/09l6mph0o.sdf

>  <i_m_source_file_index>  (93) 
38

>  <i_lp_mmshare_version>  (93) 
48012

>  <i_f3d_flags>  (93) 
0

>  <s_epik_input>  (93) 
W0NIM11DKD1OMSlbQ0gyXU4oW0NASF0yQyg9TylbTkgyXSlbQ0BASF0xTjNDKD1PKVtDQEhdKFtPSF0pW0NAQEhdKE80KVtDQEhdNFtDQEBdMjNbT0hd

>  <s_epik_cmdline>  (93) 
J2VwaWtfcHl0aG9uJywgJy1waHQnLCAnMi4wJywgJy1waCcsICc3LjAnLCAnLXRuJywgJzgnLCAnLW1hJywgJzIwMCcsICctaW1hZScsICc8aW5maWxlLm1hZT4nLCAnLW9tYWUnLCAnPG91dGZpbGUubWFlPic=

>  <r_lp_tautomer_probability>  (93) 
1

>  <r_epik_Ionization_Penalty>  (93) 
0.247522

>  <r_epik_Ionization_Penalty_Charging>  (93) 
0

>  <r_epik_Ionization_Penalty_Neutral>  (93) 
0.247522

>  <r_epik_State_Penalty>  (93) 
0.237798

>  <r_epik_Charging_Adjusted_Penalty>  (93) 
0.237798

>  <i_epik_Tot_Q>  (93) 
0

>  <i_epik_Tot_abs_Q>  (93) 
0

>  <s_epik_Chemistry_Notes>  (93) 
This compound has an imine and may undergo hydrolysis.

>  <s_lp_Force_Field>  (93) 
OPLS3e

>  <r_lp_Energy>  (93) 
43.517

>  <b_lp_Chiralities_Consistent>  (93) 
1

>  <s_lp_Variant>  (93) 
17:0-1

>  <s_i_glide_gridfile>  (93) 
pfpi4k_grid

>  <i_i_glide_lignum>  (93) 
38

>  <i_i_glide_rotatable_bonds>  (93) 
3

>  <r_i_docking_score>  (93) 
-5.33288

>  <r_i_glide_ligand_efficiency>  (93) 
-0.266644

>  <r_i_glide_ligand_efficiency_sa>  (93) 
-0.723783

>  <r_i_glide_ligand_efficiency_ln>  (93) 
-1.33464

>  <r_i_glide_gscore>  (93) 
-5.33288

>  <r_i_glide_lipo>  (93) 
-0.144061

>  <r_i_glide_hbond>  (93) 
-0.454261

>  <r_i_glide_metal>  (93) 
-0

>  <r_i_glide_rewards>  (93) 
-1.48464

>  <r_i_glide_evdw>  (93) 
-18.8119

>  <r_i_glide_ecoul>  (93) 
-14.3674

>  <r_i_glide_erotb>  (93) 
0

>  <r_i_glide_esite>  (93) 
-0.154209

>  <r_i_glide_emodel>  (93) 
-43.6575

>  <r_i_glide_energy>  (93) 
-33.1793

>  <r_i_glide_einternal>  (93) 
1.98294

>  <r_i_glide_intrahb_reward>  (93) 
-0

>  <i_i_glide_confnum>  (93) 
2

>  <i_i_glide_posenum>  (93) 
4

>  <r_i_glide_eff_state_penalty>  (93) 
0

>  <ligand_id>  (93) 
17

>  <original_smiles>  (93) 
CC1=NC2N(C1)C(C(N)=O)C1(O)C3OC3C(O)C(=O)N21

>  <smiles>  (93) 
[H]OC1([H])C(=O)N2C3=NC([H])(C([H])([H])[H])C([H])([H])N3C([H])(C(=O)N([H])[H])C2(O[H])C2([H])OC12[H]

$$$$
17:0:2
     RDKit          3D

 34 37  0  0  1  0  0  0  0  0999 V2000
   -2.7628    2.2234    7.3850 C   0  0  0  0  0  0  0  0  0  0  0  0
   -1.2997    2.0002    7.0102 C   0  0  1  0  0  0  0  0  0  0  0  0
   -0.8716    0.6506    7.3729 N   0  0  0  0  0  0  0  0  0  0  0  0
   -0.1751    0.2550    6.3696 C   0  0  0  0  0  0  0  0  0  0  0  0
   -0.0334    1.1005    5.3069 N   0  0  0  0  0  0  0  0  0  0  0  0
   -1.0575    2.0931    5.4887 C   0  0  0  0  0  0  0  0  0  0  0  0
    0.2492    0.3358    4.1124 C   0  0  1  0  0  0  0  0  0  0  0  0
    0.9129    1.1122    2.9591 C   0  0  0  0  0  0  0  0  0  0  0  0
    0.2290    2.1399    2.4676 N   0  0  0  0  0  0  0  0  0  0  0  0
    2.0172    0.7933    2.5107 O   0  0  0  0  0  0  0  0  0  0  0  0
    0.9937   -0.8999    4.7013 C   0  0  2  0  0  0  0  0  0  0  0  0
    2.3843   -0.6457    4.8263 O   0  0  0  0  0  0  0  0  0  0  0  0
    0.7328   -2.1763    3.9134 C   0  0  2  0  0  0  0  0  0  0  0  0
    1.5019   -3.2810    3.4419 O   0  0  0  0  0  0  0  0  0  0  0  0
    1.4359   -3.2076    4.8487 C   0  0  2  0  0  0  0  0  0  0  0  0
    0.3782   -3.4890    5.8830 C   0  0  1  0  0  0  0  0  0  0  0  0
    0.7870   -4.5643    6.7016 O   0  0  0  0  0  0  0  0  0  0  0  0
    0.2023   -2.1710    6.7124 C   0  0  0  0  0  0  0  0  0  0  0  0
   -0.1888   -2.2391    7.8794 O   0  0  0  0  0  0  0  0  0  0  0  0
    0.3842   -0.9898    6.0503 N   0  0  0  0  0  0  0  0  0  0  0  0
   -3.1180    3.1999    7.0494 H   0  0  0  0  0  0  0  0  0  0  0  0
   -2.9138    2.1524    8.4636 H   0  0  0  0  0  0  0  0  0  0  0  0
   -3.3803    1.4652    6.9082 H   0  0  0  0  0  0  0  0  0  0  0  0
   -0.6797    2.7350    7.5313 H   0  0  0  0  0  0  0  0  0  0  0  0
   -0.7082    3.0784    5.1786 H   0  0  0  0  0  0  0  0  0  0  0  0
   -1.9521    1.8317    4.9157 H   0  0  0  0  0  0  0  0  0  0  0  0
   -0.7277    0.0111    3.7337 H   0  0  0  0  0  0  0  0  0  0  0  0
   -0.6825    2.3802    2.8252 H   0  0  0  0  0  0  0  0  0  0  0  0
    0.6013    2.7295    1.7260 H   0  0  0  0  0  0  0  0  0  0  0  0
    2.6229   -0.1633    4.0443 H   0  0  0  0  0  0  0  0  0  0  0  0
   -0.3215   -2.3247    3.6905 H   0  0  0  0  0  0  0  0  0  0  0  0
    2.4200   -3.0322    5.2810 H   0  0  0  0  0  0  0  0  0  0  0  0
   -0.5604   -3.7687    5.4000 H   0  0  0  0  0  0  0  0  0  0  0  0
    0.9283   -5.3296    6.1620 H   0  0  0  0  0  0  0  0  0  0  0  0
  1 21  1  0
  1 22  1  0
  1 23  1  0
  1  2  1  0
  2  6  1  0
  2 24  1  1
  2  3  1  0
  3  4  2  0
  4  5  1  0
  4 20  1  0
  5  7  1  0
  5  6  1  0
  6 25  1  0
  6 26  1  0
  7  8  1  0
  7 11  1  0
  7 27  1  6
  8  9  1  0
  8 10  2  0
  9 28  1  0
  9 29  1  0
 11 20  1  0
 11 12  1  1
 11 13  1  0
 12 30  1  0
 13 15  1  0
 13 14  1  0
 13 31  1  6
 14 15  1  0
 15 16  1  0
 15 32  1  1
 16 17  1  0
 16 18  1  0
 16 33  1  6
 17 34  1  0
 18 19  2  0
 18 20  1  0
M  END
>  <i_m_ct_stereo_status>  (94) 
1

>  <s_m_source_file>  (94) 
/var/tmp/pbs.5076255.sched01/tmp44bw07az/09l6mph0o.sdf

>  <i_m_source_file_index>  (94) 
38

>  <i_lp_mmshare_version>  (94) 
48012

>  <i_f3d_flags>  (94) 
0

>  <s_epik_input>  (94) 
W0NIM11DKD1OMSlbQ0gyXU4oW0NASF0yQyg9TylbTkgyXSlbQ0BASF0xTjNDKD1PKVtDQEhdKFtPSF0pW0NAQEhdKE80KVtDQEhdNFtDQEBdMjNbT0hd

>  <s_epik_cmdline>  (94) 
J2VwaWtfcHl0aG9uJywgJy1waHQnLCAnMi4wJywgJy1waCcsICc3LjAnLCAnLXRuJywgJzgnLCAnLW1hJywgJzIwMCcsICctaW1hZScsICc8aW5maWxlLm1hZT4nLCAnLW9tYWUnLCAnPG91dGZpbGUubWFlPic=

>  <r_lp_tautomer_probability>  (94) 
1

>  <r_epik_Ionization_Penalty>  (94) 
0.247522

>  <r_epik_Ionization_Penalty_Charging>  (94) 
0

>  <r_epik_Ionization_Penalty_Neutral>  (94) 
0.247522

>  <r_epik_State_Penalty>  (94) 
0.237798

>  <r_epik_Charging_Adjusted_Penalty>  (94) 
0.237798

>  <i_epik_Tot_Q>  (94) 
0

>  <i_epik_Tot_abs_Q>  (94) 
0

>  <s_epik_Chemistry_Notes>  (94) 
This compound has an imine and may undergo hydrolysis.

>  <s_lp_Force_Field>  (94) 
OPLS3e

>  <r_lp_Energy>  (94) 
43.517

>  <b_lp_Chiralities_Consistent>  (94) 
1

>  <s_lp_Variant>  (94) 
17:0-1

>  <s_i_glide_gridfile>  (94) 
pfpi4k_grid

>  <i_i_glide_lignum>  (94) 
38

>  <i_i_glide_rotatable_bonds>  (94) 
3

>  <r_i_docking_score>  (94) 
-4.52506

>  <r_i_glide_ligand_efficiency>  (94) 
-0.226253

>  <r_i_glide_ligand_efficiency_sa>  (94) 
-0.614145

>  <r_i_glide_ligand_efficiency_ln>  (94) 
-1.13247

>  <r_i_glide_gscore>  (94) 
-4.52506

>  <r_i_glide_lipo>  (94) 
-0.0686181

>  <r_i_glide_hbond>  (94) 
-0.303394

>  <r_i_glide_metal>  (94) 
-0

>  <r_i_glide_rewards>  (94) 
-1.98464

>  <r_i_glide_evdw>  (94) 
-15.9504

>  <r_i_glide_ecoul>  (94) 
-7.91261

>  <r_i_glide_erotb>  (94) 
0

>  <r_i_glide_esite>  (94) 
-0.183995

>  <r_i_glide_emodel>  (94) 
-38.2744

>  <r_i_glide_energy>  (94) 
-23.863

>  <r_i_glide_einternal>  (94) 
0.428519

>  <r_i_glide_intrahb_reward>  (94) 
-0.5

>  <i_i_glide_confnum>  (94) 
2

>  <i_i_glide_posenum>  (94) 
8

>  <r_i_glide_eff_state_penalty>  (94) 
0

>  <ligand_id>  (94) 
17

>  <original_smiles>  (94) 
CC1=NC2N(C1)C(C(N)=O)C1(O)C3OC3C(O)C(=O)N21

>  <smiles>  (94) 
[H]OC1([H])C(=O)N2C3=NC([H])(C([H])([H])[H])C([H])([H])N3C([H])(C(=O)N([H])[H])C2(O[H])C2([H])OC12[H]

$$$$
17:1:0
     RDKit          3D

 35 38  0  0  1  0  0  0  0  0999 V2000
    3.3865    0.5402    1.6131 C   0  0  0  0  0  0  0  0  0  0  0  0
    2.2358    1.4917    1.9350 C   0  0  1  0  0  0  0  0  0  0  0  0
    1.2042    0.9086    2.8205 N   0  0  0  0  0  0  0  0  0  0  0  0
    0.7907    1.8891    3.6271 C   0  0  0  0  0  0  0  0  0  0  0  0
    1.4845    3.0123    3.4816 N   0  0  0  0  0  0  0  0  0  0  0  0
    2.6156    2.8504    2.5981 C   0  0  0  0  0  0  0  0  0  0  0  0
    1.1497    3.9721    4.5138 C   0  0  1  0  0  0  0  0  0  0  0  0
    1.2593    5.4527    4.1218 C   0  0  0  0  0  0  0  0  0  0  0  0
    0.9330    5.7910    2.8738 N   0  0  0  0  0  0  0  0  0  0  0  0
    1.6394    6.2663    4.9525 O   0  0  0  0  0  0  0  0  0  0  0  0
   -0.2558    3.4319    4.9017 C   0  0  2  0  0  0  0  0  0  0  0  0
   -1.2138    4.1217    4.1021 O   0  0  0  0  0  0  0  0  0  0  0  0
   -0.6302    3.5835    6.3600 C   0  0  1  0  0  0  0  0  0  0  0  0
   -1.7637    4.0586    7.0667 O   0  0  0  0  0  0  0  0  0  0  0  0
   -1.9816    2.8166    6.4058 C   0  0  2  0  0  0  0  0  0  0  0  0
   -1.4986    1.3875    6.5912 C   0  0  1  0  0  0  0  0  0  0  0  0
   -2.5873    0.5579    6.8464 O   0  0  0  0  0  0  0  0  0  0  0  0
   -0.7898    0.9134    5.3062 C   0  0  0  0  0  0  0  0  0  0  0  0
   -0.7197   -0.2664    4.9651 O   0  0  0  0  0  0  0  0  0  0  0  0
   -0.1099    1.9744    4.5962 N   0  0  0  0  0  0  0  0  0  0  0  0
    4.1042    0.9765    0.9222 H   0  0  0  0  0  0  0  0  0  0  0  0
    2.9981   -0.3522    1.1302 H   0  0  0  0  0  0  0  0  0  0  0  0
    3.8971    0.2656    2.5286 H   0  0  0  0  0  0  0  0  0  0  0  0
    1.7304    1.7184    1.0022 H   0  0  0  0  0  0  0  0  0  0  0  0
    2.7328    3.7218    1.9471 H   0  0  0  0  0  0  0  0  0  0  0  0
    3.4886    2.7395    3.2295 H   0  0  0  0  0  0  0  0  0  0  0  0
    1.8353    3.8063    5.3387 H   0  0  0  0  0  0  0  0  0  0  0  0
    0.6384    5.1139    2.1688 H   0  0  0  0  0  0  0  0  0  0  0  0
    0.9323    6.7681    2.6104 H   0  0  0  0  0  0  0  0  0  0  0  0
   -1.0840    3.8229    3.2124 H   0  0  0  0  0  0  0  0  0  0  0  0
    0.1725    3.3287    7.0506 H   0  0  0  0  0  0  0  0  0  0  0  0
   -2.7514    2.9362    5.6406 H   0  0  0  0  0  0  0  0  0  0  0  0
   -0.8587    1.3428    7.4582 H   0  0  0  0  0  0  0  0  0  0  0  0
   -3.2215    0.7183    6.1801 H   0  0  0  0  0  0  0  0  0  0  0  0
    0.8085   -0.0295    2.7367 H   0  0  0  0  0  0  0  0  0  0  0  0
  1 21  1  0
  1 22  1  0
  1 23  1  0
  1  2  1  0
  2  6  1  0
  2 24  1  6
  2  3  1  0
  3  4  2  0
  3 35  1  0
  4  5  1  0
  4 20  1  0
  5  7  1  0
  5  6  1  0
  6 25  1  0
  6 26  1  0
  7  8  1  0
  7 11  1  0
  7 27  1  1
  8  9  1  0
  8 10  2  0
  9 28  1  0
  9 29  1  0
 11 20  1  0
 11 12  1  6
 11 13  1  0
 12 30  1  0
 13 15  1  0
 13 14  1  0
 13 31  1  1
 14 15  1  0
 15 16  1  0
 15 32  1  6
 16 17  1  0
 16 18  1  0
 16 33  1  1
 17 34  1  0
 18 19  2  0
 18 20  1  0
M  CHG  1   3   1
M  END
>  <i_m_ct_stereo_status>  (95) 
1

>  <s_m_source_file>  (95) 
/var/tmp/pbs.5076255.sched01/tmp44bw07az/09l6mph0o.sdf

>  <i_m_source_file_index>  (95) 
39

>  <i_lp_mmshare_version>  (95) 
48012

>  <i_f3d_flags>  (95) 
0

>  <s_epik_input>  (95) 
W0NIM11DKD1OMSlbQ0gyXU4oW0NASF0yQyg9TylbTkgyXSlbQ0BASF0xTjNDKD1PKVtDQEhdKFtPSF0pW0NAQEhdKE80KVtDQEhdNFtDQEBdMjNbT0hd

>  <s_epik_cmdline>  (95) 
J2VwaWtfcHl0aG9uJywgJy1waHQnLCAnMi4wJywgJy1waCcsICc3LjAnLCAnLXRuJywgJzgnLCAnLW1hJywgJzIwMCcsICctaW1hZScsICc8aW5maWxlLm1hZT4nLCAnLW9tYWUnLCAnPG91dGZpbGUubWFlPic=

>  <r_epik_Ionization_Penalty>  (95) 
0.655278

>  <r_epik_Ionization_Penalty_Charging>  (95) 
0.63835

>  <r_epik_Ionization_Penalty_Neutral>  (95) 
0.0169284

>  <r_epik_State_Penalty>  (95) 
0.655811

>  <r_epik_Charging_Adjusted_Penalty>  (95) 
1.29416

>  <i_epik_Tot_Q>  (95) 
1

>  <i_epik_Tot_abs_Q>  (95) 
1

>  <s_epik_Chemistry_Notes>  (95) 
This compound has an imine and may undergo hydrolysis.

>  <s_lp_Force_Field>  (95) 
OPLS3e

>  <r_lp_Energy>  (95) 
31.3226

>  <b_lp_Chiralities_Consistent>  (95) 
1

>  <s_lp_Variant>  (95) 
17:0-2

>  <s_i_glide_gridfile>  (95) 
pfpi4k_grid

>  <i_i_glide_lignum>  (95) 
39

>  <i_i_glide_rotatable_bonds>  (95) 
3

>  <r_i_docking_score>  (95) 
-5.07594

>  <r_i_glide_ligand_efficiency>  (95) 
-0.253797

>  <r_i_glide_ligand_efficiency_sa>  (95) 
-0.688911

>  <r_i_glide_ligand_efficiency_ln>  (95) 
-1.27034

>  <r_i_glide_gscore>  (95) 
-5.07594

>  <r_i_glide_lipo>  (95) 
-0.19259

>  <r_i_glide_hbond>  (95) 
-0.304

>  <r_i_glide_metal>  (95) 
-0

>  <r_i_glide_rewards>  (95) 
-1.47777

>  <r_i_glide_evdw>  (95) 
-8.22715

>  <r_i_glide_ecoul>  (95) 
-16.1543

>  <r_i_glide_erotb>  (95) 
0

>  <r_i_glide_esite>  (95) 
-0.267077

>  <r_i_glide_emodel>  (95) 
-32.3869

>  <r_i_glide_energy>  (95) 
-24.3815

>  <r_i_glide_einternal>  (95) 
4.04772

>  <r_i_glide_intrahb_reward>  (95) 
-0

>  <i_i_glide_confnum>  (95) 
1

>  <i_i_glide_posenum>  (95) 
8

>  <r_i_glide_eff_state_penalty>  (95) 
0

>  <ligand_id>  (95) 
17

>  <original_smiles>  (95) 
CC1=NC2N(C1)C(C(N)=O)C1(O)C3OC3C(O)C(=O)N21

>  <smiles>  (95) 
[H]OC1([H])C(=O)N2C3=[N+]([H])C([H])(C([H])([H])[H])C([H])([H])N3C([H])(C(=O)N([H])[H])C2(O[H])C2([H])OC12[H]

$$$$
17:1:1
     RDKit          3D

 35 38  0  0  1  0  0  0  0  0999 V2000
    0.8778    2.2723   10.0556 C   0  0  0  0  0  0  0  0  0  0  0  0
   -0.0313    1.6553    9.0001 C   0  0  1  0  0  0  0  0  0  0  0  0
   -0.4521    2.6175    7.9497 N   0  0  0  0  0  0  0  0  0  0  0  0
   -0.4836    1.9693    6.7839 C   0  0  0  0  0  0  0  0  0  0  0  0
   -0.0095    0.7405    6.8901 N   0  0  0  0  0  0  0  0  0  0  0  0
    0.5671    0.4664    8.2050 C   0  0  0  0  0  0  0  0  0  0  0  0
    0.1815    0.1212    5.5825 C   0  0  1  0  0  0  0  0  0  0  0  0
    0.0075   -1.4056    5.5357 C   0  0  0  0  0  0  0  0  0  0  0  0
    0.7178   -2.0559    4.6132 N   0  0  0  0  0  0  0  0  0  0  0  0
   -0.7538   -1.9897    6.3064 O   0  0  0  0  0  0  0  0  0  0  0  0
   -0.8356    0.9794    4.7663 C   0  0  2  0  0  0  0  0  0  0  0  0
   -2.0878    0.3075    4.8091 O   0  0  0  0  0  0  0  0  0  0  0  0
   -0.4474    1.3066    3.3335 C   0  0  1  0  0  0  0  0  0  0  0  0
   -1.1236    1.1884    2.1110 O   0  0  0  0  0  0  0  0  0  0  0  0
   -1.5738    2.2934    2.8916 C   0  0  2  0  0  0  0  0  0  0  0  0
   -0.9910    3.6229    3.3716 C   0  0  1  0  0  0  0  0  0  0  0  0
   -1.7847    4.6890    2.8898 O   0  0  0  0  0  0  0  0  0  0  0  0
   -0.9656    3.6085    4.9318 C   0  0  0  0  0  0  0  0  0  0  0  0
   -0.9825    4.6235    5.6303 O   0  0  0  0  0  0  0  0  0  0  0  0
   -0.8117    2.2713    5.5196 N   0  0  0  0  0  0  0  0  0  0  0  0
    1.1501    1.5341   10.8081 H   0  0  0  0  0  0  0  0  0  0  0  0
    0.3652    3.0859   10.5699 H   0  0  0  0  0  0  0  0  0  0  0  0
    1.7881    2.6674    9.6088 H   0  0  0  0  0  0  0  0  0  0  0  0
   -0.9279    1.2921    9.5064 H   0  0  0  0  0  0  0  0  0  0  0  0
    0.3034   -0.5184    8.5967 H   0  0  0  0  0  0  0  0  0  0  0  0
    1.6533    0.5391    8.1517 H   0  0  0  0  0  0  0  0  0  0  0  0
    1.1938    0.3676    5.2617 H   0  0  0  0  0  0  0  0  0  0  0  0
    1.3590   -1.5638    4.0051 H   0  0  0  0  0  0  0  0  0  0  0  0
    0.6441   -3.0606    4.5586 H   0  0  0  0  0  0  0  0  0  0  0  0
   -2.5991    0.5198    4.0220 H   0  0  0  0  0  0  0  0  0  0  0  0
    0.6102    1.5394    3.1913 H   0  0  0  0  0  0  0  0  0  0  0  0
   -2.6254    2.1776    3.1728 H   0  0  0  0  0  0  0  0  0  0  0  0
    0.0161    3.7509    2.9716 H   0  0  0  0  0  0  0  0  0  0  0  0
   -1.5456    4.7777    1.9730 H   0  0  0  0  0  0  0  0  0  0  0  0
   -0.7606    3.5725    8.1011 H   0  0  0  0  0  0  0  0  0  0  0  0
  1 21  1  0
  1 22  1  0
  1 23  1  0
  1  2  1  0
  2  6  1  0
  2 24  1  1
  2  3  1  0
  3  4  2  0
  3 35  1  0
  4  5  1  0
  4 20  1  0
  5  7  1  0
  5  6  1  0
  6 25  1  0
  6 26  1  0
  7  8  1  0
  7 11  1  0
  7 27  1  6
  8  9  1  0
  8 10  2  0
  9 28  1  0
  9 29  1  0
 11 20  1  0
 11 12  1  6
 11 13  1  0
 12 30  1  0
 13 15  1  0
 13 14  1  0
 13 31  1  6
 14 15  1  0
 15 16  1  0
 15 32  1  1
 16 17  1  0
 16 18  1  0
 16 33  1  6
 17 34  1  0
 18 19  2  0
 18 20  1  0
M  CHG  1   3   1
M  END
>  <i_m_ct_stereo_status>  (96) 
1

>  <s_m_source_file>  (96) 
/var/tmp/pbs.5076255.sched01/tmp44bw07az/09l6mph0o.sdf

>  <i_m_source_file_index>  (96) 
39

>  <i_lp_mmshare_version>  (96) 
48012

>  <i_f3d_flags>  (96) 
0

>  <s_epik_input>  (96) 
W0NIM11DKD1OMSlbQ0gyXU4oW0NASF0yQyg9TylbTkgyXSlbQ0BASF0xTjNDKD1PKVtDQEhdKFtPSF0pW0NAQEhdKE80KVtDQEhdNFtDQEBdMjNbT0hd

>  <s_epik_cmdline>  (96) 
J2VwaWtfcHl0aG9uJywgJy1waHQnLCAnMi4wJywgJy1waCcsICc3LjAnLCAnLXRuJywgJzgnLCAnLW1hJywgJzIwMCcsICctaW1hZScsICc8aW5maWxlLm1hZT4nLCAnLW9tYWUnLCAnPG91dGZpbGUubWFlPic=

>  <r_epik_Ionization_Penalty>  (96) 
0.655278

>  <r_epik_Ionization_Penalty_Charging>  (96) 
0.63835

>  <r_epik_Ionization_Penalty_Neutral>  (96) 
0.0169284

>  <r_epik_State_Penalty>  (96) 
0.655811

>  <r_epik_Charging_Adjusted_Penalty>  (96) 
1.29416

>  <i_epik_Tot_Q>  (96) 
1

>  <i_epik_Tot_abs_Q>  (96) 
1

>  <s_epik_Chemistry_Notes>  (96) 
This compound has an imine and may undergo hydrolysis.

>  <s_lp_Force_Field>  (96) 
OPLS3e

>  <r_lp_Energy>  (96) 
31.3226

>  <b_lp_Chiralities_Consistent>  (96) 
1

>  <s_lp_Variant>  (96) 
17:0-2

>  <s_i_glide_gridfile>  (96) 
pfpi4k_grid

>  <i_i_glide_lignum>  (96) 
39

>  <i_i_glide_rotatable_bonds>  (96) 
3

>  <r_i_docking_score>  (96) 
-4.1197

>  <r_i_glide_ligand_efficiency>  (96) 
-0.205985

>  <r_i_glide_ligand_efficiency_sa>  (96) 
-0.559129

>  <r_i_glide_ligand_efficiency_ln>  (96) 
-1.03103

>  <r_i_glide_gscore>  (96) 
-4.1197

>  <r_i_glide_lipo>  (96) 
0

>  <r_i_glide_hbond>  (96) 
0

>  <r_i_glide_metal>  (96) 
-0

>  <r_i_glide_rewards>  (96) 
-1.47777

>  <r_i_glide_evdw>  (96) 
-14.027

>  <r_i_glide_ecoul>  (96) 
-12.3479

>  <r_i_glide_erotb>  (96) 
0

>  <r_i_glide_esite>  (96) 
-0.0884056

>  <r_i_glide_emodel>  (96) 
-33.6197

>  <r_i_glide_energy>  (96) 
-26.3748

>  <r_i_glide_einternal>  (96) 
1.69011

>  <r_i_glide_intrahb_reward>  (96) 
-0

>  <i_i_glide_confnum>  (96) 
2

>  <i_i_glide_posenum>  (96) 
3

>  <r_i_glide_eff_state_penalty>  (96) 
0

>  <ligand_id>  (96) 
17

>  <original_smiles>  (96) 
CC1=NC2N(C1)C(C(N)=O)C1(O)C3OC3C(O)C(=O)N21

>  <smiles>  (96) 
[H]OC1([H])C(=O)N2C3=[N+]([H])C([H])(C([H])([H])[H])C([H])([H])N3C([H])(C(=O)N([H])[H])C2(O[H])C2([H])OC12[H]

$$$$
17:1:2
     RDKit          3D

 35 38  0  0  1  0  0  0  0  0999 V2000
    2.4919   -2.6039   -3.9407 C   0  0  0  0  0  0  0  0  0  0  0  0
    2.8959   -2.4828   -2.4822 C   0  0  1  0  0  0  0  0  0  0  0  0
    2.2345   -3.4801   -1.6125 N   0  0  0  0  0  0  0  0  0  0  0  0
    3.1376   -3.9111   -0.7153 C   0  0  0  0  0  0  0  0  0  0  0  0
    4.3285   -3.4041   -0.9485 N   0  0  0  0  0  0  0  0  0  0  0  0
    4.4082   -2.6545   -2.2064 C   0  0  0  0  0  0  0  0  0  0  0  0
    5.3468   -3.9948   -0.0759 C   0  0  1  0  0  0  0  0  0  0  0  0
    6.5234   -3.0751    0.3087 C   0  0  0  0  0  0  0  0  0  0  0  0
    6.3049   -1.7631    0.4272 N   0  0  0  0  0  0  0  0  0  0  0  0
    7.6294   -3.5645    0.5199 O   0  0  0  0  0  0  0  0  0  0  0  0
    4.4038   -4.5287    1.0536 C   0  0  2  0  0  0  0  0  0  0  0  0
    4.2859   -3.5328    2.0800 O   0  0  0  0  0  0  0  0  0  0  0  0
    4.8234   -5.8412    1.6862 C   0  0  1  0  0  0  0  0  0  0  0  0
    4.9831   -6.2694    3.0215 O   0  0  0  0  0  0  0  0  0  0  0  0
    3.6122   -6.1146    2.6455 C   0  0  2  0  0  0  0  0  0  0  0  0
    2.6486   -6.8353    1.7117 C   0  0  1  0  0  0  0  0  0  0  0  0
    1.5459   -7.3129    2.4528 O   0  0  0  0  0  0  0  0  0  0  0  0
    2.1635   -5.7939    0.6556 C   0  0  0  0  0  0  0  0  0  0  0  0
    1.0624   -5.8548    0.1076 O   0  0  0  0  0  0  0  0  0  0  0  0
    3.1271   -4.7679    0.3096 N   0  0  0  0  0  0  0  0  0  0  0  0
    2.9898   -1.8247   -4.5068 H   0  0  0  0  0  0  0  0  0  0  0  0
    1.4212   -2.4680   -4.0490 H   0  0  0  0  0  0  0  0  0  0  0  0
    2.7613   -3.5755   -4.3417 H   0  0  0  0  0  0  0  0  0  0  0  0
    2.6089   -1.4836   -2.1370 H   0  0  0  0  0  0  0  0  0  0  0  0
    4.9452   -1.7139   -2.1181 H   0  0  0  0  0  0  0  0  0  0  0  0
    4.8987   -3.2546   -2.9722 H   0  0  0  0  0  0  0  0  0  0  0  0
    5.7804   -4.8458   -0.5888 H   0  0  0  0  0  0  0  0  0  0  0  0
    5.3767   -1.3955    0.2896 H   0  0  0  0  0  0  0  0  0  0  0  0
    7.0466   -1.1546    0.7384 H   0  0  0  0  0  0  0  0  0  0  0  0
    5.1532   -3.2020    2.2997 H   0  0  0  0  0  0  0  0  0  0  0  0
    5.1734   -6.5925    0.9731 H   0  0  0  0  0  0  0  0  0  0  0  0
    3.1163   -5.3363    3.2540 H   0  0  0  0  0  0  0  0  0  0  0  0
    3.1701   -7.6705    1.2314 H   0  0  0  0  0  0  0  0  0  0  0  0
    1.1180   -7.9786    1.9334 H   0  0  0  0  0  0  0  0  0  0  0  0
    1.2792   -3.7884   -1.6682 H   0  0  0  0  0  0  0  0  0  0  0  0
  1 21  1  0
  1 22  1  0
  1 23  1  0
  1  2  1  0
  2  6  1  0
  2 24  1  1
  2  3  1  0
  3  4  2  0
  3 35  1  0
  4  5  1  0
  4 20  1  0
  5  7  1  0
  5  6  1  0
  6 25  1  0
  6 26  1  0
  7  8  1  0
  7 11  1  0
  7 27  1  6
  8  9  1  0
  8 10  2  0
  9 28  1  0
  9 29  1  0
 11 20  1  0
 11 12  1  1
 11 13  1  0
 12 30  1  0
 13 15  1  0
 13 14  1  0
 13 31  1  6
 14 15  1  0
 15 16  1  0
 15 32  1  1
 16 17  1  0
 16 18  1  0
 16 33  1  6
 17 34  1  0
 18 19  2  0
 18 20  1  0
M  CHG  1   3   1
M  END
>  <i_m_ct_stereo_status>  (97) 
1

>  <s_m_source_file>  (97) 
/var/tmp/pbs.5076255.sched01/tmp44bw07az/09l6mph0o.sdf

>  <i_m_source_file_index>  (97) 
39

>  <i_lp_mmshare_version>  (97) 
48012

>  <i_f3d_flags>  (97) 
0

>  <s_epik_input>  (97) 
W0NIM11DKD1OMSlbQ0gyXU4oW0NASF0yQyg9TylbTkgyXSlbQ0BASF0xTjNDKD1PKVtDQEhdKFtPSF0pW0NAQEhdKE80KVtDQEhdNFtDQEBdMjNbT0hd

>  <s_epik_cmdline>  (97) 
J2VwaWtfcHl0aG9uJywgJy1waHQnLCAnMi4wJywgJy1waCcsICc3LjAnLCAnLXRuJywgJzgnLCAnLW1hJywgJzIwMCcsICctaW1hZScsICc8aW5maWxlLm1hZT4nLCAnLW9tYWUnLCAnPG91dGZpbGUubWFlPic=

>  <r_epik_Ionization_Penalty>  (97) 
0.655278

>  <r_epik_Ionization_Penalty_Charging>  (97) 
0.63835

>  <r_epik_Ionization_Penalty_Neutral>  (97) 
0.0169284

>  <r_epik_State_Penalty>  (97) 
0.655811

>  <r_epik_Charging_Adjusted_Penalty>  (97) 
1.29416

>  <i_epik_Tot_Q>  (97) 
1

>  <i_epik_Tot_abs_Q>  (97) 
1

>  <s_epik_Chemistry_Notes>  (97) 
This compound has an imine and may undergo hydrolysis.

>  <s_lp_Force_Field>  (97) 
OPLS3e

>  <r_lp_Energy>  (97) 
31.3226

>  <b_lp_Chiralities_Consistent>  (97) 
1

>  <s_lp_Variant>  (97) 
17:0-2

>  <s_i_glide_gridfile>  (97) 
pfpi4k_grid

>  <i_i_glide_lignum>  (97) 
39

>  <i_i_glide_rotatable_bonds>  (97) 
3

>  <r_i_docking_score>  (97) 
-4.11011

>  <r_i_glide_ligand_efficiency>  (97) 
-0.205505

>  <r_i_glide_ligand_efficiency_sa>  (97) 
-0.557827

>  <r_i_glide_ligand_efficiency_ln>  (97) 
-1.02862

>  <r_i_glide_gscore>  (97) 
-4.11011

>  <r_i_glide_lipo>  (97) 
-0.278194

>  <r_i_glide_hbond>  (97) 
-0.345023

>  <r_i_glide_metal>  (97) 
-0

>  <r_i_glide_rewards>  (97) 
-1.66479

>  <r_i_glide_evdw>  (97) 
-20.2401

>  <r_i_glide_ecoul>  (97) 
-4.9553

>  <r_i_glide_erotb>  (97) 
0

>  <r_i_glide_esite>  (97) 
-0.0667996

>  <r_i_glide_emodel>  (97) 
-31.5186

>  <r_i_glide_energy>  (97) 
-25.1954

>  <r_i_glide_einternal>  (97) 
3.36147

>  <r_i_glide_intrahb_reward>  (97) 
-0

>  <i_i_glide_confnum>  (97) 
1

>  <i_i_glide_posenum>  (97) 
4

>  <r_i_glide_eff_state_penalty>  (97) 
0

>  <ligand_id>  (97) 
17

>  <original_smiles>  (97) 
CC1=NC2N(C1)C(C(N)=O)C1(O)C3OC3C(O)C(=O)N21

>  <smiles>  (97) 
[H]OC1([H])C(=O)N2C3=[N+]([H])C([H])(C([H])([H])[H])C([H])([H])N3C([H])(C(=O)N([H])[H])C2(O[H])C2([H])OC12[H]

$$$$
18:0:0
     RDKit          3D

 52 57  0  0  1  0  0  0  0  0999 V2000
    4.5349   -3.6045    5.9055 O   0  0  0  0  0  0  0  0  0  0  0  0
    4.7704   -2.9702    4.7201 C   0  0  0  0  0  0  0  0  0  0  0  0
    4.8720   -1.5712    4.7008 C   0  0  0  0  0  0  0  0  0  0  0  0
    4.7248   -0.9102    3.4657 C   0  0  0  0  0  0  0  0  0  0  0  0
    4.7490   -1.6547    2.2659 C   0  0  0  0  0  0  0  0  0  0  0  0
    5.1574   -3.0052    2.3620 C   0  0  0  0  0  0  0  0  0  0  0  0
    4.7297   -3.6959    3.5112 C   0  0  0  0  0  0  0  0  0  0  0  0
    3.8886   -4.7663    3.4314 O   0  0  0  0  0  0  0  0  0  0  0  0
    3.4262   -5.2058    2.1475 C   0  0  2  0  0  0  0  0  0  0  0  0
    4.2666   -6.4356    1.9073 C   0  0  0  0  0  0  0  0  0  0  0  0
    5.6008   -6.3974    1.7434 C   0  0  0  0  0  0  0  0  0  0  0  0
    6.4640   -5.1443    1.5499 C   0  0  1  0  0  0  0  0  0  0  0  0
    7.4598   -5.5025    0.6045 O   0  0  0  0  0  0  0  0  0  0  0  0
    5.7150   -3.8027    1.1164 C   0  0  2  0  0  0  0  0  0  0  0  0
    6.6793   -2.8504    0.3302 C   0  0  0  0  0  0  0  0  0  0  0  0
    6.1537   -2.7895   -1.1020 C   0  0  0  0  0  0  0  0  0  0  0  0
    4.7098   -3.0550   -0.9798 N   0  0  1  0  0  0  0  0  0  0  0  0
    3.9759   -3.1930   -2.2717 C   0  0  0  0  0  0  0  0  0  0  0  0
    4.1858   -1.9913   -3.1744 C   0  0  0  0  0  0  0  0  0  0  0  0
    3.4091   -0.7149   -2.9632 C   0  0  0  0  0  0  0  0  0  0  0  0
    3.1258   -1.5732   -4.1628 C   0  0  0  0  0  0  0  0  0  0  0  0
    4.5941   -4.1061    0.0785 C   0  0  1  0  0  0  0  0  0  0  0  0
    4.7970   -5.2537   -0.7225 O   0  0  0  0  0  0  0  0  0  0  0  0
    3.2759   -4.2190    0.8812 C   0  0  2  0  0  0  0  0  0  0  0  0
    2.6503   -2.8133    1.1648 C   0  0  0  0  0  0  0  0  0  0  0  0
    3.5839   -1.5469    1.2782 C   0  0  0  0  0  0  0  0  0  0  0  0
    4.4137   -4.5354    5.8011 H   0  0  0  0  0  0  0  0  0  0  0  0
    4.7964   -1.0238    5.6236 H   0  0  0  0  0  0  0  0  0  0  0  0
    4.3884    0.1160    3.4715 H   0  0  0  0  0  0  0  0  0  0  0  0
    2.4201   -5.5666    2.3670 H   0  0  0  0  0  0  0  0  0  0  0  0
    3.7662   -7.3873    2.0184 H   0  0  0  0  0  0  0  0  0  0  0  0
    6.1328   -7.3368    1.6936 H   0  0  0  0  0  0  0  0  0  0  0  0
    7.0169   -4.9835    2.4745 H   0  0  0  0  0  0  0  0  0  0  0  0
    8.2350   -4.9829    0.7486 H   0  0  0  0  0  0  0  0  0  0  0  0
    6.6786   -1.8380    0.7303 H   0  0  0  0  0  0  0  0  0  0  0  0
    7.7296   -3.1287    0.3476 H   0  0  0  0  0  0  0  0  0  0  0  0
    6.3568   -1.8158   -1.5401 H   0  0  0  0  0  0  0  0  0  0  0  0
    6.6331   -3.5459   -1.7253 H   0  0  0  0  0  0  0  0  0  0  0  0
    4.2875   -4.0628   -2.8495 H   0  0  0  0  0  0  0  0  0  0  0  0
    2.9099   -3.2981   -2.0627 H   0  0  0  0  0  0  0  0  0  0  0  0
    5.2010   -1.8935   -3.5524 H   0  0  0  0  0  0  0  0  0  0  0  0
    2.6699   -0.7108   -2.1633 H   0  0  0  0  0  0  0  0  0  0  0  0
    3.9290    0.2260   -3.1342 H   0  0  0  0  0  0  0  0  0  0  0  0
    3.4383   -1.1617   -5.1190 H   0  0  0  0  0  0  0  0  0  0  0  0
    2.1933   -2.1344   -4.1809 H   0  0  0  0  0  0  0  0  0  0  0  0
    4.0208   -5.4313   -1.2432 H   0  0  0  0  0  0  0  0  0  0  0  0
    2.5619   -4.7229    0.2311 H   0  0  0  0  0  0  0  0  0  0  0  0
    1.9628   -2.6194    0.3446 H   0  0  0  0  0  0  0  0  0  0  0  0
    2.0074   -2.8859    2.0454 H   0  0  0  0  0  0  0  0  0  0  0  0
    2.9377   -0.7399    1.6290 H   0  0  0  0  0  0  0  0  0  0  0  0
    3.9410   -1.1592    0.3259 H   0  0  0  0  0  0  0  0  0  0  0  0
    4.3348   -2.2206   -0.5523 H   0  0  0  0  0  0  0  0  0  0  0  0
  1  2  1  0
  1 27  1  0
  2  7  2  0
  2  3  1  0
  3  4  2  0
  3 28  1  0
  4  5  1  0
  4 29  1  0
  5 26  1  0
  5  6  2  0
  6 14  1  0
  6  7  1  0
  7  8  1  0
  8  9  1  0
  9 24  1  0
  9 10  1  0
  9 30  1  1
 10 11  2  0
 10 31  1  0
 11 12  1  0
 11 32  1  0
 12 13  1  0
 12 14  1  0
 12 33  1  1
 13 34  1  0
 14 22  1  0
 14 15  1  6
 15 16  1  0
 15 35  1  0
 15 36  1  0
 16 17  1  0
 16 37  1  0
 16 38  1  0
 17 18  1  0
 17 22  1  0
 17 52  1  1
 18 19  1  0
 18 39  1  0
 18 40  1  0
 19 21  1  0
 19 20  1  0
 19 41  1  0
 20 21  1  0
 20 42  1  0
 20 43  1  0
 21 44  1  0
 21 45  1  0
 22 23  1  6
 22 24  1  0
 23 46  1  0
 24 25  1  0
 24 47  1  6
 25 26  1  0
 25 48  1  0
 25 49  1  0
 26 50  1  0
 26 51  1  0
M  CHG  1  17   1
M  END
>  <i_m_ct_stereo_status>  (98) 
1

>  <s_m_source_file>  (98) 
/var/tmp/pbs.5076255.sched01/tmp44bw07az/09l6mph0o.sdf

>  <i_m_source_file_index>  (98) 
40

>  <i_lp_mmshare_version>  (98) 
48012

>  <i_f3d_flags>  (98) 
0

>  <s_epik_input>  (98) 
W0NAQF0xMjNjNGM1W2NIXVtjSF1jKFtPSF0pYzRPW0NASF0oW0NIXT1bQ0hdW0NASF0xW09IXSlbQ0BASF0oW0NIMl1bQ0gyXTUpW0NAQF0zKFtPSF0pTihbQ0gyXVtDSDJdMilbQ0gyXVtDSF02W0NIMl1bQ0gyXTY=

>  <s_epik_cmdline>  (98) 
J2VwaWtfcHl0aG9uJywgJy1waHQnLCAnMi4wJywgJy1waCcsICc3LjAnLCAnLXRuJywgJzgnLCAnLW1hJywgJzIwMCcsICctaW1hZScsICc8aW5maWxlLm1hZT4nLCAnLW9tYWUnLCAnPG91dGZpbGUubWFlPic=

>  <r_lp_tautomer_probability>  (98) 
1

>  <r_epik_Ionization_Penalty>  (98) 
0.303396

>  <r_epik_Ionization_Penalty_Charging>  (98) 
0.266688

>  <r_epik_Ionization_Penalty_Neutral>  (98) 
0.0367074

>  <r_epik_State_Penalty>  (98) 
0.277921

>  <r_epik_Charging_Adjusted_Penalty>  (98) 
0.54461

>  <i_epik_Tot_Q>  (98) 
1

>  <i_epik_Tot_abs_Q>  (98) 
1

>  <s_lp_Force_Field>  (98) 
OPLS3e

>  <r_lp_Energy>  (98) 
124.713

>  <b_lp_Chiralities_Consistent>  (98) 
1

>  <s_lp_Variant>  (98) 
18:0-1

>  <s_i_glide_gridfile>  (98) 
pfpi4k_grid

>  <i_i_glide_lignum>  (98) 
40

>  <i_i_glide_rotatable_bonds>  (98) 
5

>  <r_i_docking_score>  (98) 
-3.67325

>  <r_i_glide_ligand_efficiency>  (98) 
-0.141279

>  <r_i_glide_ligand_efficiency_sa>  (98) 
-0.418538

>  <r_i_glide_ligand_efficiency_ln>  (98) 
-0.862651

>  <r_i_glide_gscore>  (98) 
-3.67325

>  <r_i_glide_lipo>  (98) 
-0.735573

>  <r_i_glide_hbond>  (98) 
0

>  <r_i_glide_metal>  (98) 
-0

>  <r_i_glide_rewards>  (98) 
-1.01311

>  <r_i_glide_evdw>  (98) 
-25.4503

>  <r_i_glide_ecoul>  (98) 
-6.35495

>  <r_i_glide_erotb>  (98) 
0.301187

>  <r_i_glide_esite>  (98) 
0

>  <r_i_glide_emodel>  (98) 
-37.1218

>  <r_i_glide_energy>  (98) 
-31.8052

>  <r_i_glide_einternal>  (98) 
2.4281

>  <r_i_glide_intrahb_reward>  (98) 
-0

>  <i_i_glide_confnum>  (98) 
1

>  <i_i_glide_posenum>  (98) 
10

>  <r_i_glide_eff_state_penalty>  (98) 
0

>  <ligand_id>  (98) 
18

>  <original_smiles>  (98) 
Oc1ccc2c3c1OC1C=CC(O)C34CCN(CC3CC3)C4(O)C1CC2

>  <smiles>  (98) 
[H]Oc1c([H])c([H])c2c3c1OC1([H])C([H])=C([H])C([H])(O[H])C34C([H])([H])C([H])([H])[N+]([H])(C([H])([H])C3([H])C([H])([H])C3([H])[H])C4(O[H])C1([H])C([H])([H])C2([H])[H]

$$$$
18:0:1
     RDKit          3D

 52 57  0  0  1  0  0  0  0  0999 V2000
    5.3034   -4.5415    5.4904 O   0  0  0  0  0  0  0  0  0  0  0  0
    5.0431   -3.6068    4.5363 C   0  0  0  0  0  0  0  0  0  0  0  0
    4.4707   -2.3900    4.9003 C   0  0  0  0  0  0  0  0  0  0  0  0
    3.8561   -1.6092    3.9013 C   0  0  0  0  0  0  0  0  0  0  0  0
    4.0794   -1.9140    2.5357 C   0  0  0  0  0  0  0  0  0  0  0  0
    5.0739   -2.8780    2.2573 C   0  0  0  0  0  0  0  0  0  0  0  0
    5.2035   -3.9467    3.1622 C   0  0  0  0  0  0  0  0  0  0  0  0
    4.9661   -5.2356    2.7982 O   0  0  0  0  0  0  0  0  0  0  0  0
    4.6032   -5.5081    1.4373 C   0  0  2  0  0  0  0  0  0  0  0  0
    5.8917   -6.0548    0.8786 C   0  0  0  0  0  0  0  0  0  0  0  0
    7.0059   -5.3244    0.7237 C   0  0  0  0  0  0  0  0  0  0  0  0
    7.1268   -3.8053    0.8593 C   0  0  1  0  0  0  0  0  0  0  0  0
    8.0458   -3.3818   -0.1406 O   0  0  0  0  0  0  0  0  0  0  0  0
    5.7749   -2.9575    0.8374 C   0  0  2  0  0  0  0  0  0  0  0  0
    6.0551   -1.4962    0.3606 C   0  0  0  0  0  0  0  0  0  0  0  0
    5.3699   -1.3563   -0.9846 C   0  0  0  0  0  0  0  0  0  0  0  0
    4.2542   -2.3205   -0.9567 N   0  0  1  0  0  0  0  0  0  0  0  0
    3.5349   -2.4823   -2.2503 C   0  0  0  0  0  0  0  0  0  0  0  0
    3.0650   -1.1549   -2.8277 C   0  0  0  0  0  0  0  0  0  0  0  0
    2.9132   -0.9654   -4.3142 C   0  0  0  0  0  0  0  0  0  0  0  0
    4.0059   -0.2662   -3.6026 C   0  0  0  0  0  0  0  0  0  0  0  0
    4.8020   -3.5112   -0.2390 C   0  0  1  0  0  0  0  0  0  0  0  0
    5.3899   -4.1659   -1.3461 O   0  0  0  0  0  0  0  0  0  0  0  0
    3.8318   -4.4552    0.4933 C   0  0  2  0  0  0  0  0  0  0  0  0
    2.6561   -3.6634    1.1447 C   0  0  0  0  0  0  0  0  0  0  0  0
    2.8793   -2.1715    1.6190 C   0  0  0  0  0  0  0  0  0  0  0  0
    5.6077   -5.3609    5.1306 H   0  0  0  0  0  0  0  0  0  0  0  0
    4.2655   -2.1876    5.9495 H   0  0  0  0  0  0  0  0  0  0  0  0
    3.0750   -0.9203    4.1888 H   0  0  0  0  0  0  0  0  0  0  0  0
    3.9394   -6.3613    1.5429 H   0  0  0  0  0  0  0  0  0  0  0  0
    5.9231   -7.1246    0.7369 H   0  0  0  0  0  0  0  0  0  0  0  0
    7.9114   -5.8325    0.4276 H   0  0  0  0  0  0  0  0  0  0  0  0
    7.6657   -3.6279    1.7774 H   0  0  0  0  0  0  0  0  0  0  0  0
    8.5443   -2.6380    0.1759 H   0  0  0  0  0  0  0  0  0  0  0  0
    5.6288   -0.7458    1.0268 H   0  0  0  0  0  0  0  0  0  0  0  0
    7.1067   -1.2051    0.3090 H   0  0  0  0  0  0  0  0  0  0  0  0
    5.0353   -0.3338   -1.1212 H   0  0  0  0  0  0  0  0  0  0  0  0
    6.0625   -1.6039   -1.7860 H   0  0  0  0  0  0  0  0  0  0  0  0
    4.1369   -2.9450   -3.0246 H   0  0  0  0  0  0  0  0  0  0  0  0
    2.6660   -3.1138   -2.1032 H   0  0  0  0  0  0  0  0  0  0  0  0
    2.3125   -0.6386   -2.2517 H   0  0  0  0  0  0  0  0  0  0  0  0
    3.1841   -1.8044   -4.9448 H   0  0  0  0  0  0  0  0  0  0  0  0
    2.1097   -0.3339   -4.6998 H   0  0  0  0  0  0  0  0  0  0  0  0
    3.9170    0.8128   -3.4498 H   0  0  0  0  0  0  0  0  0  0  0  0
    5.0162   -0.6515   -3.7485 H   0  0  0  0  0  0  0  0  0  0  0  0
    4.8418   -4.8960   -1.5985 H   0  0  0  0  0  0  0  0  0  0  0  0
    3.3671   -5.0738   -0.2702 H   0  0  0  0  0  0  0  0  0  0  0  0
    1.8586   -3.6260    0.4018 H   0  0  0  0  0  0  0  0  0  0  0  0
    2.2511   -4.2593    1.9637 H   0  0  0  0  0  0  0  0  0  0  0  0
    1.9831   -1.9111    2.1747 H   0  0  0  0  0  0  0  0  0  0  0  0
    2.8745   -1.4377    0.8166 H   0  0  0  0  0  0  0  0  0  0  0  0
    3.5952   -1.9099   -0.3289 H   0  0  0  0  0  0  0  0  0  0  0  0
  1  2  1  0
  1 27  1  0
  2  7  2  0
  2  3  1  0
  3  4  2  0
  3 28  1  0
  4  5  1  0
  4 29  1  0
  5 26  1  0
  5  6  2  0
  6 14  1  0
  6  7  1  0
  7  8  1  0
  8  9  1  0
  9 24  1  0
  9 10  1  0
  9 30  1  1
 10 11  2  0
 10 31  1  0
 11 12  1  0
 11 32  1  0
 12 13  1  0
 12 14  1  0
 12 33  1  1
 13 34  1  0
 14 22  1  0
 14 15  1  6
 15 16  1  0
 15 35  1  0
 15 36  1  0
 16 17  1  0
 16 37  1  0
 16 38  1  0
 17 18  1  0
 17 22  1  0
 17 52  1  1
 18 19  1  0
 18 39  1  0
 18 40  1  0
 19 21  1  0
 19 20  1  0
 19 41  1  0
 20 21  1  0
 20 42  1  0
 20 43  1  0
 21 44  1  0
 21 45  1  0
 22 23  1  6
 22 24  1  0
 23 46  1  0
 24 25  1  0
 24 47  1  6
 25 26  1  0
 25 48  1  0
 25 49  1  0
 26 50  1  0
 26 51  1  0
M  CHG  1  17   1
M  END
>  <i_m_ct_stereo_status>  (99) 
1

>  <s_m_source_file>  (99) 
/var/tmp/pbs.5076255.sched01/tmp44bw07az/09l6mph0o.sdf

>  <i_m_source_file_index>  (99) 
40

>  <i_lp_mmshare_version>  (99) 
48012

>  <i_f3d_flags>  (99) 
0

>  <s_epik_input>  (99) 
W0NAQF0xMjNjNGM1W2NIXVtjSF1jKFtPSF0pYzRPW0NASF0oW0NIXT1bQ0hdW0NASF0xW09IXSlbQ0BASF0oW0NIMl1bQ0gyXTUpW0NAQF0zKFtPSF0pTihbQ0gyXVtDSDJdMilbQ0gyXVtDSF02W0NIMl1bQ0gyXTY=

>  <s_epik_cmdline>  (99) 
J2VwaWtfcHl0aG9uJywgJy1waHQnLCAnMi4wJywgJy1waCcsICc3LjAnLCAnLXRuJywgJzgnLCAnLW1hJywgJzIwMCcsICctaW1hZScsICc8aW5maWxlLm1hZT4nLCAnLW9tYWUnLCAnPG91dGZpbGUubWFlPic=

>  <r_lp_tautomer_probability>  (99) 
1

>  <r_epik_Ionization_Penalty>  (99) 
0.303396

>  <r_epik_Ionization_Penalty_Charging>  (99) 
0.266688

>  <r_epik_Ionization_Penalty_Neutral>  (99) 
0.0367074

>  <r_epik_State_Penalty>  (99) 
0.277921

>  <r_epik_Charging_Adjusted_Penalty>  (99) 
0.54461

>  <i_epik_Tot_Q>  (99) 
1

>  <i_epik_Tot_abs_Q>  (99) 
1

>  <s_lp_Force_Field>  (99) 
OPLS3e

>  <r_lp_Energy>  (99) 
124.713

>  <b_lp_Chiralities_Consistent>  (99) 
1

>  <s_lp_Variant>  (99) 
18:0-1

>  <s_i_glide_gridfile>  (99) 
pfpi4k_grid

>  <i_i_glide_lignum>  (99) 
40

>  <i_i_glide_rotatable_bonds>  (99) 
5

>  <r_i_docking_score>  (99) 
-3.60044

>  <r_i_glide_ligand_efficiency>  (99) 
-0.138479

>  <r_i_glide_ligand_efficiency_sa>  (99) 
-0.410242

>  <r_i_glide_ligand_efficiency_ln>  (99) 
-0.845552

>  <r_i_glide_gscore>  (99) 
-3.60044

>  <r_i_glide_lipo>  (99) 
-0.8982

>  <r_i_glide_hbond>  (99) 
0

>  <r_i_glide_metal>  (99) 
-0

>  <r_i_glide_rewards>  (99) 
-1.03399

>  <r_i_glide_evdw>  (99) 
-23.2736

>  <r_i_glide_ecoul>  (99) 
-5.22344

>  <r_i_glide_erotb>  (99) 
0.301187

>  <r_i_glide_esite>  (99) 
-0.0222369

>  <r_i_glide_emodel>  (99) 
-33.4341

>  <r_i_glide_energy>  (99) 
-28.4971

>  <r_i_glide_einternal>  (99) 
2.00717

>  <r_i_glide_intrahb_reward>  (99) 
-0

>  <i_i_glide_confnum>  (99) 
1

>  <i_i_glide_posenum>  (99) 
1

>  <r_i_glide_eff_state_penalty>  (99) 
0

>  <ligand_id>  (99) 
18

>  <original_smiles>  (99) 
Oc1ccc2c3c1OC1C=CC(O)C34CCN(CC3CC3)C4(O)C1CC2

>  <smiles>  (99) 
[H]Oc1c([H])c([H])c2c3c1OC1([H])C([H])=C([H])C([H])(O[H])C34C([H])([H])C([H])([H])[N+]([H])(C([H])([H])C3([H])C([H])([H])C3([H])[H])C4(O[H])C1([H])C([H])([H])C2([H])[H]

$$$$
18:0:2
     RDKit          3D

 52 57  0  0  1  0  0  0  0  0999 V2000
    5.6004   -4.4638    5.7437 O   0  0  0  0  0  0  0  0  0  0  0  0
    5.3534   -3.5757    4.7391 C   0  0  0  0  0  0  0  0  0  0  0  0
    4.9396   -2.2773    5.0534 C   0  0  0  0  0  0  0  0  0  0  0  0
    4.3347   -1.5072    4.0427 C   0  0  0  0  0  0  0  0  0  0  0  0
    4.4046   -1.9414    2.6994 C   0  0  0  0  0  0  0  0  0  0  0  0
    5.2902   -3.0044    2.4151 C   0  0  0  0  0  0  0  0  0  0  0  0
    5.3738   -4.0137    3.3922 C   0  0  0  0  0  0  0  0  0  0  0  0
    4.9871   -5.2933    3.1319 O   0  0  0  0  0  0  0  0  0  0  0  0
    4.4799   -5.6262    1.8292 C   0  0  2  0  0  0  0  0  0  0  0  0
    5.6545   -6.3454    1.2090 C   0  0  0  0  0  0  0  0  0  0  0  0
    6.8242   -5.7485    0.9231 C   0  0  0  0  0  0  0  0  0  0  0  0
    7.1137   -4.2429    0.9671 C   0  0  1  0  0  0  0  0  0  0  0  0
    8.0069   -3.9641   -0.0972 O   0  0  0  0  0  0  0  0  0  0  0  0
    5.8565   -3.2581    0.9593 C   0  0  2  0  0  0  0  0  0  0  0  0
    6.2396   -1.8678    0.3539 C   0  0  0  0  0  0  0  0  0  0  0  0
    5.4679   -1.7440   -0.9502 C   0  0  0  0  0  0  0  0  0  0  0  0
    4.2621   -2.5784   -0.7690 N   0  0  1  0  0  0  0  0  0  0  0  0
    3.4157   -2.7520   -1.9920 C   0  0  0  0  0  0  0  0  0  0  0  0
    3.1582   -1.4373   -2.7104 C   0  0  0  0  0  0  0  0  0  0  0  0
    2.8924   -1.4190   -4.1972 C   0  0  0  0  0  0  0  0  0  0  0  0
    4.1863   -0.9069   -3.6817 C   0  0  0  0  0  0  0  0  0  0  0  0
    4.7449   -3.7751   -0.0055 C   0  0  1  0  0  0  0  0  0  0  0  0
    5.1747   -4.5792   -1.0924 O   0  0  0  0  0  0  0  0  0  0  0  0
    3.7417   -4.5590    0.8694 C   0  0  2  0  0  0  0  0  0  0  0  0
    2.7085   -3.6032    1.5521 C   0  0  0  0  0  0  0  0  0  0  0  0
    3.1163   -2.1167    1.8905 C   0  0  0  0  0  0  0  0  0  0  0  0
    5.7765   -5.3354    5.4236 H   0  0  0  0  0  0  0  0  0  0  0  0
    4.8479   -1.9847    6.0889 H   0  0  0  0  0  0  0  0  0  0  0  0
    3.6535   -0.7215    4.3336 H   0  0  0  0  0  0  0  0  0  0  0  0
    3.7396   -6.3956    2.0544 H   0  0  0  0  0  0  0  0  0  0  0  0
    5.5711   -7.4205    1.1401 H   0  0  0  0  0  0  0  0  0  0  0  0
    7.6430   -6.3792    0.6088 H   0  0  0  0  0  0  0  0  0  0  0  0
    7.7315   -4.0547    1.8405 H   0  0  0  0  0  0  0  0  0  0  0  0
    8.5749   -4.7117   -0.2061 H   0  0  0  0  0  0  0  0  0  0  0  0
    5.9456   -1.0325    0.9897 H   0  0  0  0  0  0  0  0  0  0  0  0
    7.3059   -1.7037    0.1987 H   0  0  0  0  0  0  0  0  0  0  0  0
    5.2226   -0.7024   -1.1451 H   0  0  0  0  0  0  0  0  0  0  0  0
    6.0695   -2.1253   -1.7763 H   0  0  0  0  0  0  0  0  0  0  0  0
    3.8460   -3.4262   -2.7308 H   0  0  0  0  0  0  0  0  0  0  0  0
    2.4566   -3.1733   -1.6960 H   0  0  0  0  0  0  0  0  0  0  0  0
    2.6167   -0.6917   -2.1287 H   0  0  0  0  0  0  0  0  0  0  0  0
    2.9141   -2.3761   -4.7100 H   0  0  0  0  0  0  0  0  0  0  0  0
    2.2129   -0.6736   -4.6037 H   0  0  0  0  0  0  0  0  0  0  0  0
    4.3545    0.1708   -3.6931 H   0  0  0  0  0  0  0  0  0  0  0  0
    5.0393   -1.5431   -3.8713 H   0  0  0  0  0  0  0  0  0  0  0  0
    4.4578   -5.1362   -1.3700 H   0  0  0  0  0  0  0  0  0  0  0  0
    3.1522   -5.1777    0.1933 H   0  0  0  0  0  0  0  0  0  0  0  0
    1.8601   -3.5308    0.8776 H   0  0  0  0  0  0  0  0  0  0  0  0
    2.3152   -4.0949    2.4440 H   0  0  0  0  0  0  0  0  0  0  0  0
    2.3005   -1.7173    2.4921 H   0  0  0  0  0  0  0  0  0  0  0  0
    3.1242   -1.4427    1.0356 H   0  0  0  0  0  0  0  0  0  0  0  0
    3.6975   -2.0561   -0.1181 H   0  0  0  0  0  0  0  0  0  0  0  0
  1  2  1  0
  1 27  1  0
  2  7  2  0
  2  3  1  0
  3  4  2  0
  3 28  1  0
  4  5  1  0
  4 29  1  0
  5 26  1  0
  5  6  2  0
  6 14  1  0
  6  7  1  0
  7  8  1  0
  8  9  1  0
  9 24  1  0
  9 10  1  0
  9 30  1  1
 10 11  2  0
 10 31  1  0
 11 12  1  0
 11 32  1  0
 12 13  1  0
 12 14  1  0
 12 33  1  1
 13 34  1  0
 14 22  1  0
 14 15  1  6
 15 16  1  0
 15 35  1  0
 15 36  1  0
 16 17  1  0
 16 37  1  0
 16 38  1  0
 17 18  1  0
 17 22  1  0
 17 52  1  1
 18 19  1  0
 18 39  1  0
 18 40  1  0
 19 21  1  0
 19 20  1  0
 19 41  1  0
 20 21  1  0
 20 42  1  0
 20 43  1  0
 21 44  1  0
 21 45  1  0
 22 23  1  6
 22 24  1  0
 23 46  1  0
 24 25  1  0
 24 47  1  6
 25 26  1  0
 25 48  1  0
 25 49  1  0
 26 50  1  0
 26 51  1  0
M  CHG  1  17   1
M  END
>  <i_m_ct_stereo_status>  (100) 
1

>  <s_m_source_file>  (100) 
/var/tmp/pbs.5076255.sched01/tmp44bw07az/09l6mph0o.sdf

>  <i_m_source_file_index>  (100) 
40

>  <i_lp_mmshare_version>  (100) 
48012

>  <i_f3d_flags>  (100) 
0

>  <s_epik_input>  (100) 
W0NAQF0xMjNjNGM1W2NIXVtjSF1jKFtPSF0pYzRPW0NASF0oW0NIXT1bQ0hdW0NASF0xW09IXSlbQ0BASF0oW0NIMl1bQ0gyXTUpW0NAQF0zKFtPSF0pTihbQ0gyXVtDSDJdMilbQ0gyXVtDSF02W0NIMl1bQ0gyXTY=

>  <s_epik_cmdline>  (100) 
J2VwaWtfcHl0aG9uJywgJy1waHQnLCAnMi4wJywgJy1waCcsICc3LjAnLCAnLXRuJywgJzgnLCAnLW1hJywgJzIwMCcsICctaW1hZScsICc8aW5maWxlLm1hZT4nLCAnLW9tYWUnLCAnPG91dGZpbGUubWFlPic=

>  <r_lp_tautomer_probability>  (100) 
1

>  <r_epik_Ionization_Penalty>  (100) 
0.303396

>  <r_epik_Ionization_Penalty_Charging>  (100) 
0.266688

>  <r_epik_Ionization_Penalty_Neutral>  (100) 
0.0367074

>  <r_epik_State_Penalty>  (100) 
0.277921

>  <r_epik_Charging_Adjusted_Penalty>  (100) 
0.54461

>  <i_epik_Tot_Q>  (100) 
1

>  <i_epik_Tot_abs_Q>  (100) 
1

>  <s_lp_Force_Field>  (100) 
OPLS3e

>  <r_lp_Energy>  (100) 
124.713

>  <b_lp_Chiralities_Consistent>  (100) 
1

>  <s_lp_Variant>  (100) 
18:0-1

>  <s_i_glide_gridfile>  (100) 
pfpi4k_grid

>  <i_i_glide_lignum>  (100) 
40

>  <i_i_glide_rotatable_bonds>  (100) 
5

>  <r_i_docking_score>  (100) 
-3.52132

>  <r_i_glide_ligand_efficiency>  (100) 
-0.135435

>  <r_i_glide_ligand_efficiency_sa>  (100) 
-0.401227

>  <r_i_glide_ligand_efficiency_ln>  (100) 
-0.82697

>  <r_i_glide_gscore>  (100) 
-3.52132

>  <r_i_glide_lipo>  (100) 
-0.826366

>  <r_i_glide_hbond>  (100) 
0

>  <r_i_glide_metal>  (100) 
-0

>  <r_i_glide_rewards>  (100) 
-1.02552

>  <r_i_glide_evdw>  (100) 
-23.1906

>  <r_i_glide_ecoul>  (100) 
-5.31656

>  <r_i_glide_erotb>  (100) 
0.301187

>  <r_i_glide_esite>  (100) 
-0.0135999

>  <r_i_glide_emodel>  (100) 
-33.1251

>  <r_i_glide_energy>  (100) 
-28.5072

>  <r_i_glide_einternal>  (100) 
2.7426

>  <r_i_glide_intrahb_reward>  (100) 
-0

>  <i_i_glide_confnum>  (100) 
1

>  <i_i_glide_posenum>  (100) 
9

>  <r_i_glide_eff_state_penalty>  (100) 
0

>  <ligand_id>  (100) 
18

>  <original_smiles>  (100) 
Oc1ccc2c3c1OC1C=CC(O)C34CCN(CC3CC3)C4(O)C1CC2

>  <smiles>  (100) 
[H]Oc1c([H])c([H])c2c3c1OC1([H])C([H])=C([H])C([H])(O[H])C34C([H])([H])C([H])([H])[N+]([H])(C([H])([H])C3([H])C([H])([H])C3([H])[H])C4(O[H])C1([H])C([H])([H])C2([H])[H]

$$$$
18:1:0
     RDKit          3D

 51 56  0  0  1  0  0  0  0  0999 V2000
    4.2136   -0.0392   -3.0608 O   0  0  0  0  0  0  0  0  0  0  0  0
    4.0971   -1.3037   -2.5527 C   0  0  0  0  0  0  0  0  0  0  0  0
    3.3571   -2.2258   -3.3147 C   0  0  0  0  0  0  0  0  0  0  0  0
    2.8629   -3.3504   -2.6321 C   0  0  0  0  0  0  0  0  0  0  0  0
    3.3586   -3.6863   -1.3569 C   0  0  0  0  0  0  0  0  0  0  0  0
    4.4790   -2.9723   -0.8852 C   0  0  0  0  0  0  0  0  0  0  0  0
    4.5319   -1.5994   -1.2524 C   0  0  0  0  0  0  0  0  0  0  0  0
    4.4318   -0.6306   -0.2878 O   0  0  0  0  0  0  0  0  0  0  0  0
    4.3491   -0.9988    1.0868 C   0  0  2  0  0  0  0  0  0  0  0  0
    5.7517   -0.7602    1.5597 C   0  0  0  0  0  0  0  0  0  0  0  0
    6.8058   -1.4539    1.1024 C   0  0  0  0  0  0  0  0  0  0  0  0
    6.7960   -2.7441    0.2866 C   0  0  1  0  0  0  0  0  0  0  0  0
    7.8510   -3.5474    0.7915 O   0  0  0  0  0  0  0  0  0  0  0  0
    5.4143   -3.5379    0.2467 C   0  0  2  0  0  0  0  0  0  0  0  0
    5.6425   -5.0620    0.0137 C   0  0  0  0  0  0  0  0  0  0  0  0
    5.2042   -5.7954    1.2841 C   0  0  0  0  0  0  0  0  0  0  0  0
    4.1851   -4.8959    1.8041 N   0  0  0  0  0  0  0  0  0  0  0  0
    3.6274   -5.2768    3.1052 C   0  0  0  0  0  0  0  0  0  0  0  0
    2.6401   -6.4199    2.9760 C   0  0  0  0  0  0  0  0  0  0  0  0
    1.1686   -6.1406    2.7637 C   0  0  0  0  0  0  0  0  0  0  0  0
    1.6467   -6.6563    4.0918 C   0  0  0  0  0  0  0  0  0  0  0  0
    4.7038   -3.5361    1.6350 C   0  0  1  0  0  0  0  0  0  0  0  0
    5.5297   -3.3973    2.7742 O   0  0  0  0  0  0  0  0  0  0  0  0
    3.6975   -2.3700    1.6006 C   0  0  2  0  0  0  0  0  0  0  0  0
    2.3682   -2.7987    0.9311 C   0  0  0  0  0  0  0  0  0  0  0  0
    2.3802   -3.8960   -0.2034 C   0  0  0  0  0  0  0  0  0  0  0  0
    3.3650    0.4103   -3.1232 H   0  0  0  0  0  0  0  0  0  0  0  0
    2.9459   -1.9628   -4.2778 H   0  0  0  0  0  0  0  0  0  0  0  0
    2.0022   -3.8580   -3.0327 H   0  0  0  0  0  0  0  0  0  0  0  0
    3.7468   -0.1987    1.5100 H   0  0  0  0  0  0  0  0  0  0  0  0
    5.9026    0.1177    2.1677 H   0  0  0  0  0  0  0  0  0  0  0  0
    7.7819   -1.0901    1.3828 H   0  0  0  0  0  0  0  0  0  0  0  0
    7.1170   -2.5077   -0.7287 H   0  0  0  0  0  0  0  0  0  0  0  0
    8.6348   -3.0226    0.8512 H   0  0  0  0  0  0  0  0  0  0  0  0
    5.0488   -5.4403   -0.8145 H   0  0  0  0  0  0  0  0  0  0  0  0
    6.6653   -5.3281   -0.2488 H   0  0  0  0  0  0  0  0  0  0  0  0
    4.8274   -6.7946    1.0637 H   0  0  0  0  0  0  0  0  0  0  0  0
    6.0448   -5.8741    1.9776 H   0  0  0  0  0  0  0  0  0  0  0  0
    4.4142   -5.5467    3.8050 H   0  0  0  0  0  0  0  0  0  0  0  0
    3.1020   -4.4216    3.5178 H   0  0  0  0  0  0  0  0  0  0  0  0
    3.0376   -7.3251    2.5184 H   0  0  0  0  0  0  0  0  0  0  0  0
    0.8781   -5.0958    2.7024 H   0  0  0  0  0  0  0  0  0  0  0  0
    0.6079   -6.8246    2.1301 H   0  0  0  0  0  0  0  0  0  0  0  0
    1.3803   -7.6819    4.3445 H   0  0  0  0  0  0  0  0  0  0  0  0
    1.6674   -5.9629    4.9269 H   0  0  0  0  0  0  0  0  0  0  0  0
    6.1468   -2.7143    2.5863 H   0  0  0  0  0  0  0  0  0  0  0  0
    3.4333   -2.1664    2.6392 H   0  0  0  0  0  0  0  0  0  0  0  0
    1.7245   -3.1425    1.7307 H   0  0  0  0  0  0  0  0  0  0  0  0
    1.9059   -1.8887    0.5876 H   0  0  0  0  0  0  0  0  0  0  0  0
    1.4229   -3.8824   -0.7126 H   0  0  0  0  0  0  0  0  0  0  0  0
    2.4430   -4.9189    0.1615 H   0  0  0  0  0  0  0  0  0  0  0  0
  1  2  1  0
  1 27  1  0
  2  7  2  0
  2  3  1  0
  3  4  2  0
  3 28  1  0
  4  5  1  0
  4 29  1  0
  5 26  1  0
  5  6  2  0
  6 14  1  0
  6  7  1  0
  7  8  1  0
  8  9  1  0
  9 24  1  0
  9 10  1  0
  9 30  1  1
 10 11  2  0
 10 31  1  0
 11 12  1  0
 11 32  1  0
 12 13  1  0
 12 14  1  0
 12 33  1  6
 13 34  1  0
 14 22  1  0
 14 15  1  6
 15 16  1  0
 15 35  1  0
 15 36  1  0
 16 17  1  0
 16 37  1  0
 16 38  1  0
 17 18  1  0
 17 22  1  0
 18 19  1  0
 18 39  1  0
 18 40  1  0
 19 21  1  0
 19 20  1  0
 19 41  1  0
 20 21  1  0
 20 42  1  0
 20 43  1  0
 21 44  1  0
 21 45  1  0
 22 23  1  1
 22 24  1  0
 23 46  1  0
 24 25  1  0
 24 47  1  1
 25 26  1  0
 25 48  1  0
 25 49  1  0
 26 50  1  0
 26 51  1  0
M  END
>  <i_m_ct_stereo_status>  (101) 
1

>  <s_m_source_file>  (101) 
/var/tmp/pbs.5076255.sched01/tmp44bw07az/09l6mph0o.sdf

>  <i_m_source_file_index>  (101) 
41

>  <i_lp_mmshare_version>  (101) 
48012

>  <i_f3d_flags>  (101) 
0

>  <s_epik_input>  (101) 
W0NAQF0xMjNjNGM1W2NIXVtjSF1jKFtPSF0pYzRPW0NASF0oW0NIXT1bQ0hdW0NASF0xW09IXSlbQ0BASF0oW0NIMl1bQ0gyXTUpW0NAQF0zKFtPSF0pTihbQ0gyXVtDSDJdMilbQ0gyXVtDSF02W0NIMl1bQ0gyXTY=

>  <s_epik_cmdline>  (101) 
J2VwaWtfcHl0aG9uJywgJy1waHQnLCAnMi4wJywgJy1waCcsICc3LjAnLCAnLXRuJywgJzgnLCAnLW1hJywgJzIwMCcsICctaW1hZScsICc8aW5maWxlLm1hZT4nLCAnLW9tYWUnLCAnPG91dGZpbGUubWFlPic=

>  <r_lp_tautomer_probability>  (101) 
1

>  <r_epik_Ionization_Penalty>  (101) 
0.601607

>  <r_epik_Ionization_Penalty_Charging>  (101) 
0

>  <r_epik_Ionization_Penalty_Neutral>  (101) 
0.601607

>  <r_epik_State_Penalty>  (101) 
0.634979

>  <r_epik_Charging_Adjusted_Penalty>  (101) 
0.634979

>  <i_epik_Tot_Q>  (101) 
0

>  <i_epik_Tot_abs_Q>  (101) 
0

>  <s_lp_Force_Field>  (101) 
OPLS3e

>  <r_lp_Energy>  (101) 
130.71

>  <b_lp_Chiralities_Consistent>  (101) 
1

>  <s_lp_Variant>  (101) 
18:0-2

>  <s_i_glide_gridfile>  (101) 
pfpi4k_grid

>  <i_i_glide_lignum>  (101) 
41

>  <i_i_glide_rotatable_bonds>  (101) 
5

>  <r_i_docking_score>  (101) 
-2.44802

>  <r_i_glide_ligand_efficiency>  (101) 
-0.0941545

>  <r_i_glide_ligand_efficiency_sa>  (101) 
-0.278932

>  <r_i_glide_ligand_efficiency_ln>  (101) 
-0.574909

>  <r_i_glide_gscore>  (101) 
-2.44802

>  <r_i_glide_lipo>  (101) 
-0.576254

>  <r_i_glide_hbond>  (101) 
0

>  <r_i_glide_metal>  (101) 
-0

>  <r_i_glide_rewards>  (101) 
-1.02062

>  <r_i_glide_evdw>  (101) 
-18.6495

>  <r_i_glide_ecoul>  (101) 
-1.47582

>  <r_i_glide_erotb>  (101) 
0.302709

>  <r_i_glide_esite>  (101) 
0

>  <r_i_glide_emodel>  (101) 
-19.5224

>  <r_i_glide_energy>  (101) 
-20.1253

>  <r_i_glide_einternal>  (101) 
3.91748

>  <r_i_glide_intrahb_reward>  (101) 
-0

>  <i_i_glide_confnum>  (101) 
2

>  <i_i_glide_posenum>  (101) 
3

>  <r_i_glide_eff_state_penalty>  (101) 
0

>  <ligand_id>  (101) 
18

>  <original_smiles>  (101) 
Oc1ccc2c3c1OC1C=CC(O)C34CCN(CC3CC3)C4(O)C1CC2

>  <smiles>  (101) 
[H]Oc1c([H])c([H])c2c3c1OC1([H])C([H])=C([H])C([H])(O[H])C34C([H])([H])C([H])([H])N(C([H])([H])C3([H])C([H])([H])C3([H])[H])C4(O[H])C1([H])C([H])([H])C2([H])[H]

$$$$
18:1:1
     RDKit          3D

 51 56  0  0  1  0  0  0  0  0999 V2000
    4.2032   -0.0110   -3.0484 O   0  0  0  0  0  0  0  0  0  0  0  0
    4.0917   -1.2813   -2.5618 C   0  0  0  0  0  0  0  0  0  0  0  0
    3.3694   -2.2069   -3.3315 C   0  0  0  0  0  0  0  0  0  0  0  0
    2.8695   -3.3347   -2.6650 C   0  0  0  0  0  0  0  0  0  0  0  0
    3.3474   -3.6609   -1.3760 C   0  0  0  0  0  0  0  0  0  0  0  0
    4.4669   -2.9583   -0.9005 C   0  0  0  0  0  0  0  0  0  0  0  0
    4.5131   -1.5927   -1.2525 C   0  0  0  0  0  0  0  0  0  0  0  0
    4.3998   -0.6287   -0.2823 O   0  0  0  0  0  0  0  0  0  0  0  0
    4.3032   -1.0034    1.0932 C   0  0  2  0  0  0  0  0  0  0  0  0
    5.6962   -0.7610    1.5828 C   0  0  0  0  0  0  0  0  0  0  0  0
    6.7632   -1.4483    1.1350 C   0  0  0  0  0  0  0  0  0  0  0  0
    6.7632   -2.7380    0.3051 C   0  0  1  0  0  0  0  0  0  0  0  0
    7.8208   -3.5447    0.8053 O   0  0  0  0  0  0  0  0  0  0  0  0
    5.3860   -3.5352    0.2401 C   0  0  2  0  0  0  0  0  0  0  0  0
    5.6211   -5.0539   -0.0060 C   0  0  0  0  0  0  0  0  0  0  0  0
    5.1805   -5.7936    1.2620 C   0  0  0  0  0  0  0  0  0  0  0  0
    4.1450   -4.9092    1.7750 N   0  0  0  0  0  0  0  0  0  0  0  0
    3.5766   -5.3012    3.0694 C   0  0  0  0  0  0  0  0  0  0  0  0
    2.8217   -6.6102    2.9787 C   0  0  0  0  0  0  0  0  0  0  0  0
    2.2851   -7.2312    4.2485 C   0  0  0  0  0  0  0  0  0  0  0  0
    3.4174   -7.8947    3.5121 C   0  0  0  0  0  0  0  0  0  0  0  0
    4.6682   -3.5476    1.6247 C   0  0  1  0  0  0  0  0  0  0  0  0
    5.5288   -3.4378    2.7484 O   0  0  0  0  0  0  0  0  0  0  0  0
    3.6605   -2.3821    1.5959 C   0  0  2  0  0  0  0  0  0  0  0  0
    2.3390   -2.8139    0.9079 C   0  0  0  0  0  0  0  0  0  0  0  0
    2.3676   -3.8963   -0.2385 C   0  0  0  0  0  0  0  0  0  0  0  0
    3.4473    0.2796   -3.5412 H   0  0  0  0  0  0  0  0  0  0  0  0
    2.9652   -1.9381   -4.3001 H   0  0  0  0  0  0  0  0  0  0  0  0
    2.0163   -3.8482   -3.0762 H   0  0  0  0  0  0  0  0  0  0  0  0
    3.6912   -0.2038    1.5156 H   0  0  0  0  0  0  0  0  0  0  0  0
    5.8418    0.1158    2.1968 H   0  0  0  0  0  0  0  0  0  0  0  0
    7.7337   -1.0681    1.4189 H   0  0  0  0  0  0  0  0  0  0  0  0
    7.0932   -2.4868   -0.7039 H   0  0  0  0  0  0  0  0  0  0  0  0
    7.5663   -3.8919    1.6525 H   0  0  0  0  0  0  0  0  0  0  0  0
    5.0282   -5.4279   -0.8374 H   0  0  0  0  0  0  0  0  0  0  0  0
    6.6435   -5.3083   -0.2612 H   0  0  0  0  0  0  0  0  0  0  0  0
    4.8189   -6.7910    1.0357 H   0  0  0  0  0  0  0  0  0  0  0  0
    6.0125   -5.8691    1.9652 H   0  0  0  0  0  0  0  0  0  0  0  0
    4.3501   -5.3721    3.8286 H   0  0  0  0  0  0  0  0  0  0  0  0
    2.8790   -4.5277    3.3833 H   0  0  0  0  0  0  0  0  0  0  0  0
    2.1673   -6.6942    2.1123 H   0  0  0  0  0  0  0  0  0  0  0  0
    2.5162   -6.7347    5.1891 H   0  0  0  0  0  0  0  0  0  0  0  0
    1.3177   -7.7270    4.2089 H   0  0  0  0  0  0  0  0  0  0  0  0
    3.1908   -8.8172    2.9818 H   0  0  0  0  0  0  0  0  0  0  0  0
    4.4143   -7.8425    3.9467 H   0  0  0  0  0  0  0  0  0  0  0  0
    6.1207   -2.7213    2.5791 H   0  0  0  0  0  0  0  0  0  0  0  0
    3.3865   -2.1856    2.6296 H   0  0  0  0  0  0  0  0  0  0  0  0
    1.6910   -3.1787    1.7001 H   0  0  0  0  0  0  0  0  0  0  0  0
    1.8674   -1.9040    0.5677 H   0  0  0  0  0  0  0  0  0  0  0  0
    1.4075   -3.8822   -0.7358 H   0  0  0  0  0  0  0  0  0  0  0  0
    2.4213   -4.9257    0.1124 H   0  0  0  0  0  0  0  0  0  0  0  0
  1  2  1  0
  1 27  1  0
  2  7  2  0
  2  3  1  0
  3  4  2  0
  3 28  1  0
  4  5  1  0
  4 29  1  0
  5 26  1  0
  5  6  2  0
  6 14  1  0
  6  7  1  0
  7  8  1  0
  8  9  1  0
  9 24  1  0
  9 10  1  0
  9 30  1  1
 10 11  2  0
 10 31  1  0
 11 12  1  0
 11 32  1  0
 12 13  1  0
 12 14  1  0
 12 33  1  6
 13 34  1  0
 14 22  1  0
 14 15  1  6
 15 16  1  0
 15 35  1  0
 15 36  1  0
 16 17  1  0
 16 37  1  0
 16 38  1  0
 17 18  1  0
 17 22  1  0
 18 19  1  0
 18 39  1  0
 18 40  1  0
 19 21  1  0
 19 20  1  0
 19 41  1  0
 20 21  1  0
 20 42  1  0
 20 43  1  0
 21 44  1  0
 21 45  1  0
 22 23  1  1
 22 24  1  0
 23 46  1  0
 24 25  1  0
 24 47  1  1
 25 26  1  0
 25 48  1  0
 25 49  1  0
 26 50  1  0
 26 51  1  0
M  END
>  <i_m_ct_stereo_status>  (102) 
1

>  <s_m_source_file>  (102) 
/var/tmp/pbs.5076255.sched01/tmp44bw07az/09l6mph0o.sdf

>  <i_m_source_file_index>  (102) 
41

>  <i_lp_mmshare_version>  (102) 
48012

>  <i_f3d_flags>  (102) 
0

>  <s_epik_input>  (102) 
W0NAQF0xMjNjNGM1W2NIXVtjSF1jKFtPSF0pYzRPW0NASF0oW0NIXT1bQ0hdW0NASF0xW09IXSlbQ0BASF0oW0NIMl1bQ0gyXTUpW0NAQF0zKFtPSF0pTihbQ0gyXVtDSDJdMilbQ0gyXVtDSF02W0NIMl1bQ0gyXTY=

>  <s_epik_cmdline>  (102) 
J2VwaWtfcHl0aG9uJywgJy1waHQnLCAnMi4wJywgJy1waCcsICc3LjAnLCAnLXRuJywgJzgnLCAnLW1hJywgJzIwMCcsICctaW1hZScsICc8aW5maWxlLm1hZT4nLCAnLW9tYWUnLCAnPG91dGZpbGUubWFlPic=

>  <r_lp_tautomer_probability>  (102) 
1

>  <r_epik_Ionization_Penalty>  (102) 
0.601607

>  <r_epik_Ionization_Penalty_Charging>  (102) 
0

>  <r_epik_Ionization_Penalty_Neutral>  (102) 
0.601607

>  <r_epik_State_Penalty>  (102) 
0.634979

>  <r_epik_Charging_Adjusted_Penalty>  (102) 
0.634979

>  <i_epik_Tot_Q>  (102) 
0

>  <i_epik_Tot_abs_Q>  (102) 
0

>  <s_lp_Force_Field>  (102) 
OPLS3e

>  <r_lp_Energy>  (102) 
130.71

>  <b_lp_Chiralities_Consistent>  (102) 
1

>  <s_lp_Variant>  (102) 
18:0-2

>  <s_i_glide_gridfile>  (102) 
pfpi4k_grid

>  <i_i_glide_lignum>  (102) 
41

>  <i_i_glide_rotatable_bonds>  (102) 
5

>  <r_i_docking_score>  (102) 
-2.37597

>  <r_i_glide_ligand_efficiency>  (102) 
-0.0913835

>  <r_i_glide_ligand_efficiency_sa>  (102) 
-0.270723

>  <r_i_glide_ligand_efficiency_ln>  (102) 
-0.557989

>  <r_i_glide_gscore>  (102) 
-2.37597

>  <r_i_glide_lipo>  (102) 
-0.597582

>  <r_i_glide_hbond>  (102) 
0

>  <r_i_glide_metal>  (102) 
-0

>  <r_i_glide_rewards>  (102) 
-1.01914

>  <r_i_glide_evdw>  (102) 
-18.0971

>  <r_i_glide_ecoul>  (102) 
-1.04736

>  <r_i_glide_erotb>  (102) 
0.302709

>  <r_i_glide_esite>  (102) 
0

>  <r_i_glide_emodel>  (102) 
-20.1929

>  <r_i_glide_energy>  (102) 
-19.1445

>  <r_i_glide_einternal>  (102) 
1.15673

>  <r_i_glide_intrahb_reward>  (102) 
-0

>  <i_i_glide_confnum>  (102) 
1

>  <i_i_glide_posenum>  (102) 
1

>  <r_i_glide_eff_state_penalty>  (102) 
0

>  <ligand_id>  (102) 
18

>  <original_smiles>  (102) 
Oc1ccc2c3c1OC1C=CC(O)C34CCN(CC3CC3)C4(O)C1CC2

>  <smiles>  (102) 
[H]Oc1c([H])c([H])c2c3c1OC1([H])C([H])=C([H])C([H])(O[H])C34C([H])([H])C([H])([H])N(C([H])([H])C3([H])C([H])([H])C3([H])[H])C4(O[H])C1([H])C([H])([H])C2([H])[H]

$$$$
18:1:2
     RDKit          3D

 51 56  0  0  1  0  0  0  0  0999 V2000
    4.2185   -0.0228   -3.0805 O   0  0  0  0  0  0  0  0  0  0  0  0
    4.0970   -1.2868   -2.5862 C   0  0  0  0  0  0  0  0  0  0  0  0
    3.3663   -2.2140   -3.3572 C   0  0  0  0  0  0  0  0  0  0  0  0
    2.8598   -3.3349   -2.6833 C   0  0  0  0  0  0  0  0  0  0  0  0
    3.3328   -3.6647   -1.3966 C   0  0  0  0  0  0  0  0  0  0  0  0
    4.4513   -2.9580   -0.9136 C   0  0  0  0  0  0  0  0  0  0  0  0
    4.5184   -1.5891   -1.2802 C   0  0  0  0  0  0  0  0  0  0  0  0
    4.4106   -0.6203   -0.3167 O   0  0  0  0  0  0  0  0  0  0  0  0
    4.3072   -0.9905    1.0571 C   0  0  2  0  0  0  0  0  0  0  0  0
    5.7025   -0.7569    1.5495 C   0  0  0  0  0  0  0  0  0  0  0  0
    6.7617   -1.4532    1.1084 C   0  0  0  0  0  0  0  0  0  0  0  0
    6.7566   -2.7409    0.2857 C   0  0  1  0  0  0  0  0  0  0  0  0
    7.8024   -3.5487    0.8024 O   0  0  0  0  0  0  0  0  0  0  0  0
    5.3720   -3.5300    0.2279 C   0  0  2  0  0  0  0  0  0  0  0  0
    5.5989   -5.0546   -0.0071 C   0  0  0  0  0  0  0  0  0  0  0  0
    5.1489   -5.7856    1.2622 C   0  0  0  0  0  0  0  0  0  0  0  0
    4.1199   -4.8868    1.7651 N   0  0  0  0  0  0  0  0  0  0  0  0
    3.5394   -5.2703    3.0590 C   0  0  0  0  0  0  0  0  0  0  0  0
    2.7716   -6.5741    2.9740 C   0  0  0  0  0  0  0  0  0  0  0  0
    2.1952   -7.1640    4.2445 C   0  0  0  0  0  0  0  0  0  0  0  0
    3.3350   -7.8555    3.5472 C   0  0  0  0  0  0  0  0  0  0  0  0
    4.6453   -3.5279    1.6083 C   0  0  1  0  0  0  0  0  0  0  0  0
    5.4604   -3.3948    2.7582 O   0  0  0  0  0  0  0  0  0  0  0  0
    3.6461   -2.3601    1.5627 C   0  0  2  0  0  0  0  0  0  0  0  0
    2.3228   -2.7914    0.8862 C   0  0  0  0  0  0  0  0  0  0  0  0
    2.3433   -3.8785   -0.2562 C   0  0  0  0  0  0  0  0  0  0  0  0
    3.4698    0.2580   -3.5991 H   0  0  0  0  0  0  0  0  0  0  0  0
    2.9680   -1.9523   -4.3262 H   0  0  0  0  0  0  0  0  0  0  0  0
    2.0052   -3.8493   -3.0954 H   0  0  0  0  0  0  0  0  0  0  0  0
    3.6998   -0.1891    1.4722 H   0  0  0  0  0  0  0  0  0  0  0  0
    5.8472    0.1181    2.1646 H   0  0  0  0  0  0  0  0  0  0  0  0
    7.7361   -1.0925    1.4055 H   0  0  0  0  0  0  0  0  0  0  0  0
    7.0907   -2.5015   -0.7246 H   0  0  0  0  0  0  0  0  0  0  0  0
    8.6030   -3.0460    0.8156 H   0  0  0  0  0  0  0  0  0  0  0  0
    5.0052   -5.4296   -0.8361 H   0  0  0  0  0  0  0  0  0  0  0  0
    6.6211   -5.3212   -0.2614 H   0  0  0  0  0  0  0  0  0  0  0  0
    4.7740   -6.7837    1.0379 H   0  0  0  0  0  0  0  0  0  0  0  0
    5.9792   -5.8648    1.9680 H   0  0  0  0  0  0  0  0  0  0  0  0
    4.3091   -5.3534    3.8208 H   0  0  0  0  0  0  0  0  0  0  0  0
    2.8513   -4.4907    3.3674 H   0  0  0  0  0  0  0  0  0  0  0  0
    2.1328   -6.6669    2.0978 H   0  0  0  0  0  0  0  0  0  0  0  0
    2.4128   -6.6495    5.1770 H   0  0  0  0  0  0  0  0  0  0  0  0
    1.2218   -7.6470    4.1957 H   0  0  0  0  0  0  0  0  0  0  0  0
    3.1086   -8.7860    3.0271 H   0  0  0  0  0  0  0  0  0  0  0  0
    4.3213   -7.8042    3.9975 H   0  0  0  0  0  0  0  0  0  0  0  0
    6.1251   -2.7616    2.5556 H   0  0  0  0  0  0  0  0  0  0  0  0
    3.3705   -2.1567    2.5977 H   0  0  0  0  0  0  0  0  0  0  0  0
    1.6723   -3.1344    1.6847 H   0  0  0  0  0  0  0  0  0  0  0  0
    1.8717   -1.8793    0.5384 H   0  0  0  0  0  0  0  0  0  0  0  0
    1.3929   -3.8595   -0.7784 H   0  0  0  0  0  0  0  0  0  0  0  0
    2.3950   -4.9039    0.0991 H   0  0  0  0  0  0  0  0  0  0  0  0
  1  2  1  0
  1 27  1  0
  2  7  2  0
  2  3  1  0
  3  4  2  0
  3 28  1  0
  4  5  1  0
  4 29  1  0
  5 26  1  0
  5  6  2  0
  6 14  1  0
  6  7  1  0
  7  8  1  0
  8  9  1  0
  9 24  1  0
  9 10  1  0
  9 30  1  1
 10 11  2  0
 10 31  1  0
 11 12  1  0
 11 32  1  0
 12 13  1  0
 12 14  1  0
 12 33  1  6
 13 34  1  0
 14 22  1  0
 14 15  1  6
 15 16  1  0
 15 35  1  0
 15 36  1  0
 16 17  1  0
 16 37  1  0
 16 38  1  0
 17 18  1  0
 17 22  1  0
 18 19  1  0
 18 39  1  0
 18 40  1  0
 19 21  1  0
 19 20  1  0
 19 41  1  0
 20 21  1  0
 20 42  1  0
 20 43  1  0
 21 44  1  0
 21 45  1  0
 22 23  1  1
 22 24  1  0
 23 46  1  0
 24 25  1  0
 24 47  1  1
 25 26  1  0
 25 48  1  0
 25 49  1  0
 26 50  1  0
 26 51  1  0
M  END
>  <i_m_ct_stereo_status>  (103) 
1

>  <s_m_source_file>  (103) 
/var/tmp/pbs.5076255.sched01/tmp44bw07az/09l6mph0o.sdf

>  <i_m_source_file_index>  (103) 
41

>  <i_lp_mmshare_version>  (103) 
48012

>  <i_f3d_flags>  (103) 
0

>  <s_epik_input>  (103) 
W0NAQF0xMjNjNGM1W2NIXVtjSF1jKFtPSF0pYzRPW0NASF0oW0NIXT1bQ0hdW0NASF0xW09IXSlbQ0BASF0oW0NIMl1bQ0gyXTUpW0NAQF0zKFtPSF0pTihbQ0gyXVtDSDJdMilbQ0gyXVtDSF02W0NIMl1bQ0gyXTY=

>  <s_epik_cmdline>  (103) 
J2VwaWtfcHl0aG9uJywgJy1waHQnLCAnMi4wJywgJy1waCcsICc3LjAnLCAnLXRuJywgJzgnLCAnLW1hJywgJzIwMCcsICctaW1hZScsICc8aW5maWxlLm1hZT4nLCAnLW9tYWUnLCAnPG91dGZpbGUubWFlPic=

>  <r_lp_tautomer_probability>  (103) 
1

>  <r_epik_Ionization_Penalty>  (103) 
0.601607

>  <r_epik_Ionization_Penalty_Charging>  (103) 
0

>  <r_epik_Ionization_Penalty_Neutral>  (103) 
0.601607

>  <r_epik_State_Penalty>  (103) 
0.634979

>  <r_epik_Charging_Adjusted_Penalty>  (103) 
0.634979

>  <i_epik_Tot_Q>  (103) 
0

>  <i_epik_Tot_abs_Q>  (103) 
0

>  <s_lp_Force_Field>  (103) 
OPLS3e

>  <r_lp_Energy>  (103) 
130.71

>  <b_lp_Chiralities_Consistent>  (103) 
1

>  <s_lp_Variant>  (103) 
18:0-2

>  <s_i_glide_gridfile>  (103) 
pfpi4k_grid

>  <i_i_glide_lignum>  (103) 
41

>  <i_i_glide_rotatable_bonds>  (103) 
5

>  <r_i_docking_score>  (103) 
-2.29039

>  <r_i_glide_ligand_efficiency>  (103) 
-0.088092

>  <r_i_glide_ligand_efficiency_sa>  (103) 
-0.260972

>  <r_i_glide_ligand_efficiency_ln>  (103) 
-0.537891

>  <r_i_glide_gscore>  (103) 
-2.29039

>  <r_i_glide_lipo>  (103) 
-0.60201

>  <r_i_glide_hbond>  (103) 
0

>  <r_i_glide_metal>  (103) 
-0

>  <r_i_glide_rewards>  (103) 
-1.01822

>  <r_i_glide_evdw>  (103) 
-18.2623

>  <r_i_glide_ecoul>  (103) 
-0.398391

>  <r_i_glide_erotb>  (103) 
0.302709

>  <r_i_glide_esite>  (103) 
0

>  <r_i_glide_emodel>  (103) 
-19.3494

>  <r_i_glide_energy>  (103) 
-18.6607

>  <r_i_glide_einternal>  (103) 
1.48141

>  <r_i_glide_intrahb_reward>  (103) 
-0

>  <i_i_glide_confnum>  (103) 
2

>  <i_i_glide_posenum>  (103) 
24

>  <r_i_glide_eff_state_penalty>  (103) 
0

>  <ligand_id>  (103) 
18

>  <original_smiles>  (103) 
Oc1ccc2c3c1OC1C=CC(O)C34CCN(CC3CC3)C4(O)C1CC2

>  <smiles>  (103) 
[H]Oc1c([H])c([H])c2c3c1OC1([H])C([H])=C([H])C([H])(O[H])C34C([H])([H])C([H])([H])N(C([H])([H])C3([H])C([H])([H])C3([H])[H])C4(O[H])C1([H])C([H])([H])C2([H])[H]

$$$$
18:2:0
     RDKit          3D

 51 56  0  0  1  0  0  0  0  0999 V2000
    5.6551   -4.9478    4.4590 O   0  0  0  0  0  0  0  0  0  0  0  0
    4.8498   -4.5710    3.4285 C   0  0  0  0  0  0  0  0  0  0  0  0
    3.4986   -4.9837    3.4381 C   0  0  0  0  0  0  0  0  0  0  0  0
    2.7838   -4.9375    2.2365 C   0  0  0  0  0  0  0  0  0  0  0  0
    3.3324   -4.2519    1.1534 C   0  0  0  0  0  0  0  0  0  0  0  0
    4.4441   -3.4056    1.4072 C   0  0  0  0  0  0  0  0  0  0  0  0
    5.3782   -3.9500    2.2933 C   0  0  0  0  0  0  0  0  0  0  0  0
    6.6859   -4.1822    1.9372 O   0  0  0  0  0  0  0  0  0  0  0  0
    7.1074   -3.9700    0.5753 C   0  0  2  0  0  0  0  0  0  0  0  0
    7.8904   -2.6960    0.5859 C   0  0  0  0  0  0  0  0  0  0  0  0
    7.3391   -1.5192    0.8985 C   0  0  0  0  0  0  0  0  0  0  0  0
    5.8610   -1.2570    1.1636 C   0  0  1  0  0  0  0  0  0  0  0  0
    5.6730    0.1076    0.8880 O   0  0  0  0  0  0  0  0  0  0  0  0
    4.8380   -2.2283    0.4470 C   0  0  2  0  0  0  0  0  0  0  0  0
    3.5483   -1.5084    0.0533 C   0  0  0  0  0  0  0  0  0  0  0  0
    3.0378   -2.2024   -1.1739 C   0  0  0  0  0  0  0  0  0  0  0  0
    4.1545   -2.8612   -1.8502 N   0  0  1  0  0  0  0  0  0  0  0  0
    4.2830   -2.6589   -3.3452 C   0  0  0  0  0  0  0  0  0  0  0  0
    3.3292   -1.6515   -3.9621 C   0  0  0  0  0  0  0  0  0  0  0  0
    3.8002   -0.5847   -4.9018 C   0  0  0  0  0  0  0  0  0  0  0  0
    3.4334   -0.2177   -3.5371 C   0  0  0  0  0  0  0  0  0  0  0  0
    5.3473   -2.6949   -0.9505 C   0  0  1  0  0  0  0  0  0  0  0  0
    6.1189   -1.8215   -1.5890 O   0  0  0  0  0  0  0  0  0  0  0  0
    6.0789   -4.0332   -0.6213 C   0  0  2  0  0  0  0  0  0  0  0  0
    5.1396   -5.2765   -0.5098 C   0  0  0  0  0  0  0  0  0  0  0  0
    3.6575   -5.1164   -0.0589 C   0  0  0  0  0  0  0  0  0  0  0  0
    6.5687   -4.8587    4.2307 H   0  0  0  0  0  0  0  0  0  0  0  0
    3.1340   -5.5415    4.2617 H   0  0  0  0  0  0  0  0  0  0  0  0
    1.9782   -5.6508    2.0928 H   0  0  0  0  0  0  0  0  0  0  0  0
    7.8509   -4.7566    0.4360 H   0  0  0  0  0  0  0  0  0  0  0  0
    8.9632   -2.7753    0.6082 H   0  0  0  0  0  0  0  0  0  0  0  0
    8.0122   -0.7110    1.1109 H   0  0  0  0  0  0  0  0  0  0  0  0
    5.6959   -1.2969    2.2371 H   0  0  0  0  0  0  0  0  0  0  0  0
    6.5332    0.4995    0.9710 H   0  0  0  0  0  0  0  0  0  0  0  0
    2.8283   -1.4105    0.8719 H   0  0  0  0  0  0  0  0  0  0  0  0
    3.8014   -0.5035   -0.2892 H   0  0  0  0  0  0  0  0  0  0  0  0
    2.2113   -2.9369   -0.9255 H   0  0  0  0  0  0  0  0  0  0  0  0
    2.6266   -1.3929   -1.7488 H   0  0  0  0  0  0  0  0  0  0  0  0
    5.2952   -2.4430   -3.7180 H   0  0  0  0  0  0  0  0  0  0  0  0
    4.0433   -3.6089   -3.8099 H   0  0  0  0  0  0  0  0  0  0  0  0
    2.3141   -1.9986   -4.1301 H   0  0  0  0  0  0  0  0  0  0  0  0
    4.8693   -0.5525   -5.1010 H   0  0  0  0  0  0  0  0  0  0  0  0
    3.1642   -0.1916   -5.7106 H   0  0  0  0  0  0  0  0  0  0  0  0
    2.4824    0.2960   -3.3936 H   0  0  0  0  0  0  0  0  0  0  0  0
    4.2403    0.0169   -2.8260 H   0  0  0  0  0  0  0  0  0  0  0  0
    6.7031   -4.1629   -1.4865 H   0  0  0  0  0  0  0  0  0  0  0  0
    5.0520   -5.7065   -1.5051 H   0  0  0  0  0  0  0  0  0  0  0  0
    5.6573   -6.0428    0.0839 H   0  0  0  0  0  0  0  0  0  0  0  0
    3.3361   -6.1444    0.1032 H   0  0  0  0  0  0  0  0  0  0  0  0
    3.0440   -4.7982   -0.8907 H   0  0  0  0  0  0  0  0  0  0  0  0
    3.9365   -3.8522   -1.7677 H   0  0  0  0  0  0  0  0  0  0  0  0
  1  2  1  0
  1 27  1  0
  2  7  2  0
  2  3  1  0
  3  4  2  0
  3 28  1  0
  4  5  1  0
  4 29  1  0
  5 26  1  0
  5  6  2  0
  6 14  1  0
  6  7  1  0
  7  8  1  0
  8  9  1  0
  9 24  1  0
  9 10  1  0
  9 30  1  6
 10 11  2  0
 10 31  1  0
 11 12  1  0
 11 32  1  0
 12 13  1  0
 12 14  1  0
 12 33  1  1
 13 34  1  0
 14 22  1  0
 14 15  1  6
 15 16  1  0
 15 35  1  0
 15 36  1  0
 16 17  1  0
 16 37  1  0
 16 38  1  0
 17 18  1  0
 17 22  1  0
 17 51  1  6
 18 19  1  0
 18 39  1  0
 18 40  1  0
 19 21  1  0
 19 20  1  0
 19 41  1  0
 20 21  1  0
 20 42  1  0
 20 43  1  0
 21 44  1  0
 21 45  1  0
 22 23  1  6
 22 24  1  0
 24 25  1  0
 24 46  1  6
 25 26  1  0
 25 47  1  0
 25 48  1  0
 26 49  1  0
 26 50  1  0
M  CHG  2  17   1  23  -1
M  END
>  <i_m_ct_stereo_status>  (104) 
1

>  <s_m_source_file>  (104) 
/var/tmp/pbs.5076255.sched01/tmp44bw07az/09l6mph0o.sdf

>  <i_m_source_file_index>  (104) 
42

>  <i_lp_mmshare_version>  (104) 
48012

>  <i_f3d_flags>  (104) 
0

>  <s_epik_input>  (104) 
W0NAQF0xMjNjNGM1W2NIXVtjSF1jKFtPSF0pYzRPW0NASF0oW0NIXT1bQ0hdW0NASF0xW09IXSlbQ0BASF0oW0NIMl1bQ0gyXTUpW0NAQF0zKFtPSF0pTihbQ0gyXVtDSDJdMilbQ0gyXVtDSF02W0NIMl1bQ0gyXTY=

>  <s_epik_cmdline>  (104) 
J2VwaWtfcHl0aG9uJywgJy1waHQnLCAnMi4wJywgJy1waCcsICc3LjAnLCAnLXRuJywgJzgnLCAnLW1hJywgJzIwMCcsICctaW1hZScsICc8aW5maWxlLm1hZT4nLCAnLW9tYWUnLCAnPG91dGZpbGUubWFlPic=

>  <r_epik_Ionization_Penalty>  (104) 
1.68734

>  <r_epik_Ionization_Penalty_Charging>  (104) 
1.68612

>  <r_epik_Ionization_Penalty_Neutral>  (104) 
0.0012184

>  <r_epik_State_Penalty>  (104) 
2.03932

>  <r_epik_Charging_Adjusted_Penalty>  (104) 
3.72544

>  <i_epik_Tot_Q>  (104) 
0

>  <i_epik_Tot_abs_Q>  (104) 
2

>  <s_lp_Force_Field>  (104) 
OPLS3e

>  <r_lp_Energy>  (104) 
145.065

>  <b_lp_Chiralities_Consistent>  (104) 
1

>  <s_lp_Variant>  (104) 
18:0-3

>  <s_i_glide_gridfile>  (104) 
pfpi4k_grid

>  <i_i_glide_lignum>  (104) 
42

>  <i_i_glide_rotatable_bonds>  (104) 
4

>  <r_i_docking_score>  (104) 
-3.53097

>  <r_i_glide_ligand_efficiency>  (104) 
-0.135807

>  <r_i_glide_ligand_efficiency_sa>  (104) 
-0.402326

>  <r_i_glide_ligand_efficiency_ln>  (104) 
-0.829236

>  <r_i_glide_gscore>  (104) 
-3.53097

>  <r_i_glide_lipo>  (104) 
-1.09512

>  <r_i_glide_hbond>  (104) 
-0.167478

>  <r_i_glide_metal>  (104) 
-0

>  <r_i_glide_rewards>  (104) 
-0.985722

>  <r_i_glide_evdw>  (104) 
-8.54905

>  <r_i_glide_ecoul>  (104) 
-7.57659

>  <r_i_glide_erotb>  (104) 
0.302709

>  <r_i_glide_esite>  (104) 
-0.0214218

>  <r_i_glide_emodel>  (104) 
-10.012

>  <r_i_glide_energy>  (104) 
-16.1256

>  <r_i_glide_einternal>  (104) 
16.2615

>  <r_i_glide_intrahb_reward>  (104) 
-0

>  <i_i_glide_confnum>  (104) 
4

>  <i_i_glide_posenum>  (104) 
6

>  <r_i_glide_eff_state_penalty>  (104) 
0

>  <ligand_id>  (104) 
18

>  <original_smiles>  (104) 
Oc1ccc2c3c1OC1C=CC(O)C34CCN(CC3CC3)C4(O)C1CC2

>  <smiles>  (104) 
[H]Oc1c([H])c([H])c2c3c1OC1([H])C([H])=C([H])C([H])(O[H])C34C([H])([H])C([H])([H])[N+]([H])(C([H])([H])C3([H])C([H])([H])C3([H])[H])C4([O-])C1([H])C([H])([H])C2([H])[H]

$$$$
18:2:1
     RDKit          3D

 51 56  0  0  1  0  0  0  0  0999 V2000
    4.2650    0.0876   -3.0857 O   0  0  0  0  0  0  0  0  0  0  0  0
    4.1052   -1.1942   -2.6705 C   0  0  0  0  0  0  0  0  0  0  0  0
    3.2383   -2.0023   -3.4233 C   0  0  0  0  0  0  0  0  0  0  0  0
    2.6656   -3.0938   -2.7588 C   0  0  0  0  0  0  0  0  0  0  0  0
    3.1873   -3.5125   -1.5265 C   0  0  0  0  0  0  0  0  0  0  0  0
    4.4492   -3.0013   -1.1480 C   0  0  0  0  0  0  0  0  0  0  0  0
    4.6008   -1.6343   -1.4310 C   0  0  0  0  0  0  0  0  0  0  0  0
    4.8269   -0.7181   -0.4346 O   0  0  0  0  0  0  0  0  0  0  0  0
    4.8091   -1.1459    0.9397 C   0  0  2  0  0  0  0  0  0  0  0  0
    6.2641   -1.1383    1.2953 C   0  0  0  0  0  0  0  0  0  0  0  0
    7.1568   -1.9412    0.6995 C   0  0  0  0  0  0  0  0  0  0  0  0
    6.8478   -3.1216   -0.2148 C   0  0  1  0  0  0  0  0  0  0  0  0
    7.9034   -4.0524   -0.0417 O   0  0  0  0  0  0  0  0  0  0  0  0
    5.3767   -3.7411   -0.1077 C   0  0  2  0  0  0  0  0  0  0  0  0
    5.4004   -5.2462   -0.4310 C   0  0  0  0  0  0  0  0  0  0  0  0
    4.2956   -5.9505    0.3393 C   0  0  0  0  0  0  0  0  0  0  0  0
    3.8970   -5.0284    1.4303 N   0  0  1  0  0  0  0  0  0  0  0  0
    3.7010   -5.7638    2.7198 C   0  0  0  0  0  0  0  0  0  0  0  0
    3.0001   -4.9597    3.7952 C   0  0  0  0  0  0  0  0  0  0  0  0
    3.8041   -4.3878    4.9344 C   0  0  0  0  0  0  0  0  0  0  0  0
    2.8587   -5.5334    5.1889 C   0  0  0  0  0  0  0  0  0  0  0  0
    4.7634   -3.7825    1.3328 C   0  0  1  0  0  0  0  0  0  0  0  0
    5.6687   -3.9251    2.2915 O   0  0  0  0  0  0  0  0  0  0  0  0
    3.9989   -2.4302    1.4642 C   0  0  2  0  0  0  0  0  0  0  0  0
    2.5615   -2.5203    0.8784 C   0  0  0  0  0  0  0  0  0  0  0  0
    2.2402   -3.4955   -0.3250 C   0  0  0  0  0  0  0  0  0  0  0  0
    4.6427    0.6065   -2.3882 H   0  0  0  0  0  0  0  0  0  0  0  0
    2.8034   -1.6151   -4.3197 H   0  0  0  0  0  0  0  0  0  0  0  0
    1.6980   -3.4325   -3.1051 H   0  0  0  0  0  0  0  0  0  0  0  0
    4.3734   -0.2855    1.4484 H   0  0  0  0  0  0  0  0  0  0  0  0
    6.6065   -0.3337    1.9278 H   0  0  0  0  0  0  0  0  0  0  0  0
    8.1989   -1.7537    0.9005 H   0  0  0  0  0  0  0  0  0  0  0  0
    7.0125   -2.7934   -1.2385 H   0  0  0  0  0  0  0  0  0  0  0  0
    8.6275   -3.7798   -0.5802 H   0  0  0  0  0  0  0  0  0  0  0  0
    5.3175   -5.4421   -1.4981 H   0  0  0  0  0  0  0  0  0  0  0  0
    6.3009   -5.7232   -0.0607 H   0  0  0  0  0  0  0  0  0  0  0  0
    3.4447   -6.1608   -0.3142 H   0  0  0  0  0  0  0  0  0  0  0  0
    4.6565   -6.9170    0.7122 H   0  0  0  0  0  0  0  0  0  0  0  0
    3.0580   -6.6168    2.5003 H   0  0  0  0  0  0  0  0  0  0  0  0
    4.6387   -6.1927    3.0939 H   0  0  0  0  0  0  0  0  0  0  0  0
    2.1293   -4.4078    3.4401 H   0  0  0  0  0  0  0  0  0  0  0  0
    4.8752   -4.5967    4.9328 H   0  0  0  0  0  0  0  0  0  0  0  0
    3.5168   -3.3968    5.2721 H   0  0  0  0  0  0  0  0  0  0  0  0
    1.9654   -5.2929    5.7565 H   0  0  0  0  0  0  0  0  0  0  0  0
    3.3028   -6.5033    5.4139 H   0  0  0  0  0  0  0  0  0  0  0  0
    3.8761   -2.2569    2.5386 H   0  0  0  0  0  0  0  0  0  0  0  0
    1.8908   -2.7693    1.6947 H   0  0  0  0  0  0  0  0  0  0  0  0
    2.2781   -1.4999    0.6185 H   0  0  0  0  0  0  0  0  0  0  0  0
    1.3261   -3.1289   -0.7606 H   0  0  0  0  0  0  0  0  0  0  0  0
    1.9977   -4.5054    0.0016 H   0  0  0  0  0  0  0  0  0  0  0  0
    2.9790   -4.6992    1.1416 H   0  0  0  0  0  0  0  0  0  0  0  0
  1  2  1  0
  1 27  1  0
  2  7  2  0
  2  3  1  0
  3  4  2  0
  3 28  1  0
  4  5  1  0
  4 29  1  0
  5 26  1  0
  5  6  2  0
  6 14  1  0
  6  7  1  0
  7  8  1  0
  8  9  1  0
  9 24  1  0
  9 10  1  0
  9 30  1  1
 10 11  2  0
 10 31  1  0
 11 12  1  0
 11 32  1  0
 12 13  1  0
 12 14  1  0
 12 33  1  6
 13 34  1  0
 14 22  1  0
 14 15  1  6
 15 16  1  0
 15 35  1  0
 15 36  1  0
 16 17  1  0
 16 37  1  0
 16 38  1  0
 17 18  1  0
 17 22  1  0
 17 51  1  6
 18 19  1  0
 18 39  1  0
 18 40  1  0
 19 21  1  0
 19 20  1  0
 19 41  1  0
 20 21  1  0
 20 42  1  0
 20 43  1  0
 21 44  1  0
 21 45  1  0
 22 23  1  1
 22 24  1  0
 24 25  1  0
 24 46  1  1
 25 26  1  0
 25 47  1  0
 25 48  1  0
 26 49  1  0
 26 50  1  0
M  CHG  2  17   1  23  -1
M  END
>  <i_m_ct_stereo_status>  (105) 
1

>  <s_m_source_file>  (105) 
/var/tmp/pbs.5076255.sched01/tmp44bw07az/09l6mph0o.sdf

>  <i_m_source_file_index>  (105) 
42

>  <i_lp_mmshare_version>  (105) 
48012

>  <i_f3d_flags>  (105) 
0

>  <s_epik_input>  (105) 
W0NAQF0xMjNjNGM1W2NIXVtjSF1jKFtPSF0pYzRPW0NASF0oW0NIXT1bQ0hdW0NASF0xW09IXSlbQ0BASF0oW0NIMl1bQ0gyXTUpW0NAQF0zKFtPSF0pTihbQ0gyXVtDSDJdMilbQ0gyXVtDSF02W0NIMl1bQ0gyXTY=

>  <s_epik_cmdline>  (105) 
J2VwaWtfcHl0aG9uJywgJy1waHQnLCAnMi4wJywgJy1waCcsICc3LjAnLCAnLXRuJywgJzgnLCAnLW1hJywgJzIwMCcsICctaW1hZScsICc8aW5maWxlLm1hZT4nLCAnLW9tYWUnLCAnPG91dGZpbGUubWFlPic=

>  <r_epik_Ionization_Penalty>  (105) 
1.68734

>  <r_epik_Ionization_Penalty_Charging>  (105) 
1.68612

>  <r_epik_Ionization_Penalty_Neutral>  (105) 
0.0012184

>  <r_epik_State_Penalty>  (105) 
2.03932

>  <r_epik_Charging_Adjusted_Penalty>  (105) 
3.72544

>  <i_epik_Tot_Q>  (105) 
0

>  <i_epik_Tot_abs_Q>  (105) 
2

>  <s_lp_Force_Field>  (105) 
OPLS3e

>  <r_lp_Energy>  (105) 
145.065

>  <b_lp_Chiralities_Consistent>  (105) 
1

>  <s_lp_Variant>  (105) 
18:0-3

>  <s_i_glide_gridfile>  (105) 
pfpi4k_grid

>  <i_i_glide_lignum>  (105) 
42

>  <i_i_glide_rotatable_bonds>  (105) 
4

>  <r_i_docking_score>  (105) 
-2.86587

>  <r_i_glide_ligand_efficiency>  (105) 
-0.110226

>  <r_i_glide_ligand_efficiency_sa>  (105) 
-0.326543

>  <r_i_glide_ligand_efficiency_ln>  (105) 
-0.673039

>  <r_i_glide_gscore>  (105) 
-2.86587

>  <r_i_glide_lipo>  (105) 
-0.732347

>  <r_i_glide_hbond>  (105) 
0

>  <r_i_glide_metal>  (105) 
-0

>  <r_i_glide_rewards>  (105) 
-1.02294

>  <r_i_glide_evdw>  (105) 
-19.7769

>  <r_i_glide_ecoul>  (105) 
-2.82961

>  <r_i_glide_erotb>  (105) 
0.302709

>  <r_i_glide_esite>  (105) 
0

>  <r_i_glide_emodel>  (105) 
-24.0671

>  <r_i_glide_energy>  (105) 
-22.6065

>  <r_i_glide_einternal>  (105) 
1.3959

>  <r_i_glide_intrahb_reward>  (105) 
-0

>  <i_i_glide_confnum>  (105) 
1

>  <i_i_glide_posenum>  (105) 
1

>  <r_i_glide_eff_state_penalty>  (105) 
0

>  <ligand_id>  (105) 
18

>  <original_smiles>  (105) 
Oc1ccc2c3c1OC1C=CC(O)C34CCN(CC3CC3)C4(O)C1CC2

>  <smiles>  (105) 
[H]Oc1c([H])c([H])c2c3c1OC1([H])C([H])=C([H])C([H])(O[H])C34C([H])([H])C([H])([H])[N+]([H])(C([H])([H])C3([H])C([H])([H])C3([H])[H])C4([O-])C1([H])C([H])([H])C2([H])[H]

$$$$
18:2:2
     RDKit          3D

 51 56  0  0  1  0  0  0  0  0999 V2000
    4.2260    0.1238   -3.1283 O   0  0  0  0  0  0  0  0  0  0  0  0
    4.0485   -1.1413   -2.6442 C   0  0  0  0  0  0  0  0  0  0  0  0
    3.2697   -2.0334   -3.4094 C   0  0  0  0  0  0  0  0  0  0  0  0
    2.8055   -3.1885   -2.7657 C   0  0  0  0  0  0  0  0  0  0  0  0
    3.3232   -3.5317   -1.4946 C   0  0  0  0  0  0  0  0  0  0  0  0
    4.4942   -2.8958   -1.0625 C   0  0  0  0  0  0  0  0  0  0  0  0
    4.5228   -1.5144   -1.3710 C   0  0  0  0  0  0  0  0  0  0  0  0
    4.5727   -0.5936   -0.3715 O   0  0  0  0  0  0  0  0  0  0  0  0
    4.5378   -1.0062    1.0081 C   0  0  2  0  0  0  0  0  0  0  0  0
    5.9581   -0.7965    1.4246 C   0  0  0  0  0  0  0  0  0  0  0  0
    6.9838   -1.4839    0.8783 C   0  0  0  0  0  0  0  0  0  0  0  0
    6.8664   -2.6872   -0.0403 C   0  0  1  0  0  0  0  0  0  0  0  0
    8.0314   -3.4808    0.1569 O   0  0  0  0  0  0  0  0  0  0  0  0
    5.4876   -3.4973    0.0253 C   0  0  2  0  0  0  0  0  0  0  0  0
    5.7338   -4.9745   -0.3049 C   0  0  0  0  0  0  0  0  0  0  0  0
    4.7021   -5.8159    0.4220 C   0  0  0  0  0  0  0  0  0  0  0  0
    4.1192   -4.9605    1.4844 N   0  0  1  0  0  0  0  0  0  0  0  0
    3.9487   -5.7068    2.7557 C   0  0  0  0  0  0  0  0  0  0  0  0
    2.7764   -6.7061    2.7341 C   0  0  0  0  0  0  0  0  0  0  0  0
    1.9386   -7.0247    1.4942 C   0  0  0  0  0  0  0  0  0  0  0  0
    1.3368   -6.1931    2.5816 C   0  0  0  0  0  0  0  0  0  0  0  0
    4.8242   -3.6196    1.4341 C   0  0  1  0  0  0  0  0  0  0  0  0
    5.6663   -3.6394    2.4452 O   0  0  0  0  0  0  0  0  0  0  0  0
    3.8902   -2.3840    1.5208 C   0  0  2  0  0  0  0  0  0  0  0  0
    2.5026   -2.6324    0.8919 C   0  0  0  0  0  0  0  0  0  0  0  0
    2.3232   -3.6071   -0.3293 C   0  0  0  0  0  0  0  0  0  0  0  0
    3.4265    0.4644   -3.4984 H   0  0  0  0  0  0  0  0  0  0  0  0
    2.8386   -1.7398   -4.3383 H   0  0  0  0  0  0  0  0  0  0  0  0
    1.9136   -3.6742   -3.1372 H   0  0  0  0  0  0  0  0  0  0  0  0
    3.9728   -0.1946    1.4867 H   0  0  0  0  0  0  0  0  0  0  0  0
    6.1624    0.0315    2.0686 H   0  0  0  0  0  0  0  0  0  0  0  0
    7.9818   -1.1639    1.1320 H   0  0  0  0  0  0  0  0  0  0  0  0
    7.0188   -2.3407   -1.0629 H   0  0  0  0  0  0  0  0  0  0  0  0
    8.7884   -2.9613   -0.0566 H   0  0  0  0  0  0  0  0  0  0  0  0
    5.6866   -5.0927   -1.3884 H   0  0  0  0  0  0  0  0  0  0  0  0
    6.6942   -5.3414    0.0770 H   0  0  0  0  0  0  0  0  0  0  0  0
    3.9619   -6.1111   -0.3282 H   0  0  0  0  0  0  0  0  0  0  0  0
    5.1724   -6.7366    0.8020 H   0  0  0  0  0  0  0  0  0  0  0  0
    4.8542   -6.2693    3.0000 H   0  0  0  0  0  0  0  0  0  0  0  0
    3.8029   -5.0358    3.5996 H   0  0  0  0  0  0  0  0  0  0  0  0
    2.8941   -7.5162    3.4570 H   0  0  0  0  0  0  0  0  0  0  0  0
    2.1486   -6.5448    0.5405 H   0  0  0  0  0  0  0  0  0  0  0  0
    1.6012   -8.0503    1.4023 H   0  0  0  0  0  0  0  0  0  0  0  0
    0.5389   -6.6681    3.1443 H   0  0  0  0  0  0  0  0  0  0  0  0
    1.2295   -5.1201    2.4567 H   0  0  0  0  0  0  0  0  0  0  0  0
    3.6847   -2.2072    2.5782 H   0  0  0  0  0  0  0  0  0  0  0  0
    1.8328   -2.9691    1.6813 H   0  0  0  0  0  0  0  0  0  0  0  0
    2.1548   -1.6432    0.6184 H   0  0  0  0  0  0  0  0  0  0  0  0
    1.3648   -3.3777   -0.7863 H   0  0  0  0  0  0  0  0  0  0  0  0
    2.2036   -4.6384   -0.0314 H   0  0  0  0  0  0  0  0  0  0  0  0
    3.1816   -4.7548    1.1638 H   0  0  0  0  0  0  0  0  0  0  0  0
  1  2  1  0
  1 27  1  0
  2  7  2  0
  2  3  1  0
  3  4  2  0
  3 28  1  0
  4  5  1  0
  4 29  1  0
  5 26  1  0
  5  6  2  0
  6 14  1  0
  6  7  1  0
  7  8  1  0
  8  9  1  0
  9 24  1  0
  9 10  1  0
  9 30  1  1
 10 11  2  0
 10 31  1  0
 11 12  1  0
 11 32  1  0
 12 13  1  0
 12 14  1  0
 12 33  1  6
 13 34  1  0
 14 22  1  0
 14 15  1  6
 15 16  1  0
 15 35  1  0
 15 36  1  0
 16 17  1  0
 16 37  1  0
 16 38  1  0
 17 18  1  0
 17 22  1  0
 17 51  1  6
 18 19  1  0
 18 39  1  0
 18 40  1  0
 19 21  1  0
 19 20  1  0
 19 41  1  0
 20 21  1  0
 20 42  1  0
 20 43  1  0
 21 44  1  0
 21 45  1  0
 22 23  1  1
 22 24  1  0
 24 25  1  0
 24 46  1  1
 25 26  1  0
 25 47  1  0
 25 48  1  0
 26 49  1  0
 26 50  1  0
M  CHG  2  17   1  23  -1
M  END
>  <i_m_ct_stereo_status>  (106) 
1

>  <s_m_source_file>  (106) 
/var/tmp/pbs.5076255.sched01/tmp44bw07az/09l6mph0o.sdf

>  <i_m_source_file_index>  (106) 
42

>  <i_lp_mmshare_version>  (106) 
48012

>  <i_f3d_flags>  (106) 
0

>  <s_epik_input>  (106) 
W0NAQF0xMjNjNGM1W2NIXVtjSF1jKFtPSF0pYzRPW0NASF0oW0NIXT1bQ0hdW0NASF0xW09IXSlbQ0BASF0oW0NIMl1bQ0gyXTUpW0NAQF0zKFtPSF0pTihbQ0gyXVtDSDJdMilbQ0gyXVtDSF02W0NIMl1bQ0gyXTY=

>  <s_epik_cmdline>  (106) 
J2VwaWtfcHl0aG9uJywgJy1waHQnLCAnMi4wJywgJy1waCcsICc3LjAnLCAnLXRuJywgJzgnLCAnLW1hJywgJzIwMCcsICctaW1hZScsICc8aW5maWxlLm1hZT4nLCAnLW9tYWUnLCAnPG91dGZpbGUubWFlPic=

>  <r_epik_Ionization_Penalty>  (106) 
1.68734

>  <r_epik_Ionization_Penalty_Charging>  (106) 
1.68612

>  <r_epik_Ionization_Penalty_Neutral>  (106) 
0.0012184

>  <r_epik_State_Penalty>  (106) 
2.03932

>  <r_epik_Charging_Adjusted_Penalty>  (106) 
3.72544

>  <i_epik_Tot_Q>  (106) 
0

>  <i_epik_Tot_abs_Q>  (106) 
2

>  <s_lp_Force_Field>  (106) 
OPLS3e

>  <r_lp_Energy>  (106) 
145.065

>  <b_lp_Chiralities_Consistent>  (106) 
1

>  <s_lp_Variant>  (106) 
18:0-3

>  <s_i_glide_gridfile>  (106) 
pfpi4k_grid

>  <i_i_glide_lignum>  (106) 
42

>  <i_i_glide_rotatable_bonds>  (106) 
4

>  <r_i_docking_score>  (106) 
-2.80398

>  <r_i_glide_ligand_efficiency>  (106) 
-0.107845

>  <r_i_glide_ligand_efficiency_sa>  (106) 
-0.319491

>  <r_i_glide_ligand_efficiency_ln>  (106) 
-0.658504

>  <r_i_glide_gscore>  (106) 
-2.80398

>  <r_i_glide_lipo>  (106) 
-0.611297

>  <r_i_glide_hbond>  (106) 
0

>  <r_i_glide_metal>  (106) 
-0

>  <r_i_glide_rewards>  (106) 
-1.02428

>  <r_i_glide_evdw>  (106) 
-21.7198

>  <r_i_glide_ecoul>  (106) 
-2.56743

>  <r_i_glide_erotb>  (106) 
0.302709

>  <r_i_glide_esite>  (106) 
0

>  <r_i_glide_emodel>  (106) 
-19.3117

>  <r_i_glide_energy>  (106) 
-24.2873

>  <r_i_glide_einternal>  (106) 
10.2138

>  <r_i_glide_intrahb_reward>  (106) 
-0

>  <i_i_glide_confnum>  (106) 
1

>  <i_i_glide_posenum>  (106) 
39

>  <r_i_glide_eff_state_penalty>  (106) 
0

>  <ligand_id>  (106) 
18

>  <original_smiles>  (106) 
Oc1ccc2c3c1OC1C=CC(O)C34CCN(CC3CC3)C4(O)C1CC2

>  <smiles>  (106) 
[H]Oc1c([H])c([H])c2c3c1OC1([H])C([H])=C([H])C([H])(O[H])C34C([H])([H])C([H])([H])[N+]([H])(C([H])([H])C3([H])C([H])([H])C3([H])[H])C4([O-])C1([H])C([H])([H])C2([H])[H]

$$$$
19:0:0
     RDKit          3D

 98103  0  0  1  0  0  0  0  0999 V2000
    1.4204   -9.0586    8.1787 C   0  0  0  0  0  0  0  0  0  0  0  0
    1.5237   -8.7145    6.6779 C   0  0  2  0  0  0  0  0  0  0  0  0
    0.3923   -9.3875    5.8937 C   0  0  0  0  0  0  0  0  0  0  0  0
    0.2410   -8.7324    4.5254 C   0  0  0  0  0  0  0  0  0  0  0  0
    1.5577   -8.4813    3.7384 C   0  0  2  0  0  0  0  0  0  0  0  0
    2.9134   -8.4077    4.5271 C   0  0  1  0  0  0  0  0  0  0  0  0
    3.4197   -6.9575    4.2554 C   0  0  1  0  0  0  0  0  0  0  0  0
    4.9449   -6.6667    4.3450 C   0  0  0  0  0  0  0  0  0  0  0  0
    5.3517   -5.3282    3.6784 C   0  0  0  0  0  0  0  0  0  0  0  0
    4.1495   -4.3542    3.5785 C   0  0  1  0  0  0  0  0  0  0  0  0
    4.4808   -2.8135    3.4498 C   0  0  1  0  0  0  0  0  0  0  0  0
    5.1437   -2.4063    4.7976 C   0  0  0  0  0  0  0  0  0  0  0  0
    5.5180   -2.5636    2.3121 C   0  0  0  0  0  0  0  0  0  0  0  0
    5.7422   -1.0996    1.9706 C   0  0  0  0  0  0  0  0  0  0  0  0
    4.4160   -0.4638    1.5125 C   0  0  1  0  0  0  0  0  0  0  0  0
    3.8518   -1.1244    0.3773 O   0  0  0  0  0  0  0  0  0  0  0  0
    4.5165   -1.2562   -0.7861 C   0  0  0  0  0  0  0  0  0  0  0  0
    5.7048   -1.0149   -0.9909 O   0  0  0  0  0  0  0  0  0  0  0  0
    3.6276   -1.7467   -1.9183 C   0  0  0  0  0  0  0  0  0  0  0  0
    4.1952   -3.0030   -2.5890 C   0  0  0  0  0  0  0  0  0  0  0  0
    3.7470   -2.8889   -4.0345 C   0  0  0  0  0  0  0  0  0  0  0  0
    3.7870   -1.3821   -4.3340 C   0  0  0  0  0  0  0  0  0  0  0  0
    3.4921   -0.6778   -3.0168 C   0  0  0  0  0  0  0  0  0  0  0  0
    3.3677   -0.4616    2.6730 C   0  0  0  0  0  0  0  0  0  0  0  0
    3.8123    0.5504    3.7604 C   0  0  0  0  0  0  0  0  0  0  0  0
    2.0402    0.1587    2.1469 C   0  0  0  0  0  0  0  0  0  0  0  0
    3.1685   -1.9156    3.3038 C   0  0  1  0  0  0  0  0  0  0  0  0
    1.9145   -2.6465    2.7443 C   0  0  0  0  0  0  0  0  0  0  0  0
    1.7979   -4.1519    3.0298 C   0  0  0  0  0  0  0  0  0  0  0  0
    3.0431   -4.9595    2.6250 C   0  0  1  0  0  0  0  0  0  0  0  0
    3.3106   -4.6769    1.1136 C   0  0  0  0  0  0  0  0  0  0  0  0
    2.8900   -6.5544    2.8504 C   0  0  1  0  0  0  0  0  0  0  0  0
    3.6396   -7.3766    1.7441 C   0  0  0  0  0  0  0  0  0  0  0  0
    1.4513   -7.1389    2.9597 C   0  0  1  0  0  0  0  0  0  0  0  0
    0.6403   -7.2551    1.6519 C   0  0  0  0  0  0  0  0  0  0  0  0
    2.8990   -8.9951    5.9944 C   0  0  0  0  0  0  0  0  0  0  0  0
    4.0332   -8.4205    6.8685 C   0  0  0  0  0  0  0  0  0  0  0  0
    3.1828  -10.5182    5.9036 C   0  0  0  0  0  0  0  0  0  0  0  0
    1.6266  -10.1082    8.3839 H   0  0  0  0  0  0  0  0  0  0  0  0
    0.4175   -8.8530    8.5492 H   0  0  0  0  0  0  0  0  0  0  0  0
    2.0985   -8.4558    8.7810 H   0  0  0  0  0  0  0  0  0  0  0  0
    1.3514   -7.6377    6.6221 H   0  0  0  0  0  0  0  0  0  0  0  0
    0.5424  -10.4605    5.7942 H   0  0  0  0  0  0  0  0  0  0  0  0
   -0.5491   -9.2978    6.4317 H   0  0  0  0  0  0  0  0  0  0  0  0
   -0.4310   -9.3459    3.9250 H   0  0  0  0  0  0  0  0  0  0  0  0
   -0.2917   -7.7957    4.6916 H   0  0  0  0  0  0  0  0  0  0  0  0
    1.6626   -9.3028    3.0285 H   0  0  0  0  0  0  0  0  0  0  0  0
    3.6232   -9.0331    3.9831 H   0  0  0  0  0  0  0  0  0  0  0  0
    2.9187   -6.3373    4.9959 H   0  0  0  0  0  0  0  0  0  0  0  0
    5.2389   -6.6136    5.3889 H   0  0  0  0  0  0  0  0  0  0  0  0
    5.5175   -7.4855    3.9046 H   0  0  0  0  0  0  0  0  0  0  0  0
    6.1776   -4.9208    4.2555 H   0  0  0  0  0  0  0  0  0  0  0  0
    5.7704   -5.4959    2.6891 H   0  0  0  0  0  0  0  0  0  0  0  0
    3.7181   -4.3890    4.5822 H   0  0  0  0  0  0  0  0  0  0  0  0
    5.4795   -1.3783    4.8148 H   0  0  0  0  0  0  0  0  0  0  0  0
    6.0289   -2.9877    5.0292 H   0  0  0  0  0  0  0  0  0  0  0  0
    4.4649   -2.5290    5.6421 H   0  0  0  0  0  0  0  0  0  0  0  0
    6.4830   -2.9855    2.5526 H   0  0  0  0  0  0  0  0  0  0  0  0
    5.2753   -3.0864    1.3976 H   0  0  0  0  0  0  0  0  0  0  0  0
    6.1738   -0.5667    2.8132 H   0  0  0  0  0  0  0  0  0  0  0  0
    6.5241   -1.0293    1.2193 H   0  0  0  0  0  0  0  0  0  0  0  0
    4.6038    0.5641    1.2091 H   0  0  0  0  0  0  0  0  0  0  0  0
    2.6314   -1.9798   -1.5448 H   0  0  0  0  0  0  0  0  0  0  0  0
    5.2836   -3.0278   -2.5621 H   0  0  0  0  0  0  0  0  0  0  0  0
    3.8345   -3.9168   -2.1196 H   0  0  0  0  0  0  0  0  0  0  0  0
    4.3870   -3.4735   -4.7024 H   0  0  0  0  0  0  0  0  0  0  0  0
    2.7254   -3.2621   -4.1384 H   0  0  0  0  0  0  0  0  0  0  0  0
    4.7794   -1.0837   -4.6784 H   0  0  0  0  0  0  0  0  0  0  0  0
    3.0700   -1.0891   -5.1053 H   0  0  0  0  0  0  0  0  0  0  0  0
    2.4893   -0.2525   -3.0064 H   0  0  0  0  0  0  0  0  0  0  0  0
    4.1806    0.1590   -2.9015 H   0  0  0  0  0  0  0  0  0  0  0  0
    3.1923    0.4833    4.6558 H   0  0  0  0  0  0  0  0  0  0  0  0
    3.7346    1.5727    3.3932 H   0  0  0  0  0  0  0  0  0  0  0  0
    4.8427    0.4487    4.0767 H   0  0  0  0  0  0  0  0  0  0  0  0
    1.2813    0.2083    2.9303 H   0  0  0  0  0  0  0  0  0  0  0  0
    1.6104   -0.3787    1.3025 H   0  0  0  0  0  0  0  0  0  0  0  0
    2.1993    1.1746    1.7857 H   0  0  0  0  0  0  0  0  0  0  0  0
    2.8339   -1.7370    4.3278 H   0  0  0  0  0  0  0  0  0  0  0  0
    1.0268   -2.1789    3.1682 H   0  0  0  0  0  0  0  0  0  0  0  0
    1.8255   -2.4823    1.6732 H   0  0  0  0  0  0  0  0  0  0  0  0
    1.5709   -4.2930    4.0891 H   0  0  0  0  0  0  0  0  0  0  0  0
    0.9321   -4.5218    2.4908 H   0  0  0  0  0  0  0  0  0  0  0  0
    2.5306   -5.0879    0.4773 H   0  0  0  0  0  0  0  0  0  0  0  0
    4.2654   -5.0724    0.7784 H   0  0  0  0  0  0  0  0  0  0  0  0
    3.3431   -3.6270    0.8629 H   0  0  0  0  0  0  0  0  0  0  0  0
    3.2216   -7.2041    0.7537 H   0  0  0  0  0  0  0  0  0  0  0  0
    3.5788   -8.4535    1.8868 H   0  0  0  0  0  0  0  0  0  0  0  0
    4.6981   -7.1349    1.6728 H   0  0  0  0  0  0  0  0  0  0  0  0
    0.9009   -6.4648    3.6103 H   0  0  0  0  0  0  0  0  0  0  0  0
    1.0483   -8.0232    0.9949 H   0  0  0  0  0  0  0  0  0  0  0  0
    0.6236   -6.3200    1.0981 H   0  0  0  0  0  0  0  0  0  0  0  0
   -0.3926   -7.5338    1.8645 H   0  0  0  0  0  0  0  0  0  0  0  0
    5.0098   -8.5621    6.4050 H   0  0  0  0  0  0  0  0  0  0  0  0
    4.0873   -8.9327    7.8283 H   0  0  0  0  0  0  0  0  0  0  0  0
    3.8869   -7.3601    7.0746 H   0  0  0  0  0  0  0  0  0  0  0  0
    4.2121  -10.7200    5.5999 H   0  0  0  0  0  0  0  0  0  0  0  0
    2.5458  -11.0256    5.1764 H   0  0  0  0  0  0  0  0  0  0  0  0
    3.0348  -11.0167    6.8630 H   0  0  0  0  0  0  0  0  0  0  0  0
  1  2  1  0
  1 39  1  0
  1 40  1  0
  1 41  1  0
  2 36  1  0
  2  3  1  0
  2 42  1  1
  3  4  1  0
  3 43  1  0
  3 44  1  0
  4  5  1  0
  4 45  1  0
  4 46  1  0
  5 34  1  0
  5  6  1  0
  5 47  1  6
  6  7  1  0
  6 36  1  0
  6 48  1  6
  7 32  1  0
  7  8  1  0
  7 49  1  1
  8  9  1  0
  8 50  1  0
  8 51  1  0
  9 10  1  0
  9 52  1  0
  9 53  1  0
 10 30  1  0
 10 11  1  0
 10 54  1  1
 11 27  1  0
 11 12  1  1
 11 13  1  0
 12 55  1  0
 12 56  1  0
 12 57  1  0
 13 14  1  0
 13 58  1  0
 13 59  1  0
 14 15  1  0
 14 60  1  0
 14 61  1  0
 15 16  1  0
 15 24  1  0
 15 62  1  6
 16 17  1  0
 17 18  2  0
 17 19  1  0
 19 23  1  0
 19 20  1  0
 19 63  1  0
 20 21  1  0
 20 64  1  0
 20 65  1  0
 21 22  1  0
 21 66  1  0
 21 67  1  0
 22 23  1  0
 22 68  1  0
 22 69  1  0
 23 70  1  0
 23 71  1  0
 24 25  1  0
 24 26  1  0
 24 27  1  0
 25 72  1  0
 25 73  1  0
 25 74  1  0
 26 75  1  0
 26 76  1  0
 26 77  1  0
 27 28  1  0
 27 78  1  1
 28 29  1  0
 28 79  1  0
 28 80  1  0
 29 30  1  0
 29 81  1  0
 29 82  1  0
 30 31  1  6
 30 32  1  0
 31 83  1  0
 31 84  1  0
 31 85  1  0
 32 33  1  6
 32 34  1  0
 33 86  1  0
 33 87  1  0
 33 88  1  0
 34 35  1  0
 34 89  1  1
 35 90  1  0
 35 91  1  0
 35 92  1  0
 36 37  1  0
 36 38  1  0
 37 93  1  0
 37 94  1  0
 37 95  1  0
 38 96  1  0
 38 97  1  0
 38 98  1  0
M  END
>  <i_m_ct_stereo_status>  (107) 
1

>  <s_m_source_file>  (107) 
/var/tmp/pbs.5076255.sched01/tmp44bw07az/09l6mph0o.sdf

>  <i_m_source_file_index>  (107) 
43

>  <i_lp_mmshare_version>  (107) 
48012

>  <i_f3d_flags>  (107) 
0

>  <s_epik_input>  (107) 
W0NIM11DMShbQ0gzXSlbQ0BIXShbQ0gzXSlbQ0gyXVtDSDJdW0NAQEhdKFtDQEBIXTJbQ0gzXSlbQ0BIXTFbQ0BASF0oW0NIMl1bQ0gyXTMpW0NAXTIoW0NIM10pW0NAXShbQ0gzXSkoW0NAQEhdM1tDQEBdNDVbQ0gzXSlbQ0gyXVtDSDJdW0NAQEhdNUMoW0NIM10pKFtDSDNdKVtDQEBIXShbQ0gyXVtDSDJdNClPQyg9TylbQ0hdNltDSDJdW0NIMl1bQ0gyXVtDSDJdNg==

>  <s_epik_cmdline>  (107) 
J2VwaWtfcHl0aG9uJywgJy1waHQnLCAnMi4wJywgJy1waCcsICc3LjAnLCAnLXRuJywgJzgnLCAnLW1hJywgJzIwMCcsICctaW1hZScsICc8aW5maWxlLm1hZT4nLCAnLW9tYWUnLCAnPG91dGZpbGUubWFlPic=

>  <r_lp_tautomer_probability>  (107) 
1

>  <r_epik_Ionization_Penalty>  (107) 
0

>  <r_epik_Ionization_Penalty_Charging>  (107) 
0

>  <r_epik_Ionization_Penalty_Neutral>  (107) 
0

>  <r_epik_State_Penalty>  (107) 
-0

>  <r_epik_Charging_Adjusted_Penalty>  (107) 
0

>  <i_epik_Tot_Q>  (107) 
0

>  <i_epik_Tot_abs_Q>  (107) 
0

>  <s_epik_Chemistry_Notes>  (107) 
This compound has an ester and may undergo hydrolysis at high or low pH.

>  <s_lp_Force_Field>  (107) 
OPLS3e

>  <r_lp_Energy>  (107) 
133.265

>  <b_lp_Chiralities_Consistent>  (107) 
1

>  <s_lp_Variant>  (107) 
19:0-1

>  <s_i_glide_gridfile>  (107) 
pfpi4k_grid

>  <i_i_glide_lignum>  (107) 
43

>  <i_i_glide_rotatable_bonds>  (107) 
3

>  <r_i_docking_score>  (107) 
-2.56875

>  <r_i_glide_ligand_efficiency>  (107) 
-0.0675987

>  <r_i_glide_ligand_efficiency_sa>  (107) 
-0.227265

>  <r_i_glide_ligand_efficiency_ln>  (107) 
-0.553898

>  <r_i_glide_gscore>  (107) 
-2.56875

>  <r_i_glide_lipo>  (107) 
-0.441118

>  <r_i_glide_hbond>  (107) 
-0.0393622

>  <r_i_glide_metal>  (107) 
-0

>  <r_i_glide_rewards>  (107) 
0

>  <r_i_glide_evdw>  (107) 
-39.3478

>  <r_i_glide_ecoul>  (107) 
-2.02642

>  <r_i_glide_erotb>  (107) 
0.22411

>  <r_i_glide_esite>  (107) 
-0.0410297

>  <r_i_glide_emodel>  (107) 
-44.8565

>  <r_i_glide_energy>  (107) 
-41.3742

>  <r_i_glide_einternal>  (107) 
3.73782

>  <r_i_glide_intrahb_reward>  (107) 
-0

>  <i_i_glide_confnum>  (107) 
1

>  <i_i_glide_posenum>  (107) 
23

>  <r_i_glide_eff_state_penalty>  (107) 
0

>  <ligand_id>  (107) 
19

>  <original_smiles>  (107) 
CC1CCC2C(C3CCC4C5(C)CCC(OC(=O)C6CCCC6)C(C)(C)C5CCC4(C)C3(C)C2C)C1(C)C

>  <smiles>  (107) 
[H]C([H])([H])C1([H])C([H])([H])C([H])([H])C2([H])C([H])(C3([H])C([H])([H])C([H])([H])C4([H])C5(C([H])([H])[H])C([H])([H])C([H])([H])C([H])(OC(=O)C6([H])C([H])([H])C([H])([H])C([H])([H])C6([H])[H])C(C([H])([H])[H])(C([H])([H])[H])C5([H])C([H])([H])C([H])([H])C4(C([H])([H])[H])C3(C([H])([H])[H])C2([H])C([H])([H])[H])C1(C([H])([H])[H])C([H])([H])[H]

$$$$
19:0:1
     RDKit          3D

 98103  0  0  1  0  0  0  0  0999 V2000
    1.5232   -9.0570    8.2690 C   0  0  0  0  0  0  0  0  0  0  0  0
    1.6156   -8.7559    6.7581 C   0  0  2  0  0  0  0  0  0  0  0  0
    0.4759   -9.4500    6.0061 C   0  0  0  0  0  0  0  0  0  0  0  0
    0.3153   -8.8397    4.6189 C   0  0  0  0  0  0  0  0  0  0  0  0
    1.6271   -8.6205    3.8117 C   0  0  2  0  0  0  0  0  0  0  0  0
    2.9887   -8.5248    4.5877 C   0  0  1  0  0  0  0  0  0  0  0  0
    3.4966   -7.0869    4.2667 C   0  0  1  0  0  0  0  0  0  0  0  0
    5.0239   -6.7977    4.3312 C   0  0  0  0  0  0  0  0  0  0  0  0
    5.4297   -5.4817    3.6214 C   0  0  0  0  0  0  0  0  0  0  0  0
    4.2289   -4.5075    3.4992 C   0  0  1  0  0  0  0  0  0  0  0  0
    4.5637   -2.9717    3.3127 C   0  0  1  0  0  0  0  0  0  0  0  0
    5.2379   -2.5196    4.6418 C   0  0  0  0  0  0  0  0  0  0  0  0
    5.6045   -2.7580    2.1679 C   0  0  0  0  0  0  0  0  0  0  0  0
    5.8052   -1.3053    1.7335 C   0  0  0  0  0  0  0  0  0  0  0  0
    4.4634   -0.6812    1.3064 C   0  0  1  0  0  0  0  0  0  0  0  0
    3.9366   -1.4723    0.2420 O   0  0  0  0  0  0  0  0  0  0  0  0
    4.5256   -1.4769   -0.9622 C   0  0  0  0  0  0  0  0  0  0  0  0
    5.3662   -0.6660   -1.3515 O   0  0  0  0  0  0  0  0  0  0  0  0
    4.1036   -2.6782   -1.8087 C   0  0  0  0  0  0  0  0  0  0  0  0
    5.1968   -3.1306   -2.7863 C   0  0  0  0  0  0  0  0  0  0  0  0
    4.4348   -3.7555   -3.9385 C   0  0  0  0  0  0  0  0  0  0  0  0
    3.1470   -2.9308   -4.0423 C   0  0  0  0  0  0  0  0  0  0  0  0
    2.8396   -2.4150   -2.6395 C   0  0  0  0  0  0  0  0  0  0  0  0
    3.4476   -0.6375    2.4891 C   0  0  0  0  0  0  0  0  0  0  0  0
    3.9059    0.4059    3.5368 C   0  0  0  0  0  0  0  0  0  0  0  0
    2.1267   -0.0247    1.9616 C   0  0  0  0  0  0  0  0  0  0  0  0
    3.2513   -2.0747    3.1514 C   0  0  1  0  0  0  0  0  0  0  0  0
    1.9860   -2.8196    2.6293 C   0  0  0  0  0  0  0  0  0  0  0  0
    1.8625   -4.3142    2.9700 C   0  0  0  0  0  0  0  0  0  0  0  0
    3.1063   -5.1454    2.5844 C   0  0  1  0  0  0  0  0  0  0  0  0
    3.3647   -4.9121    1.0712 C   0  0  0  0  0  0  0  0  0  0  0  0
    2.9551   -6.7294    2.8564 C   0  0  1  0  0  0  0  0  0  0  0  0
    3.6973   -7.5908    1.7706 C   0  0  0  0  0  0  0  0  0  0  0  0
    1.5164   -7.3031    2.9913 C   0  0  1  0  0  0  0  0  0  0  0  0
    0.6978   -7.4583    1.6927 C   0  0  0  0  0  0  0  0  0  0  0  0
    2.9868   -9.0615    6.0733 C   0  0  0  0  0  0  0  0  0  0  0  0
    4.1277   -8.4609    6.9213 C   0  0  0  0  0  0  0  0  0  0  0  0
    3.2665  -10.5867    6.0332 C   0  0  0  0  0  0  0  0  0  0  0  0
    1.7259  -10.0997    8.5041 H   0  0  0  0  0  0  0  0  0  0  0  0
    0.5243   -8.8314    8.6400 H   0  0  0  0  0  0  0  0  0  0  0  0
    2.2068   -8.4357    8.8455 H   0  0  0  0  0  0  0  0  0  0  0  0
    1.4470   -7.6808    6.6683 H   0  0  0  0  0  0  0  0  0  0  0  0
    0.6209  -10.5256    5.9442 H   0  0  0  0  0  0  0  0  0  0  0  0
   -0.4617   -9.3348    6.5474 H   0  0  0  0  0  0  0  0  0  0  0  0
   -0.3636   -9.4679    4.0425 H   0  0  0  0  0  0  0  0  0  0  0  0
   -0.2132   -7.8972    4.7586 H   0  0  0  0  0  0  0  0  0  0  0  0
    1.7236   -9.4639    3.1260 H   0  0  0  0  0  0  0  0  0  0  0  0
    3.6908   -9.1716    4.0592 H   0  0  0  0  0  0  0  0  0  0  0  0
    3.0030   -6.4394    4.9911 H   0  0  0  0  0  0  0  0  0  0  0  0
    5.3280   -6.7083    5.3698 H   0  0  0  0  0  0  0  0  0  0  0  0
    5.5945   -7.6307    3.9149 H   0  0  0  0  0  0  0  0  0  0  0  0
    6.2601   -5.0559    4.1792 H   0  0  0  0  0  0  0  0  0  0  0  0
    5.8393   -5.6826    2.6345 H   0  0  0  0  0  0  0  0  0  0  0  0
    3.8074   -4.5040    4.5058 H   0  0  0  0  0  0  0  0  0  0  0  0
    5.5749   -1.4924    4.6190 H   0  0  0  0  0  0  0  0  0  0  0  0
    6.1229   -3.0951    4.8859 H   0  0  0  0  0  0  0  0  0  0  0  0
    4.5645   -2.6158    5.4928 H   0  0  0  0  0  0  0  0  0  0  0  0
    6.5736   -3.1478    2.4789 H   0  0  0  0  0  0  0  0  0  0  0  0
    5.3782   -3.3413    1.2842 H   0  0  0  0  0  0  0  0  0  0  0  0
    6.2927   -0.7240    2.5126 H   0  0  0  0  0  0  0  0  0  0  0  0
    6.5185   -1.2834    0.9109 H   0  0  0  0  0  0  0  0  0  0  0  0
    4.6263    0.3336    0.9394 H   0  0  0  0  0  0  0  0  0  0  0  0
    3.8844   -3.5251   -1.1640 H   0  0  0  0  0  0  0  0  0  0  0  0
    5.7958   -2.3005   -3.1655 H   0  0  0  0  0  0  0  0  0  0  0  0
    5.8780   -3.8402   -2.3171 H   0  0  0  0  0  0  0  0  0  0  0  0
    5.0178   -3.7731   -4.8579 H   0  0  0  0  0  0  0  0  0  0  0  0
    4.2177   -4.7966   -3.7224 H   0  0  0  0  0  0  0  0  0  0  0  0
    3.3223   -2.0725   -4.6955 H   0  0  0  0  0  0  0  0  0  0  0  0
    2.3188   -3.5064   -4.4603 H   0  0  0  0  0  0  0  0  0  0  0  0
    1.9926   -2.9499   -2.2073 H   0  0  0  0  0  0  0  0  0  0  0  0
    2.5539   -1.3613   -2.6901 H   0  0  0  0  0  0  0  0  0  0  0  0
    3.3012    0.3513    4.4441 H   0  0  0  0  0  0  0  0  0  0  0  0
    3.8009    1.4160    3.1435 H   0  0  0  0  0  0  0  0  0  0  0  0
    4.9485    0.3183    3.8203 H   0  0  0  0  0  0  0  0  0  0  0  0
    1.3668    0.0507    2.7409 H   0  0  0  0  0  0  0  0  0  0  0  0
    1.7138   -0.6066    1.1478 H   0  0  0  0  0  0  0  0  0  0  0  0
    2.2795    0.9727    1.5475 H   0  0  0  0  0  0  0  0  0  0  0  0
    2.9307   -1.8639    4.1721 H   0  0  0  0  0  0  0  0  0  0  0  0
    1.1092   -2.3313    3.0504 H   0  0  0  0  0  0  0  0  0  0  0  0
    1.8714   -2.6870    1.5567 H   0  0  0  0  0  0  0  0  0  0  0  0
    1.6451   -4.4206    4.0348 H   0  0  0  0  0  0  0  0  0  0  0  0
    0.9870   -4.6982    2.4601 H   0  0  0  0  0  0  0  0  0  0  0  0
    2.5784   -5.3302    0.4447 H   0  0  0  0  0  0  0  0  0  0  0  0
    4.3194   -5.3102    0.7367 H   0  0  0  0  0  0  0  0  0  0  0  0
    3.3999   -3.8658    0.8232 H   0  0  0  0  0  0  0  0  0  0  0  0
    3.2729   -7.4507    0.7799 H   0  0  0  0  0  0  0  0  0  0  0  0
    3.6361   -8.6625    1.9464 H   0  0  0  0  0  0  0  0  0  0  0  0
    4.7552   -7.3532    1.6813 H   0  0  0  0  0  0  0  0  0  0  0  0
    0.9714   -6.6069    3.6221 H   0  0  0  0  0  0  0  0  0  0  0  0
    1.0991   -8.2517    1.0609 H   0  0  0  0  0  0  0  0  0  0  0  0
    0.6779   -6.5433    1.1051 H   0  0  0  0  0  0  0  0  0  0  0  0
   -0.3353   -7.7266    1.9193 H   0  0  0  0  0  0  0  0  0  0  0  0
    5.1015   -8.6210    6.4577 H   0  0  0  0  0  0  0  0  0  0  0  0
    4.1870   -8.9412    7.8976 H   0  0  0  0  0  0  0  0  0  0  0  0
    3.9853   -7.3945    7.0944 H   0  0  0  0  0  0  0  0  0  0  0  0
    4.2924  -10.8049    5.7292 H   0  0  0  0  0  0  0  0  0  0  0  0
    2.6188  -11.1179    5.3331 H   0  0  0  0  0  0  0  0  0  0  0  0
    3.1264  -11.0442    7.0124 H   0  0  0  0  0  0  0  0  0  0  0  0
  1  2  1  0
  1 39  1  0
  1 40  1  0
  1 41  1  0
  2 36  1  0
  2  3  1  0
  2 42  1  1
  3  4  1  0
  3 43  1  0
  3 44  1  0
  4  5  1  0
  4 45  1  0
  4 46  1  0
  5 34  1  0
  5  6  1  0
  5 47  1  6
  6  7  1  0
  6 36  1  0
  6 48  1  6
  7 32  1  0
  7  8  1  0
  7 49  1  1
  8  9  1  0
  8 50  1  0
  8 51  1  0
  9 10  1  0
  9 52  1  0
  9 53  1  0
 10 30  1  0
 10 11  1  0
 10 54  1  1
 11 27  1  0
 11 12  1  1
 11 13  1  0
 12 55  1  0
 12 56  1  0
 12 57  1  0
 13 14  1  0
 13 58  1  0
 13 59  1  0
 14 15  1  0
 14 60  1  0
 14 61  1  0
 15 16  1  0
 15 24  1  0
 15 62  1  6
 16 17  1  0
 17 18  2  0
 17 19  1  0
 19 23  1  0
 19 20  1  0
 19 63  1  0
 20 21  1  0
 20 64  1  0
 20 65  1  0
 21 22  1  0
 21 66  1  0
 21 67  1  0
 22 23  1  0
 22 68  1  0
 22 69  1  0
 23 70  1  0
 23 71  1  0
 24 25  1  0
 24 26  1  0
 24 27  1  0
 25 72  1  0
 25 73  1  0
 25 74  1  0
 26 75  1  0
 26 76  1  0
 26 77  1  0
 27 28  1  0
 27 78  1  1
 28 29  1  0
 28 79  1  0
 28 80  1  0
 29 30  1  0
 29 81  1  0
 29 82  1  0
 30 31  1  6
 30 32  1  0
 31 83  1  0
 31 84  1  0
 31 85  1  0
 32 33  1  6
 32 34  1  0
 33 86  1  0
 33 87  1  0
 33 88  1  0
 34 35  1  0
 34 89  1  1
 35 90  1  0
 35 91  1  0
 35 92  1  0
 36 37  1  0
 36 38  1  0
 37 93  1  0
 37 94  1  0
 37 95  1  0
 38 96  1  0
 38 97  1  0
 38 98  1  0
M  END
>  <i_m_ct_stereo_status>  (108) 
1

>  <s_m_source_file>  (108) 
/var/tmp/pbs.5076255.sched01/tmp44bw07az/09l6mph0o.sdf

>  <i_m_source_file_index>  (108) 
43

>  <i_lp_mmshare_version>  (108) 
48012

>  <i_f3d_flags>  (108) 
0

>  <s_epik_input>  (108) 
W0NIM11DMShbQ0gzXSlbQ0BIXShbQ0gzXSlbQ0gyXVtDSDJdW0NAQEhdKFtDQEBIXTJbQ0gzXSlbQ0BIXTFbQ0BASF0oW0NIMl1bQ0gyXTMpW0NAXTIoW0NIM10pW0NAXShbQ0gzXSkoW0NAQEhdM1tDQEBdNDVbQ0gzXSlbQ0gyXVtDSDJdW0NAQEhdNUMoW0NIM10pKFtDSDNdKVtDQEBIXShbQ0gyXVtDSDJdNClPQyg9TylbQ0hdNltDSDJdW0NIMl1bQ0gyXVtDSDJdNg==

>  <s_epik_cmdline>  (108) 
J2VwaWtfcHl0aG9uJywgJy1waHQnLCAnMi4wJywgJy1waCcsICc3LjAnLCAnLXRuJywgJzgnLCAnLW1hJywgJzIwMCcsICctaW1hZScsICc8aW5maWxlLm1hZT4nLCAnLW9tYWUnLCAnPG91dGZpbGUubWFlPic=

>  <r_lp_tautomer_probability>  (108) 
1

>  <r_epik_Ionization_Penalty>  (108) 
0

>  <r_epik_Ionization_Penalty_Charging>  (108) 
0

>  <r_epik_Ionization_Penalty_Neutral>  (108) 
0

>  <r_epik_State_Penalty>  (108) 
-0

>  <r_epik_Charging_Adjusted_Penalty>  (108) 
0

>  <i_epik_Tot_Q>  (108) 
0

>  <i_epik_Tot_abs_Q>  (108) 
0

>  <s_epik_Chemistry_Notes>  (108) 
This compound has an ester and may undergo hydrolysis at high or low pH.

>  <s_lp_Force_Field>  (108) 
OPLS3e

>  <r_lp_Energy>  (108) 
133.265

>  <b_lp_Chiralities_Consistent>  (108) 
1

>  <s_lp_Variant>  (108) 
19:0-1

>  <s_i_glide_gridfile>  (108) 
pfpi4k_grid

>  <i_i_glide_lignum>  (108) 
43

>  <i_i_glide_rotatable_bonds>  (108) 
3

>  <r_i_docking_score>  (108) 
-2.40452

>  <r_i_glide_ligand_efficiency>  (108) 
-0.0632767

>  <r_i_glide_ligand_efficiency_sa>  (108) 
-0.212735

>  <r_i_glide_ligand_efficiency_ln>  (108) 
-0.518484

>  <r_i_glide_gscore>  (108) 
-2.40452

>  <r_i_glide_lipo>  (108) 
-0.633416

>  <r_i_glide_hbond>  (108) 
-0.00320138

>  <r_i_glide_metal>  (108) 
-0

>  <r_i_glide_rewards>  (108) 
0

>  <r_i_glide_evdw>  (108) 
-36.4897

>  <r_i_glide_ecoul>  (108) 
-0.849437

>  <r_i_glide_erotb>  (108) 
0.22411

>  <r_i_glide_esite>  (108) 
-0.0401069

>  <r_i_glide_emodel>  (108) 
-41.0246

>  <r_i_glide_energy>  (108) 
-37.3391

>  <r_i_glide_einternal>  (108) 
4.10532

>  <r_i_glide_intrahb_reward>  (108) 
-0

>  <i_i_glide_confnum>  (108) 
1

>  <i_i_glide_posenum>  (108) 
20

>  <r_i_glide_eff_state_penalty>  (108) 
0

>  <ligand_id>  (108) 
19

>  <original_smiles>  (108) 
CC1CCC2C(C3CCC4C5(C)CCC(OC(=O)C6CCCC6)C(C)(C)C5CCC4(C)C3(C)C2C)C1(C)C

>  <smiles>  (108) 
[H]C([H])([H])C1([H])C([H])([H])C([H])([H])C2([H])C([H])(C3([H])C([H])([H])C([H])([H])C4([H])C5(C([H])([H])[H])C([H])([H])C([H])([H])C([H])(OC(=O)C6([H])C([H])([H])C([H])([H])C([H])([H])C6([H])[H])C(C([H])([H])[H])(C([H])([H])[H])C5([H])C([H])([H])C([H])([H])C4(C([H])([H])[H])C3(C([H])([H])[H])C2([H])C([H])([H])[H])C1(C([H])([H])[H])C([H])([H])[H]

$$$$
19:0:2
     RDKit          3D

 98103  0  0  1  0  0  0  0  0999 V2000
    6.0928  -11.4273    5.6788 C   0  0  0  0  0  0  0  0  0  0  0  0
    4.9759  -10.3716    5.5712 C   0  0  2  0  0  0  0  0  0  0  0  0
    4.2171  -10.2507    6.8916 C   0  0  0  0  0  0  0  0  0  0  0  0
    3.4130   -8.9554    6.9159 C   0  0  0  0  0  0  0  0  0  0  0  0
    2.5909   -8.6343    5.6337 C   0  0  2  0  0  0  0  0  0  0  0  0
    3.0175   -9.2925    4.2771 C   0  0  1  0  0  0  0  0  0  0  0  0
    3.3919   -8.0722    3.3761 C   0  0  1  0  0  0  0  0  0  0  0  0
    3.2925   -8.2276    1.8334 C   0  0  0  0  0  0  0  0  0  0  0  0
    3.3113   -6.8670    1.0923 C   0  0  0  0  0  0  0  0  0  0  0  0
    3.9487   -5.7429    1.9459 C   0  0  1  0  0  0  0  0  0  0  0  0
    4.5169   -4.4918    1.1654 C   0  0  1  0  0  0  0  0  0  0  0  0
    5.7123   -5.0225    0.3165 C   0  0  0  0  0  0  0  0  0  0  0  0
    3.4682   -3.9316    0.1523 C   0  0  0  0  0  0  0  0  0  0  0  0
    3.7992   -2.5567   -0.4315 C   0  0  0  0  0  0  0  0  0  0  0  0
    4.0593   -1.5262    0.6665 C   0  0  1  0  0  0  0  0  0  0  0  0
    2.8415   -1.3781    1.3907 O   0  0  0  0  0  0  0  0  0  0  0  0
    2.4075   -0.1565    1.7490 C   0  0  0  0  0  0  0  0  0  0  0  0
    3.0283    0.8945    1.6158 O   0  0  0  0  0  0  0  0  0  0  0  0
    1.0583   -0.1935    2.4687 C   0  0  0  0  0  0  0  0  0  0  0  0
    0.2127    1.0689    2.2092 C   0  0  0  0  0  0  0  0  0  0  0  0
   -0.6505    1.2321    3.4530 C   0  0  0  0  0  0  0  0  0  0  0  0
    0.2411    0.7492    4.6006 C   0  0  0  0  0  0  0  0  0  0  0  0
    1.1827   -0.3095    4.0036 C   0  0  0  0  0  0  0  0  0  0  0  0
    5.2574   -1.9257    1.5794 C   0  0  0  0  0  0  0  0  0  0  0  0
    6.5603   -1.7585    0.7524 C   0  0  0  0  0  0  0  0  0  0  0  0
    5.4156   -0.8523    2.6893 C   0  0  0  0  0  0  0  0  0  0  0  0
    5.1110   -3.3995    2.1579 C   0  0  1  0  0  0  0  0  0  0  0  0
    4.5322   -3.4064    3.6070 C   0  0  0  0  0  0  0  0  0  0  0  0
    4.0625   -4.7542    4.1703 C   0  0  0  0  0  0  0  0  0  0  0  0
    3.0745   -5.4913    3.2443 C   0  0  1  0  0  0  0  0  0  0  0  0
    1.8822   -4.5269    2.9849 C   0  0  0  0  0  0  0  0  0  0  0  0
    2.5113   -6.8826    3.8426 C   0  0  1  0  0  0  0  0  0  0  0  0
    1.0107   -7.1391    3.4451 C   0  0  0  0  0  0  0  0  0  0  0  0
    2.6130   -7.0990    5.3800 C   0  0  1  0  0  0  0  0  0  0  0  0
    1.6172   -6.3199    6.2655 C   0  0  0  0  0  0  0  0  0  0  0  0
    3.9766  -10.5460    4.3880 C   0  0  0  0  0  0  0  0  0  0  0  0
    4.7622  -10.7893    3.0857 C   0  0  0  0  0  0  0  0  0  0  0  0
    3.0986  -11.8122    4.5788 C   0  0  0  0  0  0  0  0  0  0  0  0
    5.7112  -12.4391    5.7890 H   0  0  0  0  0  0  0  0  0  0  0  0
    6.7220  -11.2233    6.5455 H   0  0  0  0  0  0  0  0  0  0  0  0
    6.7572  -11.4027    4.8156 H   0  0  0  0  0  0  0  0  0  0  0  0
    5.4903   -9.4246    5.4085 H   0  0  0  0  0  0  0  0  0  0  0  0
    3.5710  -11.1066    7.0775 H   0  0  0  0  0  0  0  0  0  0  0  0
    4.9162  -10.2448    7.7256 H   0  0  0  0  0  0  0  0  0  0  0  0
    2.7426   -8.9834    7.7725 H   0  0  0  0  0  0  0  0  0  0  0  0
    4.1225   -8.1553    7.1328 H   0  0  0  0  0  0  0  0  0  0  0  0
    1.5658   -8.9555    5.8264 H   0  0  0  0  0  0  0  0  0  0  0  0
    2.1016   -9.6836    3.8236 H   0  0  0  0  0  0  0  0  0  0  0  0
    4.4302   -7.8485    3.6244 H   0  0  0  0  0  0  0  0  0  0  0  0
    4.1380   -8.8024    1.4734 H   0  0  0  0  0  0  0  0  0  0  0  0
    2.3995   -8.7966    1.5540 H   0  0  0  0  0  0  0  0  0  0  0  0
    3.8262   -7.0236    0.1456 H   0  0  0  0  0  0  0  0  0  0  0  0
    2.3049   -6.5808    0.8062 H   0  0  0  0  0  0  0  0  0  0  0  0
    4.8683   -6.2035    2.3051 H   0  0  0  0  0  0  0  0  0  0  0  0
    6.1606   -4.2676   -0.3158 H   0  0  0  0  0  0  0  0  0  0  0  0
    5.4319   -5.8135   -0.3717 H   0  0  0  0  0  0  0  0  0  0  0  0
    6.5086   -5.4249    0.9453 H   0  0  0  0  0  0  0  0  0  0  0  0
    3.3632   -4.6261   -0.6800 H   0  0  0  0  0  0  0  0  0  0  0  0
    2.4727   -3.8782    0.5744 H   0  0  0  0  0  0  0  0  0  0  0  0
    4.6407   -2.6308   -1.1231 H   0  0  0  0  0  0  0  0  0  0  0  0
    2.9619   -2.2221   -1.0451 H   0  0  0  0  0  0  0  0  0  0  0  0
    4.3096   -0.5907    0.1590 H   0  0  0  0  0  0  0  0  0  0  0  0
    0.5072   -1.0611    2.1191 H   0  0  0  0  0  0  0  0  0  0  0  0
    0.8156    1.9678    2.1000 H   0  0  0  0  0  0  0  0  0  0  0  0
   -0.3849    0.9762    1.2993 H   0  0  0  0  0  0  0  0  0  0  0  0
   -0.9802    2.2668    3.5836 H   0  0  0  0  0  0  0  0  0  0  0  0
   -1.5379    0.6038    3.3750 H   0  0  0  0  0  0  0  0  0  0  0  0
    0.8388    1.5830    4.9734 H   0  0  0  0  0  0  0  0  0  0  0  0
   -0.3435    0.3629    5.4375 H   0  0  0  0  0  0  0  0  0  0  0  0
    0.9005   -1.3143    4.3242 H   0  0  0  0  0  0  0  0  0  0  0  0
    2.1958   -0.1396    4.3689 H   0  0  0  0  0  0  0  0  0  0  0  0
    7.4268   -2.1590    1.2796 H   0  0  0  0  0  0  0  0  0  0  0  0
    6.7732   -0.7071    0.5480 H   0  0  0  0  0  0  0  0  0  0  0  0
    6.5435   -2.2397   -0.2174 H   0  0  0  0  0  0  0  0  0  0  0  0
    6.2592   -1.0527    3.3392 H   0  0  0  0  0  0  0  0  0  0  0  0
    4.5540   -0.7564    3.3451 H   0  0  0  0  0  0  0  0  0  0  0  0
    5.5717    0.1353    2.2577 H   0  0  0  0  0  0  0  0  0  0  0  0
    6.1345   -3.7216    2.3574 H   0  0  0  0  0  0  0  0  0  0  0  0
    5.3113   -3.0539    4.2794 H   0  0  0  0  0  0  0  0  0  0  0  0
    3.7274   -2.6827    3.7152 H   0  0  0  0  0  0  0  0  0  0  0  0
    4.9358   -5.3791    4.3658 H   0  0  0  0  0  0  0  0  0  0  0  0
    3.6120   -4.5628    5.1417 H   0  0  0  0  0  0  0  0  0  0  0  0
    1.3020   -4.3451    3.8893 H   0  0  0  0  0  0  0  0  0  0  0  0
    1.2117   -4.9013    2.2176 H   0  0  0  0  0  0  0  0  0  0  0  0
    2.1706   -3.5424    2.6383 H   0  0  0  0  0  0  0  0  0  0  0  0
    0.3398   -6.3870    3.8582 H   0  0  0  0  0  0  0  0  0  0  0  0
    0.6252   -8.0859    3.8148 H   0  0  0  0  0  0  0  0  0  0  0  0
    0.8506   -7.1440    2.3702 H   0  0  0  0  0  0  0  0  0  0  0  0
    3.6087   -6.7599    5.6660 H   0  0  0  0  0  0  0  0  0  0  0  0
    0.5971   -6.6914    6.1530 H   0  0  0  0  0  0  0  0  0  0  0  0
    1.6147   -5.2554    6.0380 H   0  0  0  0  0  0  0  0  0  0  0  0
    1.8831   -6.4243    7.3190 H   0  0  0  0  0  0  0  0  0  0  0  0
    4.0930  -10.8715    2.2257 H   0  0  0  0  0  0  0  0  0  0  0  0
    5.3085  -11.7320    3.1158 H   0  0  0  0  0  0  0  0  0  0  0  0
    5.4886  -10.0009    2.8908 H   0  0  0  0  0  0  0  0  0  0  0  0
    2.5296  -12.0547    3.6749 H   0  0  0  0  0  0  0  0  0  0  0  0
    2.3601  -11.6995    5.3757 H   0  0  0  0  0  0  0  0  0  0  0  0
    3.6915  -12.6968    4.8134 H   0  0  0  0  0  0  0  0  0  0  0  0
  1  2  1  0
  1 39  1  0
  1 40  1  0
  1 41  1  0
  2 36  1  0
  2  3  1  0
  2 42  1  6
  3  4  1  0
  3 43  1  0
  3 44  1  0
  4  5  1  0
  4 45  1  0
  4 46  1  0
  5 34  1  0
  5  6  1  0
  5 47  1  1
  6  7  1  0
  6 36  1  0
  6 48  1  6
  7 32  1  0
  7  8  1  0
  7 49  1  6
  8  9  1  0
  8 50  1  0
  8 51  1  0
  9 10  1  0
  9 52  1  0
  9 53  1  0
 10 30  1  0
 10 11  1  0
 10 54  1  1
 11 27  1  0
 11 12  1  6
 11 13  1  0
 12 55  1  0
 12 56  1  0
 12 57  1  0
 13 14  1  0
 13 58  1  0
 13 59  1  0
 14 15  1  0
 14 60  1  0
 14 61  1  0
 15 16  1  0
 15 24  1  0
 15 62  1  6
 16 17  1  0
 17 18  2  0
 17 19  1  0
 19 23  1  0
 19 20  1  0
 19 63  1  0
 20 21  1  0
 20 64  1  0
 20 65  1  0
 21 22  1  0
 21 66  1  0
 21 67  1  0
 22 23  1  0
 22 68  1  0
 22 69  1  0
 23 70  1  0
 23 71  1  0
 24 25  1  0
 24 26  1  0
 24 27  1  0
 25 72  1  0
 25 73  1  0
 25 74  1  0
 26 75  1  0
 26 76  1  0
 26 77  1  0
 27 28  1  0
 27 78  1  1
 28 29  1  0
 28 79  1  0
 28 80  1  0
 29 30  1  0
 29 81  1  0
 29 82  1  0
 30 31  1  6
 30 32  1  0
 31 83  1  0
 31 84  1  0
 31 85  1  0
 32 33  1  6
 32 34  1  0
 33 86  1  0
 33 87  1  0
 33 88  1  0
 34 35  1  0
 34 89  1  1
 35 90  1  0
 35 91  1  0
 35 92  1  0
 36 37  1  0
 36 38  1  0
 37 93  1  0
 37 94  1  0
 37 95  1  0
 38 96  1  0
 38 97  1  0
 38 98  1  0
M  END
>  <i_m_ct_stereo_status>  (109) 
1

>  <s_m_source_file>  (109) 
/var/tmp/pbs.5076255.sched01/tmp44bw07az/09l6mph0o.sdf

>  <i_m_source_file_index>  (109) 
43

>  <i_lp_mmshare_version>  (109) 
48012

>  <i_f3d_flags>  (109) 
0

>  <s_epik_input>  (109) 
W0NIM11DMShbQ0gzXSlbQ0BIXShbQ0gzXSlbQ0gyXVtDSDJdW0NAQEhdKFtDQEBIXTJbQ0gzXSlbQ0BIXTFbQ0BASF0oW0NIMl1bQ0gyXTMpW0NAXTIoW0NIM10pW0NAXShbQ0gzXSkoW0NAQEhdM1tDQEBdNDVbQ0gzXSlbQ0gyXVtDSDJdW0NAQEhdNUMoW0NIM10pKFtDSDNdKVtDQEBIXShbQ0gyXVtDSDJdNClPQyg9TylbQ0hdNltDSDJdW0NIMl1bQ0gyXVtDSDJdNg==

>  <s_epik_cmdline>  (109) 
J2VwaWtfcHl0aG9uJywgJy1waHQnLCAnMi4wJywgJy1waCcsICc3LjAnLCAnLXRuJywgJzgnLCAnLW1hJywgJzIwMCcsICctaW1hZScsICc8aW5maWxlLm1hZT4nLCAnLW9tYWUnLCAnPG91dGZpbGUubWFlPic=

>  <r_lp_tautomer_probability>  (109) 
1

>  <r_epik_Ionization_Penalty>  (109) 
0

>  <r_epik_Ionization_Penalty_Charging>  (109) 
0

>  <r_epik_Ionization_Penalty_Neutral>  (109) 
0

>  <r_epik_State_Penalty>  (109) 
-0

>  <r_epik_Charging_Adjusted_Penalty>  (109) 
0

>  <i_epik_Tot_Q>  (109) 
0

>  <i_epik_Tot_abs_Q>  (109) 
0

>  <s_epik_Chemistry_Notes>  (109) 
This compound has an ester and may undergo hydrolysis at high or low pH.

>  <s_lp_Force_Field>  (109) 
OPLS3e

>  <r_lp_Energy>  (109) 
133.265

>  <b_lp_Chiralities_Consistent>  (109) 
1

>  <s_lp_Variant>  (109) 
19:0-1

>  <s_i_glide_gridfile>  (109) 
pfpi4k_grid

>  <i_i_glide_lignum>  (109) 
43

>  <i_i_glide_rotatable_bonds>  (109) 
3

>  <r_i_docking_score>  (109) 
-2.1363

>  <r_i_glide_ligand_efficiency>  (109) 
-0.0562185

>  <r_i_glide_ligand_efficiency_sa>  (109) 
-0.189005

>  <r_i_glide_ligand_efficiency_ln>  (109) 
-0.46065

>  <r_i_glide_gscore>  (109) 
-2.1363

>  <r_i_glide_lipo>  (109) 
-0.494295

>  <r_i_glide_hbond>  (109) 
0

>  <r_i_glide_metal>  (109) 
-0

>  <r_i_glide_rewards>  (109) 
0

>  <r_i_glide_evdw>  (109) 
-34.6945

>  <r_i_glide_ecoul>  (109) 
-0.539512

>  <r_i_glide_erotb>  (109) 
0.22411

>  <r_i_glide_esite>  (109) 
-0.050466

>  <r_i_glide_emodel>  (109) 
-39.228

>  <r_i_glide_energy>  (109) 
-35.234

>  <r_i_glide_einternal>  (109) 
1.42822

>  <r_i_glide_intrahb_reward>  (109) 
-0

>  <i_i_glide_confnum>  (109) 
1

>  <i_i_glide_posenum>  (109) 
3

>  <r_i_glide_eff_state_penalty>  (109) 
0

>  <ligand_id>  (109) 
19

>  <original_smiles>  (109) 
CC1CCC2C(C3CCC4C5(C)CCC(OC(=O)C6CCCC6)C(C)(C)C5CCC4(C)C3(C)C2C)C1(C)C

>  <smiles>  (109) 
[H]C([H])([H])C1([H])C([H])([H])C([H])([H])C2([H])C([H])(C3([H])C([H])([H])C([H])([H])C4([H])C5(C([H])([H])[H])C([H])([H])C([H])([H])C([H])(OC(=O)C6([H])C([H])([H])C([H])([H])C([H])([H])C6([H])[H])C(C([H])([H])[H])(C([H])([H])[H])C5([H])C([H])([H])C([H])([H])C4(C([H])([H])[H])C3(C([H])([H])[H])C2([H])C([H])([H])[H])C1(C([H])([H])[H])C([H])([H])[H]

$$$$
20:0:0
     RDKit          3D

 66 72  0  0  1  0  0  0  0  0999 V2000
    7.8213   -3.9678    0.8623 C   0  0  0  0  0  0  0  0  0  0  0  0
    6.3515   -4.0251    1.3377 C   0  0  2  0  0  0  0  0  0  0  0  0
    5.6925   -5.3396    0.8736 C   0  0  0  0  0  0  0  0  0  0  0  0
    4.6113   -5.1602   -0.1920 C   0  0  0  0  0  0  0  0  0  0  0  0
    3.4803   -4.2414    0.3053 C   0  0  1  0  0  0  0  0  0  0  0  0
    2.5353   -4.8824    1.4106 C   0  0  1  0  0  0  0  0  0  0  0  0
    2.2908   -6.3950    1.2950 C   0  0  0  0  0  0  0  0  0  0  0  0
    2.6914   -4.3708    2.8980 C   0  0  2  0  0  0  0  0  0  0  0  0
    4.0242   -4.1606    3.1836 O   0  0  0  0  0  0  0  0  0  0  0  0
    4.2891   -3.2725    4.2285 C   0  0  2  0  0  0  0  0  0  0  0  0
    5.4126   -2.5245    3.8309 O   0  0  0  0  0  0  0  0  0  0  0  0
    5.1379   -1.4005    3.1215 C   0  0  0  0  0  0  0  0  0  0  0  0
    4.4898   -0.4541    3.5709 O   0  0  0  0  0  0  0  0  0  0  0  0
    5.6921   -1.3926    1.6623 C   0  0  2  0  0  0  0  0  0  0  0  0
    4.8022   -0.5111    0.7227 C   0  0  0  0  0  0  0  0  0  0  0  0
    3.7085   -1.4527    0.2450 C   0  0  2  0  0  0  0  0  0  0  0  0
    3.0204   -2.0511    1.3031 O   0  0  0  0  0  0  0  0  0  0  0  0
    4.0396   -2.8690    0.6669 C   0  0  1  0  0  0  0  0  0  0  0  0
    5.5441   -2.7526    0.9295 C   0  0  2  0  0  0  0  0  0  0  0  0
    4.5721   -4.1337    5.5354 C   0  0  2  0  0  0  0  0  0  0  0  0
    5.7153   -3.4451    6.3302 C   0  0  0  0  0  0  0  0  0  0  0  0
    5.1452   -5.5385    5.0664 C   0  0  0  0  0  0  0  0  0  0  0  0
    4.1016   -6.5506    4.4775 C   0  0  0  0  0  0  0  0  0  0  0  0
    2.6888   -6.0699    4.7520 C   0  0  1  0  0  0  0  0  0  0  0  0
    1.5711   -6.4543    5.6909 C   0  0  0  0  0  0  0  0  0  0  0  0
    2.7468   -5.7364    6.2481 C   0  0  2  0  0  0  0  0  0  0  0  0
    3.2387   -4.3091    6.4427 C   0  0  0  0  0  0  0  0  0  0  0  0
    3.5361   -4.2050    7.9642 C   0  0  0  0  0  0  0  0  0  0  0  0
    2.1036   -3.2764    6.2197 C   0  0  0  0  0  0  0  0  0  0  0  0
    2.0188   -5.2031    3.8104 O   0  0  0  0  0  0  0  0  0  0  0  0
    7.9046   -3.9822   -0.2257 H   0  0  0  0  0  0  0  0  0  0  0  0
    8.3837   -4.8235    1.2441 H   0  0  0  0  0  0  0  0  0  0  0  0
    8.3267   -3.0736    1.2207 H   0  0  0  0  0  0  0  0  0  0  0  0
    6.4208   -4.1016    2.4164 H   0  0  0  0  0  0  0  0  0  0  0  0
    6.4377   -6.0469    0.5147 H   0  0  0  0  0  0  0  0  0  0  0  0
    5.2500   -5.8196    1.7367 H   0  0  0  0  0  0  0  0  0  0  0  0
    5.0568   -4.7389   -1.0920 H   0  0  0  0  0  0  0  0  0  0  0  0
    4.2248   -6.1286   -0.5031 H   0  0  0  0  0  0  0  0  0  0  0  0
    2.8469   -4.0808   -0.5667 H   0  0  0  0  0  0  0  0  0  0  0  0
    1.5616   -4.4917    1.1621 H   0  0  0  0  0  0  0  0  0  0  0  0
    3.1771   -6.9809    1.5233 H   0  0  0  0  0  0  0  0  0  0  0  0
    1.9796   -6.6334    0.2810 H   0  0  0  0  0  0  0  0  0  0  0  0
    1.4806   -6.7234    1.9465 H   0  0  0  0  0  0  0  0  0  0  0  0
    2.1580   -3.4263    2.9908 H   0  0  0  0  0  0  0  0  0  0  0  0
    3.4700   -2.5631    4.3669 H   0  0  0  0  0  0  0  0  0  0  0  0
    6.7207   -1.0312    1.6800 H   0  0  0  0  0  0  0  0  0  0  0  0
    4.3626    0.3703    1.1922 H   0  0  0  0  0  0  0  0  0  0  0  0
    5.3727   -0.1686   -0.1355 H   0  0  0  0  0  0  0  0  0  0  0  0
    3.1325   -1.2192   -0.6521 H   0  0  0  0  0  0  0  0  0  0  0  0
    5.9515   -2.5600   -0.0656 H   0  0  0  0  0  0  0  0  0  0  0  0
    6.0173   -4.0241    7.2015 H   0  0  0  0  0  0  0  0  0  0  0  0
    5.4431   -2.4429    6.6641 H   0  0  0  0  0  0  0  0  0  0  0  0
    6.6269   -3.3678    5.7393 H   0  0  0  0  0  0  0  0  0  0  0  0
    5.9677   -5.4027    4.3655 H   0  0  0  0  0  0  0  0  0  0  0  0
    5.5944   -6.0266    5.9310 H   0  0  0  0  0  0  0  0  0  0  0  0
    4.2309   -6.6953    3.4127 H   0  0  0  0  0  0  0  0  0  0  0  0
    4.2436   -7.5367    4.9184 H   0  0  0  0  0  0  0  0  0  0  0  0
    0.6353   -5.9018    5.6929 H   0  0  0  0  0  0  0  0  0  0  0  0
    1.4821   -7.5076    5.9437 H   0  0  0  0  0  0  0  0  0  0  0  0
    3.3211   -6.4218    6.8753 H   0  0  0  0  0  0  0  0  0  0  0  0
    2.6474   -4.4249    8.5573 H   0  0  0  0  0  0  0  0  0  0  0  0
    3.8568   -3.2029    8.2463 H   0  0  0  0  0  0  0  0  0  0  0  0
    4.3024   -4.9088    8.2885 H   0  0  0  0  0  0  0  0  0  0  0  0
    1.2819   -3.4458    6.9198 H   0  0  0  0  0  0  0  0  0  0  0  0
    1.6560   -3.3148    5.2318 H   0  0  0  0  0  0  0  0  0  0  0  0
    2.4667   -2.2596    6.3824 H   0  0  0  0  0  0  0  0  0  0  0  0
  1  2  1  0
  1 31  1  0
  1 32  1  0
  1 33  1  0
  2 19  1  0
  2  3  1  0
  2 34  1  1
  3  4  1  0
  3 35  1  0
  3 36  1  0
  4  5  1  0
  4 37  1  0
  4 38  1  0
  5 18  1  0
  5  6  1  0
  5 39  1  6
  6  7  1  0
  6  8  1  0
  6 40  1  6
  7 41  1  0
  7 42  1  0
  7 43  1  0
  8 30  1  0
  8  9  1  0
  8 44  1  6
  9 10  1  0
 10 11  1  0
 10 20  1  0
 10 45  1  1
 11 12  1  0
 12 13  2  0
 12 14  1  0
 14 19  1  0
 14 15  1  0
 14 46  1  1
 15 16  1  0
 15 47  1  0
 15 48  1  0
 16 18  1  0
 16 17  1  0
 16 49  1  6
 18 17  1  1
 18 19  1  0
 19 50  1  6
 20 27  1  0
 20 21  1  1
 20 22  1  0
 21 51  1  0
 21 52  1  0
 21 53  1  0
 22 23  1  0
 22 54  1  0
 22 55  1  0
 23 24  1  0
 23 56  1  0
 23 57  1  0
 24 26  1  0
 24 25  1  1
 24 30  1  0
 25 26  1  0
 25 58  1  0
 25 59  1  0
 26 27  1  0
 26 60  1  1
 27 28  1  0
 27 29  1  0
 28 61  1  0
 28 62  1  0
 28 63  1  0
 29 64  1  0
 29 65  1  0
 29 66  1  0
M  END
>  <i_m_ct_stereo_status>  (110) 
1

>  <s_m_source_file>  (110) 
/var/tmp/pbs.5076255.sched01/tmp44bw07az/09l6mph0o.sdf

>  <i_m_source_file_index>  (110) 
44

>  <i_lp_mmshare_version>  (110) 
48012

>  <i_f3d_flags>  (110) 
0

>  <s_epik_input>  (110) 
W0NAXTEyM1tDQEhdNFtDSDJdW0NIMl1bQ0BASF0oW0NIM10pW0NAQEhdM1tDQEBIXShbQ0gyXVtDQEBIXTFPMilDKD1PKU9bQ0BASF01W0NAXTYoW0NIM10pW0NIMl1bQ0gyXVtDQEBdNyhbQ0BIXShbQ0gyXTcpQzYoW0NIM10pW0NIM10pT1tDQEBIXShPNSlbQ0BASF00W0NIM10=

>  <s_epik_cmdline>  (110) 
J2VwaWtfcHl0aG9uJywgJy1waHQnLCAnMi4wJywgJy1waCcsICc3LjAnLCAnLXRuJywgJzgnLCAnLW1hJywgJzIwMCcsICctaW1hZScsICc8aW5maWxlLm1hZT4nLCAnLW9tYWUnLCAnPG91dGZpbGUubWFlPic=

>  <r_lp_tautomer_probability>  (110) 
1

>  <r_epik_Ionization_Penalty>  (110) 
1.24774e-11

>  <r_epik_Ionization_Penalty_Charging>  (110) 
0

>  <r_epik_Ionization_Penalty_Neutral>  (110) 
1.24774e-11

>  <r_epik_State_Penalty>  (110) 
-0

>  <r_epik_Charging_Adjusted_Penalty>  (110) 
0

>  <i_epik_Tot_Q>  (110) 
0

>  <i_epik_Tot_abs_Q>  (110) 
0

>  <s_epik_Chemistry_Notes>  (110) 
This compound has an ester and may undergo hydrolysis at high or low pH. This compound contains an acetal/aminal-like group ( X-CH(R)-Y where X, Y are N, S, or O) that may be acid/base labile, releasing an aldehyde.

>  <s_lp_Force_Field>  (110) 
OPLS3e

>  <r_lp_Energy>  (110) 
148.965

>  <b_lp_Chiralities_Consistent>  (110) 
1

>  <s_lp_Variant>  (110) 
20:0-1

>  <s_i_glide_gridfile>  (110) 
pfpi4k_grid

>  <i_i_glide_lignum>  (110) 
44

>  <i_i_glide_rotatable_bonds>  (110) 
0

>  <r_i_docking_score>  (110) 
-2.45021

>  <r_i_glide_ligand_efficiency>  (110) 
-0.0816735

>  <r_i_glide_ligand_efficiency_sa>  (110) 
-0.253779

>  <r_i_glide_ligand_efficiency_ln>  (110) 
-0.556713

>  <r_i_glide_gscore>  (110) 
-2.45021

>  <r_i_glide_lipo>  (110) 
-0.696809

>  <r_i_glide_hbond>  (110) 
0

>  <r_i_glide_metal>  (110) 
-0

>  <r_i_glide_rewards>  (110) 
-0.70489

>  <r_i_glide_evdw>  (110) 
-20.5039

>  <r_i_glide_ecoul>  (110) 
-0.139666

>  <r_i_glide_erotb>  (110) 
0

>  <r_i_glide_esite>  (110) 
-0.00236233

>  <r_i_glide_emodel>  (110) 
-24.1231

>  <r_i_glide_energy>  (110) 
-20.6435

>  <r_i_glide_einternal>  (110) 
0

>  <r_i_glide_intrahb_reward>  (110) 
-0

>  <i_i_glide_confnum>  (110) 
2

>  <i_i_glide_posenum>  (110) 
18

>  <r_i_glide_eff_state_penalty>  (110) 
0

>  <ligand_id>  (110) 
20

>  <original_smiles>  (110) 
CC1CCC2C(C)C3OC(OC(=O)C4CC5OC52C14)C1(C)CCC2(CC2C1(C)C)O3

>  <smiles>  (110) 
[H]C([H])([H])C1([H])C2([H])OC([H])(OC(=O)C3([H])C([H])([H])C4([H])OC45C1([H])C([H])([H])C([H])([H])C([H])(C([H])([H])[H])C35[H])C1(C([H])([H])[H])C([H])([H])C([H])([H])C3(O2)C([H])([H])C3([H])C1(C([H])([H])[H])C([H])([H])[H]

$$$$
20:0:1
     RDKit          3D

 66 72  0  0  1  0  0  0  0  0999 V2000
    7.6754   -3.8131    0.7149 C   0  0  0  0  0  0  0  0  0  0  0  0
    6.1998   -3.9264    1.1555 C   0  0  2  0  0  0  0  0  0  0  0  0
    5.8651   -5.3772    1.5640 C   0  0  0  0  0  0  0  0  0  0  0  0
    4.8998   -6.1017    0.6197 C   0  0  0  0  0  0  0  0  0  0  0  0
    3.5634   -5.3466    0.4866 C   0  0  1  0  0  0  0  0  0  0  0  0
    2.6039   -5.4317    1.7522 C   0  0  1  0  0  0  0  0  0  0  0  0
    2.6968   -6.7429    2.5584 C   0  0  0  0  0  0  0  0  0  0  0  0
    2.5060   -4.1407    2.6656 C   0  0  2  0  0  0  0  0  0  0  0  0
    3.7309   -3.5146    2.7563 O   0  0  0  0  0  0  0  0  0  0  0  0
    3.6991   -2.1526    3.0752 C   0  0  2  0  0  0  0  0  0  0  0  0
    4.7040   -1.5361    2.3022 O   0  0  0  0  0  0  0  0  0  0  0  0
    4.3065   -1.1165    1.0740 C   0  0  0  0  0  0  0  0  0  0  0  0
    3.4400   -0.2607    0.8973 O   0  0  0  0  0  0  0  0  0  0  0  0
    5.0126   -1.8249   -0.1240 C   0  0  2  0  0  0  0  0  0  0  0  0
    4.0878   -1.8739   -1.3925 C   0  0  0  0  0  0  0  0  0  0  0  0
    3.2679   -3.1397   -1.2095 C   0  0  2  0  0  0  0  0  0  0  0  0
    2.5884   -3.1611    0.0107 O   0  0  0  0  0  0  0  0  0  0  0  0
    3.8130   -3.9374   -0.0409 C   0  0  1  0  0  0  0  0  0  0  0  0
    5.2213   -3.3480    0.0854 C   0  0  2  0  0  0  0  0  0  0  0  0
    3.9704   -2.0069    4.6353 C   0  0  2  0  0  0  0  0  0  0  0  0
    4.8508   -0.7416    4.8573 C   0  0  0  0  0  0  0  0  0  0  0  0
    4.8563   -3.2470    5.0783 C   0  0  0  0  0  0  0  0  0  0  0  0
    4.1064   -4.6189    5.2101 C   0  0  0  0  0  0  0  0  0  0  0  0
    2.6053   -4.4063    5.1668 C   0  0  1  0  0  0  0  0  0  0  0  0
    1.4746   -4.4238    6.1689 C   0  0  0  0  0  0  0  0  0  0  0  0
    2.4121   -3.2721    6.1799 C   0  0  2  0  0  0  0  0  0  0  0  0
    2.5923   -1.9274    5.4901 C   0  0  0  0  0  0  0  0  0  0  0  0
    2.6731   -0.9019    6.6555 C   0  0  0  0  0  0  0  0  0  0  0  0
    1.3155   -1.5026    4.7162 C   0  0  0  0  0  0  0  0  0  0  0  0
    1.9006   -4.4211    3.9045 O   0  0  0  0  0  0  0  0  0  0  0  0
    7.8938   -4.4308   -0.1565 H   0  0  0  0  0  0  0  0  0  0  0  0
    8.3415   -4.1396    1.5176 H   0  0  0  0  0  0  0  0  0  0  0  0
    7.9488   -2.7848    0.4778 H   0  0  0  0  0  0  0  0  0  0  0  0
    6.1564   -3.3461    2.0702 H   0  0  0  0  0  0  0  0  0  0  0  0
    6.7730   -5.9687    1.6772 H   0  0  0  0  0  0  0  0  0  0  0  0
    5.4235   -5.3588    2.5521 H   0  0  0  0  0  0  0  0  0  0  0  0
    5.3659   -6.1805   -0.3617 H   0  0  0  0  0  0  0  0  0  0  0  0
    4.7518   -7.1320    0.9365 H   0  0  0  0  0  0  0  0  0  0  0  0
    3.0321   -5.8657   -0.3125 H   0  0  0  0  0  0  0  0  0  0  0  0
    1.6062   -5.4833    1.3198 H   0  0  0  0  0  0  0  0  0  0  0  0
    3.6451   -6.8498    3.0778 H   0  0  0  0  0  0  0  0  0  0  0  0
    2.5910   -7.6014    1.8945 H   0  0  0  0  0  0  0  0  0  0  0  0
    1.8961   -6.8210    3.2929 H   0  0  0  0  0  0  0  0  0  0  0  0
    1.8062   -3.4493    2.2024 H   0  0  0  0  0  0  0  0  0  0  0  0
    2.7518   -1.6938    2.7815 H   0  0  0  0  0  0  0  0  0  0  0  0
    5.9421   -1.2972   -0.3394 H   0  0  0  0  0  0  0  0  0  0  0  0
    3.4258   -1.0158   -1.5118 H   0  0  0  0  0  0  0  0  0  0  0  0
    4.6734   -1.9550   -2.3054 H   0  0  0  0  0  0  0  0  0  0  0  0
    2.7719   -3.6059   -2.0622 H   0  0  0  0  0  0  0  0  0  0  0  0
    5.7012   -3.6801   -0.8382 H   0  0  0  0  0  0  0  0  0  0  0  0
    5.1459   -0.6250    5.8985 H   0  0  0  0  0  0  0  0  0  0  0  0
    4.3456    0.1711    4.5415 H   0  0  0  0  0  0  0  0  0  0  0  0
    5.7961   -0.8031    4.3213 H   0  0  0  0  0  0  0  0  0  0  0  0
    5.7173   -3.3566    4.4200 H   0  0  0  0  0  0  0  0  0  0  0  0
    5.2800   -3.0280    6.0594 H   0  0  0  0  0  0  0  0  0  0  0  0
    4.3923   -5.3152    4.4332 H   0  0  0  0  0  0  0  0  0  0  0  0
    4.3811   -5.1070    6.1457 H   0  0  0  0  0  0  0  0  0  0  0  0
    0.4585   -4.2046    5.8564 H   0  0  0  0  0  0  0  0  0  0  0  0
    1.5605   -5.1270    6.9928 H   0  0  0  0  0  0  0  0  0  0  0  0
    3.0254   -3.3155    7.0833 H   0  0  0  0  0  0  0  0  0  0  0  0
    1.7773   -0.9376    7.2753 H   0  0  0  0  0  0  0  0  0  0  0  0
    2.7560    0.1220    6.2888 H   0  0  0  0  0  0  0  0  0  0  0  0
    3.5140   -1.0914    7.3208 H   0  0  0  0  0  0  0  0  0  0  0  0
    0.4629   -1.4210    5.3921 H   0  0  0  0  0  0  0  0  0  0  0  0
    1.0091   -2.2033    3.9458 H   0  0  0  0  0  0  0  0  0  0  0  0
    1.4527   -0.5281    4.2444 H   0  0  0  0  0  0  0  0  0  0  0  0
  1  2  1  0
  1 31  1  0
  1 32  1  0
  1 33  1  0
  2 19  1  0
  2  3  1  0
  2 34  1  1
  3  4  1  0
  3 35  1  0
  3 36  1  0
  4  5  1  0
  4 37  1  0
  4 38  1  0
  5 18  1  0
  5  6  1  0
  5 39  1  6
  6  7  1  0
  6  8  1  0
  6 40  1  6
  7 41  1  0
  7 42  1  0
  7 43  1  0
  8 30  1  0
  8  9  1  0
  8 44  1  6
  9 10  1  0
 10 11  1  0
 10 20  1  0
 10 45  1  1
 11 12  1  0
 12 13  2  0
 12 14  1  0
 14 19  1  0
 14 15  1  0
 14 46  1  6
 15 16  1  0
 15 47  1  0
 15 48  1  0
 16 18  1  0
 16 17  1  0
 16 49  1  6
 18 17  1  1
 18 19  1  0
 19 50  1  6
 20 27  1  0
 20 21  1  6
 20 22  1  0
 21 51  1  0
 21 52  1  0
 21 53  1  0
 22 23  1  0
 22 54  1  0
 22 55  1  0
 23 24  1  0
 23 56  1  0
 23 57  1  0
 24 26  1  0
 24 25  1  1
 24 30  1  0
 25 26  1  0
 25 58  1  0
 25 59  1  0
 26 27  1  0
 26 60  1  1
 27 28  1  0
 27 29  1  0
 28 61  1  0
 28 62  1  0
 28 63  1  0
 29 64  1  0
 29 65  1  0
 29 66  1  0
M  END
>  <i_m_ct_stereo_status>  (111) 
1

>  <s_m_source_file>  (111) 
/var/tmp/pbs.5076255.sched01/tmp44bw07az/09l6mph0o.sdf

>  <i_m_source_file_index>  (111) 
44

>  <i_lp_mmshare_version>  (111) 
48012

>  <i_f3d_flags>  (111) 
0

>  <s_epik_input>  (111) 
W0NAXTEyM1tDQEhdNFtDSDJdW0NIMl1bQ0BASF0oW0NIM10pW0NAQEhdM1tDQEBIXShbQ0gyXVtDQEBIXTFPMilDKD1PKU9bQ0BASF01W0NAXTYoW0NIM10pW0NIMl1bQ0gyXVtDQEBdNyhbQ0BIXShbQ0gyXTcpQzYoW0NIM10pW0NIM10pT1tDQEBIXShPNSlbQ0BASF00W0NIM10=

>  <s_epik_cmdline>  (111) 
J2VwaWtfcHl0aG9uJywgJy1waHQnLCAnMi4wJywgJy1waCcsICc3LjAnLCAnLXRuJywgJzgnLCAnLW1hJywgJzIwMCcsICctaW1hZScsICc8aW5maWxlLm1hZT4nLCAnLW9tYWUnLCAnPG91dGZpbGUubWFlPic=

>  <r_lp_tautomer_probability>  (111) 
1

>  <r_epik_Ionization_Penalty>  (111) 
1.24774e-11

>  <r_epik_Ionization_Penalty_Charging>  (111) 
0

>  <r_epik_Ionization_Penalty_Neutral>  (111) 
1.24774e-11

>  <r_epik_State_Penalty>  (111) 
-0

>  <r_epik_Charging_Adjusted_Penalty>  (111) 
0

>  <i_epik_Tot_Q>  (111) 
0

>  <i_epik_Tot_abs_Q>  (111) 
0

>  <s_epik_Chemistry_Notes>  (111) 
This compound has an ester and may undergo hydrolysis at high or low pH. This compound contains an acetal/aminal-like group ( X-CH(R)-Y where X, Y are N, S, or O) that may be acid/base labile, releasing an aldehyde.

>  <s_lp_Force_Field>  (111) 
OPLS3e

>  <r_lp_Energy>  (111) 
148.965

>  <b_lp_Chiralities_Consistent>  (111) 
1

>  <s_lp_Variant>  (111) 
20:0-1

>  <s_i_glide_gridfile>  (111) 
pfpi4k_grid

>  <i_i_glide_lignum>  (111) 
44

>  <i_i_glide_rotatable_bonds>  (111) 
0

>  <r_i_docking_score>  (111) 
-2.4173

>  <r_i_glide_ligand_efficiency>  (111) 
-0.0805768

>  <r_i_glide_ligand_efficiency_sa>  (111) 
-0.250371

>  <r_i_glide_ligand_efficiency_ln>  (111) 
-0.549238

>  <r_i_glide_gscore>  (111) 
-2.4173

>  <r_i_glide_lipo>  (111) 
-0.545828

>  <r_i_glide_hbond>  (111) 
0

>  <r_i_glide_metal>  (111) 
-0

>  <r_i_glide_rewards>  (111) 
-0.593678

>  <r_i_glide_evdw>  (111) 
-26.4288

>  <r_i_glide_ecoul>  (111) 
0.320077

>  <r_i_glide_erotb>  (111) 
0

>  <r_i_glide_esite>  (111) 
-0.00436883

>  <r_i_glide_emodel>  (111) 
-29.5861

>  <r_i_glide_energy>  (111) 
-26.1087

>  <r_i_glide_einternal>  (111) 
0

>  <r_i_glide_intrahb_reward>  (111) 
-0

>  <i_i_glide_confnum>  (111) 
1

>  <i_i_glide_posenum>  (111) 
1

>  <r_i_glide_eff_state_penalty>  (111) 
0

>  <ligand_id>  (111) 
20

>  <original_smiles>  (111) 
CC1CCC2C(C)C3OC(OC(=O)C4CC5OC52C14)C1(C)CCC2(CC2C1(C)C)O3

>  <smiles>  (111) 
[H]C([H])([H])C1([H])C2([H])OC([H])(OC(=O)C3([H])C([H])([H])C4([H])OC45C1([H])C([H])([H])C([H])([H])C([H])(C([H])([H])[H])C35[H])C1(C([H])([H])[H])C([H])([H])C([H])([H])C3(O2)C([H])([H])C3([H])C1(C([H])([H])[H])C([H])([H])[H]

$$$$
20:0:2
     RDKit          3D

 66 72  0  0  1  0  0  0  0  0999 V2000
    7.4039   -3.4262    0.6486 C   0  0  0  0  0  0  0  0  0  0  0  0
    6.0507   -3.7801    1.3117 C   0  0  2  0  0  0  0  0  0  0  0  0
    5.4456   -5.0290    0.6479 C   0  0  0  0  0  0  0  0  0  0  0  0
    4.1898   -4.7471   -0.1814 C   0  0  0  0  0  0  0  0  0  0  0  0
    3.0863   -4.1159    0.6771 C   0  0  1  0  0  0  0  0  0  0  0  0
    2.3870   -5.1065    1.7189 C   0  0  1  0  0  0  0  0  0  0  0  0
    2.2736   -6.5755    1.2826 C   0  0  0  0  0  0  0  0  0  0  0  0
    2.7605   -4.9358    3.2483 C   0  0  2  0  0  0  0  0  0  0  0  0
    4.0924   -4.6270    3.3778 O   0  0  0  0  0  0  0  0  0  0  0  0
    4.4463   -3.9688    4.5628 C   0  0  2  0  0  0  0  0  0  0  0  0
    5.4048   -3.0144    4.1984 O   0  0  0  0  0  0  0  0  0  0  0  0
    4.9209   -1.8030    3.8293 C   0  0  0  0  0  0  0  0  0  0  0  0
    4.2709   -1.0730    4.5833 O   0  0  0  0  0  0  0  0  0  0  0  0
    5.2289   -1.3917    2.3588 C   0  0  2  0  0  0  0  0  0  0  0  0
    4.1141   -0.4321    1.7869 C   0  0  0  0  0  0  0  0  0  0  0  0
    3.0655   -1.3708    1.2814 C   0  0  2  0  0  0  0  0  0  0  0  0
    2.5940   -2.2829    2.2434 O   0  0  0  0  0  0  0  0  0  0  0  0
    3.5639   -2.8112    1.2783 C   0  0  1  0  0  0  0  0  0  0  0  0
    5.0751   -2.5602    1.3427 C   0  0  2  0  0  0  0  0  0  0  0  0
    5.0221   -5.0668    5.5679 C   0  0  2  0  0  0  0  0  0  0  0  0
    6.2148   -4.4163    6.3340 C   0  0  0  0  0  0  0  0  0  0  0  0
    5.6375   -6.2339    4.6883 C   0  0  0  0  0  0  0  0  0  0  0  0
    4.6047   -7.2146    4.0252 C   0  0  0  0  0  0  0  0  0  0  0  0
    3.2421   -7.0052    4.6092 C   0  0  1  0  0  0  0  0  0  0  0  0
    2.3122   -7.7239    5.5741 C   0  0  0  0  0  0  0  0  0  0  0  0
    3.4992   -6.9924    6.1209 C   0  0  2  0  0  0  0  0  0  0  0  0
    3.8929   -5.6062    6.5737 C   0  0  0  0  0  0  0  0  0  0  0  0
    4.4243   -5.8077    8.0238 C   0  0  0  0  0  0  0  0  0  0  0  0
    2.6412   -4.7052    6.7773 C   0  0  0  0  0  0  0  0  0  0  0  0
    2.3254   -6.0285    4.0169 O   0  0  0  0  0  0  0  0  0  0  0  0
    7.3023   -3.1941   -0.4094 H   0  0  0  0  0  0  0  0  0  0  0  0
    8.1046   -4.2648    0.7358 H   0  0  0  0  0  0  0  0  0  0  0  0
    7.8619   -2.5737    1.1331 H   0  0  0  0  0  0  0  0  0  0  0  0
    6.3143   -4.0830    2.3170 H   0  0  0  0  0  0  0  0  0  0  0  0
    6.1814   -5.5340    0.0201 H   0  0  0  0  0  0  0  0  0  0  0  0
    5.2043   -5.7428    1.4147 H   0  0  0  0  0  0  0  0  0  0  0  0
    4.4376   -4.0882   -1.0049 H   0  0  0  0  0  0  0  0  0  0  0  0
    3.8513   -5.6668   -0.6535 H   0  0  0  0  0  0  0  0  0  0  0  0
    2.2991   -3.8496   -0.0304 H   0  0  0  0  0  0  0  0  0  0  0  0
    1.3646   -4.7852    1.7375 H   0  0  0  0  0  0  0  0  0  0  0  0
    3.2369   -7.0773    1.2299 H   0  0  0  0  0  0  0  0  0  0  0  0
    1.8249   -6.6183    0.2916 H   0  0  0  0  0  0  0  0  0  0  0  0
    1.6206   -7.1505    1.9380 H   0  0  0  0  0  0  0  0  0  0  0  0
    2.1660   -4.1129    3.6454 H   0  0  0  0  0  0  0  0  0  0  0  0
    3.5969   -3.4201    4.9803 H   0  0  0  0  0  0  0  0  0  0  0  0
    6.2080   -0.9141    2.3095 H   0  0  0  0  0  0  0  0  0  0  0  0
    3.6850    0.2492    2.5256 H   0  0  0  0  0  0  0  0  0  0  0  0
    4.4862    0.1681    0.9732 H   0  0  0  0  0  0  0  0  0  0  0  0
    2.3172   -1.0173    0.5550 H   0  0  0  0  0  0  0  0  0  0  0  0
    5.2868   -2.0995    0.3752 H   0  0  0  0  0  0  0  0  0  0  0  0
    6.7101   -5.1417    6.9888 H   0  0  0  0  0  0  0  0  0  0  0  0
    5.9090   -3.5689    6.9388 H   0  0  0  0  0  0  0  0  0  0  0  0
    7.0109   -4.0927    5.6740 H   0  0  0  0  0  0  0  0  0  0  0  0
    6.3151   -5.8398    3.9333 H   0  0  0  0  0  0  0  0  0  0  0  0
    6.2705   -6.8432    5.3370 H   0  0  0  0  0  0  0  0  0  0  0  0
    4.5670   -7.0993    2.9532 H   0  0  0  0  0  0  0  0  0  0  0  0
    4.9128   -8.2484    4.1905 H   0  0  0  0  0  0  0  0  0  0  0  0
    1.3551   -7.3093    5.8438 H   0  0  0  0  0  0  0  0  0  0  0  0
    2.3742   -8.8072    5.5753 H   0  0  0  0  0  0  0  0  0  0  0  0
    4.2326   -7.7333    6.4722 H   0  0  0  0  0  0  0  0  0  0  0  0
    3.6732   -6.2701    8.6640 H   0  0  0  0  0  0  0  0  0  0  0  0
    4.6945   -4.8641    8.4916 H   0  0  0  0  0  0  0  0  0  0  0  0
    5.2972   -6.4632    8.0544 H   0  0  0  0  0  0  0  0  0  0  0  0
    1.9679   -5.1325    7.5270 H   0  0  0  0  0  0  0  0  0  0  0  0
    2.0382   -4.5766    5.8872 H   0  0  0  0  0  0  0  0  0  0  0  0
    2.9310   -3.7115    7.1311 H   0  0  0  0  0  0  0  0  0  0  0  0
  1  2  1  0
  1 31  1  0
  1 32  1  0
  1 33  1  0
  2 19  1  0
  2  3  1  0
  2 34  1  1
  3  4  1  0
  3 35  1  0
  3 36  1  0
  4  5  1  0
  4 37  1  0
  4 38  1  0
  5 18  1  0
  5  6  1  0
  5 39  1  6
  6  7  1  0
  6  8  1  0
  6 40  1  1
  7 41  1  0
  7 42  1  0
  7 43  1  0
  8 30  1  0
  8  9  1  0
  8 44  1  1
  9 10  1  0
 10 11  1  0
 10 20  1  0
 10 45  1  1
 11 12  1  0
 12 13  2  0
 12 14  1  0
 14 19  1  0
 14 15  1  0
 14 46  1  1
 15 16  1  0
 15 47  1  0
 15 48  1  0
 16 18  1  0
 16 17  1  0
 16 49  1  6
 18 17  1  1
 18 19  1  0
 19 50  1  6
 20 27  1  0
 20 21  1  1
 20 22  1  0
 21 51  1  0
 21 52  1  0
 21 53  1  0
 22 23  1  0
 22 54  1  0
 22 55  1  0
 23 24  1  0
 23 56  1  0
 23 57  1  0
 24 26  1  0
 24 25  1  1
 24 30  1  0
 25 26  1  0
 25 58  1  0
 25 59  1  0
 26 27  1  0
 26 60  1  6
 27 28  1  0
 27 29  1  0
 28 61  1  0
 28 62  1  0
 28 63  1  0
 29 64  1  0
 29 65  1  0
 29 66  1  0
M  END
>  <i_m_ct_stereo_status>  (112) 
1

>  <s_m_source_file>  (112) 
/var/tmp/pbs.5076255.sched01/tmp44bw07az/09l6mph0o.sdf

>  <i_m_source_file_index>  (112) 
44

>  <i_lp_mmshare_version>  (112) 
48012

>  <i_f3d_flags>  (112) 
0

>  <s_epik_input>  (112) 
W0NAXTEyM1tDQEhdNFtDSDJdW0NIMl1bQ0BASF0oW0NIM10pW0NAQEhdM1tDQEBIXShbQ0gyXVtDQEBIXTFPMilDKD1PKU9bQ0BASF01W0NAXTYoW0NIM10pW0NIMl1bQ0gyXVtDQEBdNyhbQ0BIXShbQ0gyXTcpQzYoW0NIM10pW0NIM10pT1tDQEBIXShPNSlbQ0BASF00W0NIM10=

>  <s_epik_cmdline>  (112) 
J2VwaWtfcHl0aG9uJywgJy1waHQnLCAnMi4wJywgJy1waCcsICc3LjAnLCAnLXRuJywgJzgnLCAnLW1hJywgJzIwMCcsICctaW1hZScsICc8aW5maWxlLm1hZT4nLCAnLW9tYWUnLCAnPG91dGZpbGUubWFlPic=

>  <r_lp_tautomer_probability>  (112) 
1

>  <r_epik_Ionization_Penalty>  (112) 
1.24774e-11

>  <r_epik_Ionization_Penalty_Charging>  (112) 
0

>  <r_epik_Ionization_Penalty_Neutral>  (112) 
1.24774e-11

>  <r_epik_State_Penalty>  (112) 
-0

>  <r_epik_Charging_Adjusted_Penalty>  (112) 
0

>  <i_epik_Tot_Q>  (112) 
0

>  <i_epik_Tot_abs_Q>  (112) 
0

>  <s_epik_Chemistry_Notes>  (112) 
This compound has an ester and may undergo hydrolysis at high or low pH. This compound contains an acetal/aminal-like group ( X-CH(R)-Y where X, Y are N, S, or O) that may be acid/base labile, releasing an aldehyde.

>  <s_lp_Force_Field>  (112) 
OPLS3e

>  <r_lp_Energy>  (112) 
148.965

>  <b_lp_Chiralities_Consistent>  (112) 
1

>  <s_lp_Variant>  (112) 
20:0-1

>  <s_i_glide_gridfile>  (112) 
pfpi4k_grid

>  <i_i_glide_lignum>  (112) 
44

>  <i_i_glide_rotatable_bonds>  (112) 
0

>  <r_i_docking_score>  (112) 
-2.16029

>  <r_i_glide_ligand_efficiency>  (112) 
-0.0720097

>  <r_i_glide_ligand_efficiency_sa>  (112) 
-0.223751

>  <r_i_glide_ligand_efficiency_ln>  (112) 
-0.490841

>  <r_i_glide_gscore>  (112) 
-2.16029

>  <r_i_glide_lipo>  (112) 
-0.531619

>  <r_i_glide_hbond>  (112) 
0

>  <r_i_glide_metal>  (112) 
-0

>  <r_i_glide_rewards>  (112) 
-0.648421

>  <r_i_glide_evdw>  (112) 
-18.0524

>  <r_i_glide_ecoul>  (112) 
-0.513145

>  <r_i_glide_erotb>  (112) 
0

>  <r_i_glide_esite>  (112) 
-0.000659814

>  <r_i_glide_emodel>  (112) 
-21.5232

>  <r_i_glide_energy>  (112) 
-18.5655

>  <r_i_glide_einternal>  (112) 
0

>  <r_i_glide_intrahb_reward>  (112) 
-0

>  <i_i_glide_confnum>  (112) 
2

>  <i_i_glide_posenum>  (112) 
13

>  <r_i_glide_eff_state_penalty>  (112) 
0

>  <ligand_id>  (112) 
20

>  <original_smiles>  (112) 
CC1CCC2C(C)C3OC(OC(=O)C4CC5OC52C14)C1(C)CCC2(CC2C1(C)C)O3

>  <smiles>  (112) 
[H]C([H])([H])C1([H])C2([H])OC([H])(OC(=O)C3([H])C([H])([H])C4([H])OC45C1([H])C([H])([H])C([H])([H])C([H])(C([H])([H])[H])C35[H])C1(C([H])([H])[H])C([H])([H])C([H])([H])C3(O2)C([H])([H])C3([H])C1(C([H])([H])[H])C([H])([H])[H]

$$$$
21:0:0
     RDKit          3D

 36 41  0  0  1  0  0  0  0  0999 V2000
    4.1577   -0.3613   -3.1087 C   0  0  0  0  0  0  0  0  0  0  0  0
    3.0268   -1.2453   -2.7136 N   0  0  1  0  0  0  0  0  0  0  0  0
    2.5075   -2.1453   -3.8119 C   0  0  0  0  0  0  0  0  0  0  0  0
    2.5283   -3.5977   -3.2290 C   0  0  0  0  0  0  0  0  0  0  0  0
    3.6837   -3.5502   -2.2198 C   0  0  2  0  0  0  0  0  0  0  0  0
    5.0106   -3.5733   -3.0233 C   0  0  0  0  0  0  0  0  0  0  0  0
    5.0112   -4.1540   -4.1191 O   0  0  0  0  0  0  0  0  0  0  0  0
    6.1170   -2.8914   -2.6473 N   0  0  0  0  0  0  0  0  0  0  0  0
    6.4188   -2.3192   -1.3974 C   0  0  0  0  0  0  0  0  0  0  0  0
    5.5567   -2.2042   -0.3881 C   0  0  0  0  0  0  0  0  0  0  0  0
    5.9323   -2.6837    0.9636 C   0  0  1  0  0  0  0  0  0  0  0  0
    4.7050   -2.7982    1.8005 C   0  0  1  0  0  0  0  0  0  0  0  0
    3.5991   -2.1104    1.0279 C   0  0  0  0  0  0  0  0  0  0  0  0
    4.0342   -2.4009   -0.3963 C   0  0  2  0  0  0  0  0  0  0  0  0
    3.7421   -3.9259   -0.6747 C   0  0  2  0  0  0  0  0  0  0  0  0
    4.7472   -4.8035    0.0559 C   0  0  0  0  0  0  0  0  0  0  0  0
    5.1034   -5.9400   -0.2595 O   0  0  0  0  0  0  0  0  0  0  0  0
    5.3704   -4.0823    1.2710 C   0  0  1  0  0  0  0  0  0  0  0  0
    3.1982   -2.2379   -1.6377 C   0  0  1  0  0  0  0  0  0  0  0  0
    4.8860   -0.8934   -3.7282 H   0  0  0  0  0  0  0  0  0  0  0  0
    4.6476    0.0474   -2.2112 H   0  0  0  0  0  0  0  0  0  0  0  0
    3.7523    0.4718   -3.7067 H   0  0  0  0  0  0  0  0  0  0  0  0
    1.4879   -1.9221   -4.1452 H   0  0  0  0  0  0  0  0  0  0  0  0
    3.1329   -2.0776   -4.7042 H   0  0  0  0  0  0  0  0  0  0  0  0
    1.5975   -3.8484   -2.7148 H   0  0  0  0  0  0  0  0  0  0  0  0
    2.6377   -4.3198   -4.0278 H   0  0  0  0  0  0  0  0  0  0  0  0
    6.8870   -2.9303   -3.2963 H   0  0  0  0  0  0  0  0  0  0  0  0
    7.4915   -2.3725   -1.2089 H   0  0  0  0  0  0  0  0  0  0  0  0
    6.8883   -2.3545    1.3863 H   0  0  0  0  0  0  0  0  0  0  0  0
    4.7836   -2.5994    2.8620 H   0  0  0  0  0  0  0  0  0  0  0  0
    2.6268   -2.5325    1.2759 H   0  0  0  0  0  0  0  0  0  0  0  0
    3.5756   -1.0414    1.2629 H   0  0  0  0  0  0  0  0  0  0  0  0
    2.7389   -4.2171   -0.3605 H   0  0  0  0  0  0  0  0  0  0  0  0
    5.9080   -4.7035    1.9893 H   0  0  0  0  0  0  0  0  0  0  0  0
    2.2033   -2.3215   -1.2144 H   0  0  0  0  0  0  0  0  0  0  0  0
    2.2677   -0.6656   -2.3794 H   0  0  0  0  0  0  0  0  0  0  0  0
  1  2  1  0
  1 20  1  0
  1 21  1  0
  1 22  1  0
  2 19  1  0
  2  3  1  0
  2 36  1  1
  3  4  1  0
  3 23  1  0
  3 24  1  0
  5  4  1  6
  4 25  1  0
  4 26  1  0
  5 15  1  0
  5 19  1  0
  5  6  1  0
  6  7  2  0
  6  8  1  0
  8  9  1  0
  8 27  1  0
  9 10  2  0
  9 28  1  0
 10 14  1  0
 10 11  1  0
 11 18  1  0
 11 12  1  0
 11 29  1  1
 12 18  1  0
 12 13  1  0
 12 30  1  1
 14 13  1  1
 13 31  1  0
 13 32  1  0
 14 15  1  0
 14 19  1  0
 15 16  1  0
 15 33  1  1
 16 17  2  0
 16 18  1  0
 18 34  1  1
 19 35  1  1
M  CHG  1   2   1
M  END
>  <i_m_ct_stereo_status>  (113) 
1

>  <s_m_source_file>  (113) 
/var/tmp/pbs.5076255.sched01/tmp44bw07az/09l6mph0o.sdf

>  <i_m_source_file_index>  (113) 
45

>  <i_lp_mmshare_version>  (113) 
48012

>  <i_f3d_flags>  (113) 
0

>  <s_epik_input>  (113) 
W0NIMl0xW0NIMl1OKFtDSDNdKVtDQEBIXTJbQ0BAXTMoW0NASF00W0NAQF0xMjUpQyg9W0NIXVtOSF1DNT1PKVtDQEhdNltDQEBIXShbQ0gyXTMpW0NASF02QzQ9Tw==

>  <s_epik_cmdline>  (113) 
J2VwaWtfcHl0aG9uJywgJy1waHQnLCAnMi4wJywgJy1waCcsICc3LjAnLCAnLXRuJywgJzgnLCAnLW1hJywgJzIwMCcsICctaW1hZScsICc8aW5maWxlLm1hZT4nLCAnLW9tYWUnLCAnPG91dGZpbGUubWFlPic=

>  <r_lp_tautomer_probability>  (113) 
1

>  <r_epik_Ionization_Penalty>  (113) 
0.0712091

>  <r_epik_Ionization_Penalty_Charging>  (113) 
0.0712074

>  <r_epik_Ionization_Penalty_Neutral>  (113) 
1.69988e-06

>  <r_epik_State_Penalty>  (113) 
0.0624919

>  <r_epik_Charging_Adjusted_Penalty>  (113) 
0.133699

>  <i_epik_Tot_Q>  (113) 
1

>  <i_epik_Tot_abs_Q>  (113) 
1

>  <s_lp_Force_Field>  (113) 
OPLS3e

>  <r_lp_Energy>  (113) 
126.467

>  <b_lp_Chiralities_Consistent>  (113) 
1

>  <s_lp_Variant>  (113) 
21:0-1

>  <s_i_glide_gridfile>  (113) 
pfpi4k_grid

>  <i_i_glide_lignum>  (113) 
45

>  <i_i_glide_rotatable_bonds>  (113) 
0

>  <r_i_docking_score>  (113) 
-5.56872

>  <r_i_glide_ligand_efficiency>  (113) 
-0.29309

>  <r_i_glide_ligand_efficiency_sa>  (113) 
-0.782083

>  <r_i_glide_ligand_efficiency_ln>  (113) 
-1.41179

>  <r_i_glide_gscore>  (113) 
-5.56872

>  <r_i_glide_lipo>  (113) 
-0.706837

>  <r_i_glide_hbond>  (113) 
-0.40024

>  <r_i_glide_metal>  (113) 
-0

>  <r_i_glide_rewards>  (113) 
-2.62456

>  <r_i_glide_evdw>  (113) 
-16.7197

>  <r_i_glide_ecoul>  (113) 
-6.28543

>  <r_i_glide_erotb>  (113) 
0

>  <r_i_glide_esite>  (113) 
-0.0582787

>  <r_i_glide_emodel>  (113) 
-29.673

>  <r_i_glide_energy>  (113) 
-23.0051

>  <r_i_glide_einternal>  (113) 
0

>  <r_i_glide_intrahb_reward>  (113) 
-0

>  <i_i_glide_confnum>  (113) 
1

>  <i_i_glide_posenum>  (113) 
2

>  <r_i_glide_eff_state_penalty>  (113) 
0

>  <ligand_id>  (113) 
21

>  <original_smiles>  (113) 
CN1CCC23C(=O)NC=C4C5C6CC4(C2C(=O)C65)C13

>  <smiles>  (113) 
[H]C1=C2C3([H])C4([H])C(=O)C5([H])C2(C([H])([H])C43[H])C2([H])C5(C(=O)N1[H])C([H])([H])C([H])([H])[N+]2([H])C([H])([H])[H]

$$$$
21:0:1
     RDKit          3D

 36 41  0  0  1  0  0  0  0  0999 V2000
    5.2746   -5.4237    0.0063 C   0  0  0  0  0  0  0  0  0  0  0  0
    4.3412   -4.4294    0.5988 N   0  0  1  0  0  0  0  0  0  0  0  0
    4.9157   -3.5403    1.6709 C   0  0  0  0  0  0  0  0  0  0  0  0
    4.6545   -2.0566    1.2167 C   0  0  0  0  0  0  0  0  0  0  0  0
    4.5700   -2.1774   -0.3195 C   0  0  2  0  0  0  0  0  0  0  0  0
    6.0298   -2.3132   -0.8799 C   0  0  0  0  0  0  0  0  0  0  0  0
    6.9183   -1.7107   -0.3083 O   0  0  0  0  0  0  0  0  0  0  0  0
    6.3743   -3.1428   -1.8929 N   0  0  0  0  0  0  0  0  0  0  0  0
    5.5553   -3.6000   -2.8933 C   0  0  0  0  0  0  0  0  0  0  0  0
    4.2166   -3.5645   -2.8410 C   0  0  0  0  0  0  0  0  0  0  0  0
    3.4561   -3.0778   -3.9954 C   0  0  1  0  0  0  0  0  0  0  0  0
    2.0413   -2.8386   -3.5958 C   0  0  1  0  0  0  0  0  0  0  0  0
    1.8750   -3.4775   -2.2339 C   0  0  0  0  0  0  0  0  0  0  0  0
    3.2788   -3.2736   -1.6766 C   0  0  2  0  0  0  0  0  0  0  0  0
    3.4491   -1.7521   -1.3411 C   0  0  2  0  0  0  0  0  0  0  0  0
    3.6180   -0.9400   -2.6445 C   0  0  0  0  0  0  0  0  0  0  0  0
    4.2416    0.0982   -2.8333 O   0  0  0  0  0  0  0  0  0  0  0  0
    2.9780   -1.6476   -3.8389 C   0  0  1  0  0  0  0  0  0  0  0  0
    3.6764   -3.4067   -0.2350 C   0  0  1  0  0  0  0  0  0  0  0  0
    6.2605   -5.0229   -0.1826 H   0  0  0  0  0  0  0  0  0  0  0  0
    4.8730   -5.8468   -0.9066 H   0  0  0  0  0  0  0  0  0  0  0  0
    5.4174   -6.2371    0.7089 H   0  0  0  0  0  0  0  0  0  0  0  0
    4.4450   -3.7582    2.6254 H   0  0  0  0  0  0  0  0  0  0  0  0
    5.9776   -3.7269    1.8076 H   0  0  0  0  0  0  0  0  0  0  0  0
    3.7111   -1.6975    1.6270 H   0  0  0  0  0  0  0  0  0  0  0  0
    5.4157   -1.3725    1.5962 H   0  0  0  0  0  0  0  0  0  0  0  0
    7.3672   -3.1749   -2.0971 H   0  0  0  0  0  0  0  0  0  0  0  0
    6.0781   -3.6879   -3.8440 H   0  0  0  0  0  0  0  0  0  0  0  0
    3.7033   -3.4606   -4.9715 H   0  0  0  0  0  0  0  0  0  0  0  0
    1.2742   -3.0138   -4.3358 H   0  0  0  0  0  0  0  0  0  0  0  0
    1.0823   -3.0103   -1.6653 H   0  0  0  0  0  0  0  0  0  0  0  0
    1.5712   -4.5142   -2.3244 H   0  0  0  0  0  0  0  0  0  0  0  0
    2.6121   -1.3548   -0.7768 H   0  0  0  0  0  0  0  0  0  0  0  0
    2.8115   -1.0646   -4.7385 H   0  0  0  0  0  0  0  0  0  0  0  0
    2.7546   -3.2197    0.3211 H   0  0  0  0  0  0  0  0  0  0  0  0
    3.6027   -4.9812    1.0100 H   0  0  0  0  0  0  0  0  0  0  0  0
  1  2  1  0
  1 20  1  0
  1 21  1  0
  1 22  1  0
  2 19  1  0
  2  3  1  0
  2 36  1  1
  3  4  1  0
  3 23  1  0
  3 24  1  0
  5  4  1  1
  4 25  1  0
  4 26  1  0
  5 15  1  0
  5 19  1  0
  5  6  1  0
  6  7  2  0
  6  8  1  0
  8  9  1  0
  8 27  1  0
  9 10  2  0
  9 28  1  0
 10 14  1  0
 10 11  1  0
 11 18  1  0
 11 12  1  0
 11 29  1  6
 12 18  1  0
 12 13  1  0
 12 30  1  6
 14 13  1  6
 13 31  1  0
 13 32  1  0
 14 15  1  0
 14 19  1  0
 15 16  1  0
 15 33  1  1
 16 17  2  0
 16 18  1  0
 18 34  1  6
 19 35  1  1
M  CHG  1   2   1
M  END
>  <i_m_ct_stereo_status>  (114) 
1

>  <s_m_source_file>  (114) 
/var/tmp/pbs.5076255.sched01/tmp44bw07az/09l6mph0o.sdf

>  <i_m_source_file_index>  (114) 
45

>  <i_lp_mmshare_version>  (114) 
48012

>  <i_f3d_flags>  (114) 
0

>  <s_epik_input>  (114) 
W0NIMl0xW0NIMl1OKFtDSDNdKVtDQEBIXTJbQ0BAXTMoW0NASF00W0NAQF0xMjUpQyg9W0NIXVtOSF1DNT1PKVtDQEhdNltDQEBIXShbQ0gyXTMpW0NASF02QzQ9Tw==

>  <s_epik_cmdline>  (114) 
J2VwaWtfcHl0aG9uJywgJy1waHQnLCAnMi4wJywgJy1waCcsICc3LjAnLCAnLXRuJywgJzgnLCAnLW1hJywgJzIwMCcsICctaW1hZScsICc8aW5maWxlLm1hZT4nLCAnLW9tYWUnLCAnPG91dGZpbGUubWFlPic=

>  <r_lp_tautomer_probability>  (114) 
1

>  <r_epik_Ionization_Penalty>  (114) 
0.0712091

>  <r_epik_Ionization_Penalty_Charging>  (114) 
0.0712074

>  <r_epik_Ionization_Penalty_Neutral>  (114) 
1.69988e-06

>  <r_epik_State_Penalty>  (114) 
0.0624919

>  <r_epik_Charging_Adjusted_Penalty>  (114) 
0.133699

>  <i_epik_Tot_Q>  (114) 
1

>  <i_epik_Tot_abs_Q>  (114) 
1

>  <s_lp_Force_Field>  (114) 
OPLS3e

>  <r_lp_Energy>  (114) 
126.467

>  <b_lp_Chiralities_Consistent>  (114) 
1

>  <s_lp_Variant>  (114) 
21:0-1

>  <s_i_glide_gridfile>  (114) 
pfpi4k_grid

>  <i_i_glide_lignum>  (114) 
45

>  <i_i_glide_rotatable_bonds>  (114) 
0

>  <r_i_docking_score>  (114) 
-4.29676

>  <r_i_glide_ligand_efficiency>  (114) 
-0.226145

>  <r_i_glide_ligand_efficiency_sa>  (114) 
-0.603446

>  <r_i_glide_ligand_efficiency_ln>  (114) 
-1.08932

>  <r_i_glide_gscore>  (114) 
-4.29676

>  <r_i_glide_lipo>  (114) 
-0.902347

>  <r_i_glide_hbond>  (114) 
-0.138668

>  <r_i_glide_metal>  (114) 
-0

>  <r_i_glide_rewards>  (114) 
-1.65472

>  <r_i_glide_evdw>  (114) 
-17.2105

>  <r_i_glide_ecoul>  (114) 
-4.54531

>  <r_i_glide_erotb>  (114) 
0

>  <r_i_glide_esite>  (114) 
-0.0587051

>  <r_i_glide_emodel>  (114) 
-26.9342

>  <r_i_glide_energy>  (114) 
-21.7558

>  <r_i_glide_einternal>  (114) 
0

>  <r_i_glide_intrahb_reward>  (114) 
-0

>  <i_i_glide_confnum>  (114) 
1

>  <i_i_glide_posenum>  (114) 
7

>  <r_i_glide_eff_state_penalty>  (114) 
0

>  <ligand_id>  (114) 
21

>  <original_smiles>  (114) 
CN1CCC23C(=O)NC=C4C5C6CC4(C2C(=O)C65)C13

>  <smiles>  (114) 
[H]C1=C2C3([H])C4([H])C(=O)C5([H])C2(C([H])([H])C43[H])C2([H])C5(C(=O)N1[H])C([H])([H])C([H])([H])[N+]2([H])C([H])([H])[H]

$$$$
21:0:2
     RDKit          3D

 36 41  0  0  1  0  0  0  0  0999 V2000
    4.6617   -4.2888    0.9516 C   0  0  0  0  0  0  0  0  0  0  0  0
    3.5953   -3.2560    0.9940 N   0  0  1  0  0  0  0  0  0  0  0  0
    3.8554   -2.0573    1.8689 C   0  0  0  0  0  0  0  0  0  0  0  0
    3.6827   -0.7813    0.9573 C   0  0  0  0  0  0  0  0  0  0  0  0
    4.0072   -1.3271   -0.4520 C   0  0  2  0  0  0  0  0  0  0  0  0
    5.5524   -1.5040   -0.5712 C   0  0  0  0  0  0  0  0  0  0  0  0
    6.2489   -0.7075    0.0511 O   0  0  0  0  0  0  0  0  0  0  0  0
    6.1539   -2.5329   -1.2024 N   0  0  0  0  0  0  0  0  0  0  0  0
    5.6269   -3.3587   -2.1849 C   0  0  0  0  0  0  0  0  0  0  0  0
    4.3156   -3.4280   -2.4768 C   0  0  0  0  0  0  0  0  0  0  0  0
    3.8749   -3.3186   -3.8778 C   0  0  1  0  0  0  0  0  0  0  0  0
    2.4086   -3.0773   -3.9064 C   0  0  1  0  0  0  0  0  0  0  0  0
    1.9052   -3.3057   -2.4987 C   0  0  0  0  0  0  0  0  0  0  0  0
    3.1231   -2.8669   -1.7084 C   0  0  2  0  0  0  0  0  0  0  0  0
    3.2153   -1.3050   -1.8159 C   0  0  2  0  0  0  0  0  0  0  0  0
    3.6809   -0.8636   -3.1897 C   0  0  0  0  0  0  0  0  0  0  0  0
    4.2050    0.1903   -3.5041 O   0  0  0  0  0  0  0  0  0  0  0  0
    3.3747   -1.9264   -4.2493 C   0  0  1  0  0  0  0  0  0  0  0  0
    3.1551   -2.5672   -0.2327 C   0  0  1  0  0  0  0  0  0  0  0  0
    5.6578   -3.8704    0.8917 H   0  0  0  0  0  0  0  0  0  0  0  0
    4.5045   -4.9784    0.1261 H   0  0  0  0  0  0  0  0  0  0  0  0
    4.6324   -4.8640    1.8726 H   0  0  0  0  0  0  0  0  0  0  0  0
    3.1581   -2.0463    2.7057 H   0  0  0  0  0  0  0  0  0  0  0  0
    4.8523   -2.1014    2.2982 H   0  0  0  0  0  0  0  0  0  0  0  0
    2.6579   -0.4104    1.0067 H   0  0  0  0  0  0  0  0  0  0  0  0
    4.3056    0.0466    1.2944 H   0  0  0  0  0  0  0  0  0  0  0  0
    7.1630   -2.5591   -1.1338 H   0  0  0  0  0  0  0  0  0  0  0  0
    6.3718   -3.6249   -2.9257 H   0  0  0  0  0  0  0  0  0  0  0  0
    4.3467   -3.9543   -4.6125 H   0  0  0  0  0  0  0  0  0  0  0  0
    1.8294   -3.5151   -4.7192 H   0  0  0  0  0  0  0  0  0  0  0  0
    1.0196   -2.7122   -2.3190 H   0  0  0  0  0  0  0  0  0  0  0  0
    1.6551   -4.3523   -2.3259 H   0  0  0  0  0  0  0  0  0  0  0  0
    2.2911   -0.7663   -1.7273 H   0  0  0  0  0  0  0  0  0  0  0  0
    3.4086   -1.5999   -5.2793 H   0  0  0  0  0  0  0  0  0  0  0  0
    2.1315   -2.3271    0.0480 H   0  0  0  0  0  0  0  0  0  0  0  0
    2.7785   -3.7295    1.3569 H   0  0  0  0  0  0  0  0  0  0  0  0
  1  2  1  0
  1 20  1  0
  1 21  1  0
  1 22  1  0
  2 19  1  0
  2  3  1  0
  2 36  1  1
  3  4  1  0
  3 23  1  0
  3 24  1  0
  5  4  1  1
  4 25  1  0
  4 26  1  0
  5 15  1  0
  5 19  1  0
  5  6  1  0
  6  7  2  0
  6  8  1  0
  8  9  1  0
  8 27  1  0
  9 10  2  0
  9 28  1  0
 10 14  1  0
 10 11  1  0
 11 18  1  0
 11 12  1  0
 11 29  1  6
 12 18  1  0
 12 13  1  0
 12 30  1  6
 14 13  1  1
 13 31  1  0
 13 32  1  0
 14 15  1  0
 14 19  1  0
 15 16  1  0
 15 33  1  1
 16 17  2  0
 16 18  1  0
 18 34  1  6
 19 35  1  1
M  CHG  1   2   1
M  END
>  <i_m_ct_stereo_status>  (115) 
1

>  <s_m_source_file>  (115) 
/var/tmp/pbs.5076255.sched01/tmp44bw07az/09l6mph0o.sdf

>  <i_m_source_file_index>  (115) 
45

>  <i_lp_mmshare_version>  (115) 
48012

>  <i_f3d_flags>  (115) 
0

>  <s_epik_input>  (115) 
W0NIMl0xW0NIMl1OKFtDSDNdKVtDQEBIXTJbQ0BAXTMoW0NASF00W0NAQF0xMjUpQyg9W0NIXVtOSF1DNT1PKVtDQEhdNltDQEBIXShbQ0gyXTMpW0NASF02QzQ9Tw==

>  <s_epik_cmdline>  (115) 
J2VwaWtfcHl0aG9uJywgJy1waHQnLCAnMi4wJywgJy1waCcsICc3LjAnLCAnLXRuJywgJzgnLCAnLW1hJywgJzIwMCcsICctaW1hZScsICc8aW5maWxlLm1hZT4nLCAnLW9tYWUnLCAnPG91dGZpbGUubWFlPic=

>  <r_lp_tautomer_probability>  (115) 
1

>  <r_epik_Ionization_Penalty>  (115) 
0.0712091

>  <r_epik_Ionization_Penalty_Charging>  (115) 
0.0712074

>  <r_epik_Ionization_Penalty_Neutral>  (115) 
1.69988e-06

>  <r_epik_State_Penalty>  (115) 
0.0624919

>  <r_epik_Charging_Adjusted_Penalty>  (115) 
0.133699

>  <i_epik_Tot_Q>  (115) 
1

>  <i_epik_Tot_abs_Q>  (115) 
1

>  <s_lp_Force_Field>  (115) 
OPLS3e

>  <r_lp_Energy>  (115) 
126.467

>  <b_lp_Chiralities_Consistent>  (115) 
1

>  <s_lp_Variant>  (115) 
21:0-1

>  <s_i_glide_gridfile>  (115) 
pfpi4k_grid

>  <i_i_glide_lignum>  (115) 
45

>  <i_i_glide_rotatable_bonds>  (115) 
0

>  <r_i_docking_score>  (115) 
-3.95315

>  <r_i_glide_ligand_efficiency>  (115) 
-0.20806

>  <r_i_glide_ligand_efficiency_sa>  (115) 
-0.555188

>  <r_i_glide_ligand_efficiency_ln>  (115) 
-1.00221

>  <r_i_glide_gscore>  (115) 
-3.95315

>  <r_i_glide_lipo>  (115) 
-0.68157

>  <r_i_glide_hbond>  (115) 
-0.0160695

>  <r_i_glide_metal>  (115) 
-0

>  <r_i_glide_rewards>  (115) 
-1.80704

>  <r_i_glide_evdw>  (115) 
-18.857

>  <r_i_glide_ecoul>  (115) 
-2.92444

>  <r_i_glide_erotb>  (115) 
0

>  <r_i_glide_esite>  (115) 
-0.0669507

>  <r_i_glide_emodel>  (115) 
-26.1052

>  <r_i_glide_energy>  (115) 
-21.7814

>  <r_i_glide_einternal>  (115) 
0

>  <r_i_glide_intrahb_reward>  (115) 
-0

>  <i_i_glide_confnum>  (115) 
1

>  <i_i_glide_posenum>  (115) 
11

>  <r_i_glide_eff_state_penalty>  (115) 
0

>  <ligand_id>  (115) 
21

>  <original_smiles>  (115) 
CN1CCC23C(=O)NC=C4C5C6CC4(C2C(=O)C65)C13

>  <smiles>  (115) 
[H]C1=C2C3([H])C4([H])C(=O)C5([H])C2(C([H])([H])C43[H])C2([H])C5(C(=O)N1[H])C([H])([H])C([H])([H])[N+]2([H])C([H])([H])[H]

$$$$
21:1:0
     RDKit          3D

 35 40  0  0  1  0  0  0  0  0999 V2000
    2.4771   -2.1330   -3.1582 C   0  0  0  0  0  0  0  0  0  0  0  0
    3.7826   -2.2137   -2.5503 N   0  0  0  0  0  0  0  0  0  0  0  0
    4.8383   -2.6252   -3.4869 C   0  0  0  0  0  0  0  0  0  0  0  0
    5.7955   -3.5996   -2.7105 C   0  0  0  0  0  0  0  0  0  0  0  0
    5.3790   -3.4517   -1.2492 C   0  0  2  0  0  0  0  0  0  0  0  0
    6.0412   -2.1705   -0.6563 C   0  0  0  0  0  0  0  0  0  0  0  0
    7.2255   -1.9605   -0.9059 O   0  0  0  0  0  0  0  0  0  0  0  0
    5.3470   -1.2261    0.0208 N   0  0  0  0  0  0  0  0  0  0  0  0
    4.2681   -1.4772    0.8693 C   0  0  0  0  0  0  0  0  0  0  0  0
    3.5651   -2.6142    0.8393 C   0  0  0  0  0  0  0  0  0  0  0  0
    3.2461   -3.3719    2.0542 C   0  0  1  0  0  0  0  0  0  0  0  0
    2.6584   -4.6794    1.6601 C   0  0  1  0  0  0  0  0  0  0  0  0
    2.3900   -4.6163    0.1672 C   0  0  0  0  0  0  0  0  0  0  0  0
    3.5161   -3.6984   -0.2445 C   0  0  2  0  0  0  0  0  0  0  0  0
    4.8409   -4.5143   -0.2269 C   0  0  2  0  0  0  0  0  0  0  0  0
    5.2886   -4.7192    1.2239 C   0  0  0  0  0  0  0  0  0  0  0  0
    6.4381   -4.8475    1.6473 O   0  0  0  0  0  0  0  0  0  0  0  0
    4.1041   -4.6306    2.2153 C   0  0  1  0  0  0  0  0  0  0  0  0
    3.9223   -3.3327   -1.6457 C   0  0  1  0  0  0  0  0  0  0  0  0
    2.4352   -1.2781   -3.8276 H   0  0  0  0  0  0  0  0  0  0  0  0
    1.7851   -1.9764   -2.3441 H   0  0  0  0  0  0  0  0  0  0  0  0
    2.1862   -3.0335   -3.6947 H   0  0  0  0  0  0  0  0  0  0  0  0
    4.4316   -3.1137   -4.3724 H   0  0  0  0  0  0  0  0  0  0  0  0
    5.3502   -1.7311   -3.8077 H   0  0  0  0  0  0  0  0  0  0  0  0
    5.5891   -4.6060   -3.0633 H   0  0  0  0  0  0  0  0  0  0  0  0
    6.8449   -3.3938   -2.9137 H   0  0  0  0  0  0  0  0  0  0  0  0
    5.8708   -0.3865    0.2369 H   0  0  0  0  0  0  0  0  0  0  0  0
    4.3420   -0.8796    1.7832 H   0  0  0  0  0  0  0  0  0  0  0  0
    2.8811   -2.8183    2.9136 H   0  0  0  0  0  0  0  0  0  0  0  0
    1.8900   -5.0943    2.3032 H   0  0  0  0  0  0  0  0  0  0  0  0
    2.4317   -5.6054   -0.2836 H   0  0  0  0  0  0  0  0  0  0  0  0
    1.4368   -4.1703   -0.0787 H   0  0  0  0  0  0  0  0  0  0  0  0
    4.7328   -5.4738   -0.7270 H   0  0  0  0  0  0  0  0  0  0  0  0
    4.2530   -5.0069    3.2293 H   0  0  0  0  0  0  0  0  0  0  0  0
    3.6078   -4.2035   -2.2197 H   0  0  0  0  0  0  0  0  0  0  0  0
  1  2  1  0
  1 20  1  0
  1 21  1  0
  1 22  1  0
  2 19  1  0
  2  3  1  0
  3  4  1  0
  3 23  1  0
  3 24  1  0
  5  4  1  6
  4 25  1  0
  4 26  1  0
  5 15  1  0
  5 19  1  0
  5  6  1  0
  6  7  2  0
  6  8  1  0
  8  9  1  0
  8 27  1  0
  9 10  2  0
  9 28  1  0
 10 14  1  0
 10 11  1  0
 11 18  1  0
 11 12  1  0
 11 29  1  1
 12 18  1  0
 12 13  1  0
 12 30  1  1
 14 13  1  6
 13 31  1  0
 13 32  1  0
 14 15  1  0
 14 19  1  0
 15 16  1  0
 15 33  1  6
 16 17  2  0
 16 18  1  0
 18 34  1  1
 19 35  1  6
M  END
>  <i_m_ct_stereo_status>  (116) 
1

>  <s_m_source_file>  (116) 
/var/tmp/pbs.5076255.sched01/tmp44bw07az/09l6mph0o.sdf

>  <i_m_source_file_index>  (116) 
46

>  <i_lp_mmshare_version>  (116) 
48012

>  <i_f3d_flags>  (116) 
0

>  <s_epik_input>  (116) 
W0NIMl0xW0NIMl1OKFtDSDNdKVtDQEBIXTJbQ0BAXTMoW0NASF00W0NAQF0xMjUpQyg9W0NIXVtOSF1DNT1PKVtDQEhdNltDQEBIXShbQ0gyXTMpW0NASF02QzQ9Tw==

>  <s_epik_cmdline>  (116) 
J2VwaWtfcHl0aG9uJywgJy1waHQnLCAnMi4wJywgJy1waCcsICc3LjAnLCAnLXRuJywgJzgnLCAnLW1hJywgJzIwMCcsICctaW1hZScsICc8aW5maWxlLm1hZT4nLCAnLW9tYWUnLCAnPG91dGZpbGUubWFlPic=

>  <r_lp_tautomer_probability>  (116) 
1

>  <r_epik_Ionization_Penalty>  (116) 
1.29056

>  <r_epik_Ionization_Penalty_Charging>  (116) 
0

>  <r_epik_Ionization_Penalty_Neutral>  (116) 
1.29056

>  <r_epik_State_Penalty>  (116) 
1.36364

>  <r_epik_Charging_Adjusted_Penalty>  (116) 
1.36364

>  <i_epik_Tot_Q>  (116) 
0

>  <i_epik_Tot_abs_Q>  (116) 
0

>  <s_lp_Force_Field>  (116) 
OPLS3e

>  <r_lp_Energy>  (116) 
112.239

>  <b_lp_Chiralities_Consistent>  (116) 
1

>  <s_lp_Variant>  (116) 
21:0-2

>  <s_i_glide_gridfile>  (116) 
pfpi4k_grid

>  <i_i_glide_lignum>  (116) 
46

>  <i_i_glide_rotatable_bonds>  (116) 
0

>  <r_i_docking_score>  (116) 
-3.68191

>  <r_i_glide_ligand_efficiency>  (116) 
-0.193785

>  <r_i_glide_ligand_efficiency_sa>  (116) 
-0.517096

>  <r_i_glide_ligand_efficiency_ln>  (116) 
-0.933444

>  <r_i_glide_gscore>  (116) 
-3.68191

>  <r_i_glide_lipo>  (116) 
-0.421691

>  <r_i_glide_hbond>  (116) 
-0.16

>  <r_i_glide_metal>  (116) 
-0

>  <r_i_glide_rewards>  (116) 
-1.73058

>  <r_i_glide_evdw>  (116) 
-13.9258

>  <r_i_glide_ecoul>  (116) 
-4.26721

>  <r_i_glide_erotb>  (116) 
0

>  <r_i_glide_esite>  (116) 
-0.0332683

>  <r_i_glide_emodel>  (116) 
-22.2822

>  <r_i_glide_energy>  (116) 
-18.1931

>  <r_i_glide_einternal>  (116) 
0

>  <r_i_glide_intrahb_reward>  (116) 
-0

>  <i_i_glide_confnum>  (116) 
1

>  <i_i_glide_posenum>  (116) 
5

>  <r_i_glide_eff_state_penalty>  (116) 
0

>  <ligand_id>  (116) 
21

>  <original_smiles>  (116) 
CN1CCC23C(=O)NC=C4C5C6CC4(C2C(=O)C65)C13

>  <smiles>  (116) 
[H]C1=C2C3([H])C4([H])C(=O)C5([H])C6(C(=O)N1[H])C([H])([H])C([H])([H])N(C([H])([H])[H])C6([H])C25C([H])([H])C43[H]

$$$$
21:1:1
     RDKit          3D

 35 40  0  0  1  0  0  0  0  0999 V2000
    5.3713   -1.4372    2.1242 C   0  0  0  0  0  0  0  0  0  0  0  0
    5.3256   -2.6758    1.3761 N   0  0  0  0  0  0  0  0  0  0  0  0
    6.4573   -3.5971    1.6174 C   0  0  0  0  0  0  0  0  0  0  0  0
    6.8752   -4.2357    0.2378 C   0  0  0  0  0  0  0  0  0  0  0  0
    5.6971   -3.8852   -0.6630 C   0  0  2  0  0  0  0  0  0  0  0  0
    4.5460   -4.8978   -0.3457 C   0  0  0  0  0  0  0  0  0  0  0  0
    4.8169   -6.0857   -0.1861 O   0  0  0  0  0  0  0  0  0  0  0  0
    3.2664   -4.5046   -0.1459 N   0  0  0  0  0  0  0  0  0  0  0  0
    2.6440   -3.4259   -0.7730 C   0  0  0  0  0  0  0  0  0  0  0  0
    3.3145   -2.4220   -1.3485 C   0  0  0  0  0  0  0  0  0  0  0  0
    2.9489   -1.9051   -2.6734 C   0  0  1  0  0  0  0  0  0  0  0  0
    3.9861   -0.9361   -3.1190 C   0  0  1  0  0  0  0  0  0  0  0  0
    4.8632   -0.6872   -1.9151 C   0  0  0  0  0  0  0  0  0  0  0  0
    4.7893   -2.0396   -1.2352 C   0  0  2  0  0  0  0  0  0  0  0  0
    5.6401   -3.0817   -2.0311 C   0  0  2  0  0  0  0  0  0  0  0  0
    4.8947   -3.4266   -3.3377 C   0  0  0  0  0  0  0  0  0  0  0  0
    4.9314   -4.4382   -4.0314 O   0  0  0  0  0  0  0  0  0  0  0  0
    3.9185   -2.3237   -3.7734 C   0  0  1  0  0  0  0  0  0  0  0  0
    5.5656   -2.5067   -0.0353 C   0  0  1  0  0  0  0  0  0  0  0  0
    5.2189   -1.6435    3.1806 H   0  0  0  0  0  0  0  0  0  0  0  0
    4.5628   -0.7877    1.7933 H   0  0  0  0  0  0  0  0  0  0  0  0
    6.3128   -0.9047    2.0016 H   0  0  0  0  0  0  0  0  0  0  0  0
    7.3096   -3.0617    2.0156 H   0  0  0  0  0  0  0  0  0  0  0  0
    6.1597   -4.3573    2.3382 H   0  0  0  0  0  0  0  0  0  0  0  0
    7.7977   -3.7864   -0.1314 H   0  0  0  0  0  0  0  0  0  0  0  0
    7.0831   -5.2996    0.3291 H   0  0  0  0  0  0  0  0  0  0  0  0
    2.6577   -5.2694    0.0987 H   0  0  0  0  0  0  0  0  0  0  0  0
    1.6424   -3.6812   -1.1118 H   0  0  0  0  0  0  0  0  0  0  0  0
    1.8879   -1.8250   -2.8981 H   0  0  0  0  0  0  0  0  0  0  0  0
    3.6935   -0.0916   -3.7286 H   0  0  0  0  0  0  0  0  0  0  0  0
    5.8497   -0.4192   -2.2429 H   0  0  0  0  0  0  0  0  0  0  0  0
    4.4521    0.1138   -1.3030 H   0  0  0  0  0  0  0  0  0  0  0  0
    6.6310   -2.6939   -2.2601 H   0  0  0  0  0  0  0  0  0  0  0  0
    3.5105   -2.3921   -4.7781 H   0  0  0  0  0  0  0  0  0  0  0  0
    6.5086   -1.9427   -0.1097 H   0  0  0  0  0  0  0  0  0  0  0  0
  1  2  1  0
  1 20  1  0
  1 21  1  0
  1 22  1  0
  2 19  1  0
  2  3  1  0
  3  4  1  0
  3 23  1  0
  3 24  1  0
  5  4  1  1
  4 25  1  0
  4 26  1  0
  5 15  1  0
  5 19  1  0
  5  6  1  0
  6  7  2  0
  6  8  1  0
  8  9  1  0
  8 27  1  0
  9 10  2  0
  9 28  1  0
 10 14  1  0
 10 11  1  0
 11 18  1  0
 11 12  1  0
 11 29  1  6
 12 18  1  0
 12 13  1  0
 12 30  1  6
 14 13  1  6
 13 31  1  0
 13 32  1  0
 14 15  1  0
 14 19  1  0
 15 16  1  0
 15 33  1  6
 16 17  2  0
 16 18  1  0
 18 34  1  6
 19 35  1  1
M  END
>  <i_m_ct_stereo_status>  (117) 
1

>  <s_m_source_file>  (117) 
/var/tmp/pbs.5076255.sched01/tmp44bw07az/09l6mph0o.sdf

>  <i_m_source_file_index>  (117) 
46

>  <i_lp_mmshare_version>  (117) 
48012

>  <i_f3d_flags>  (117) 
0

>  <s_epik_input>  (117) 
W0NIMl0xW0NIMl1OKFtDSDNdKVtDQEBIXTJbQ0BAXTMoW0NASF00W0NAQF0xMjUpQyg9W0NIXVtOSF1DNT1PKVtDQEhdNltDQEBIXShbQ0gyXTMpW0NASF02QzQ9Tw==

>  <s_epik_cmdline>  (117) 
J2VwaWtfcHl0aG9uJywgJy1waHQnLCAnMi4wJywgJy1waCcsICc3LjAnLCAnLXRuJywgJzgnLCAnLW1hJywgJzIwMCcsICctaW1hZScsICc8aW5maWxlLm1hZT4nLCAnLW9tYWUnLCAnPG91dGZpbGUubWFlPic=

>  <r_lp_tautomer_probability>  (117) 
1

>  <r_epik_Ionization_Penalty>  (117) 
1.29056

>  <r_epik_Ionization_Penalty_Charging>  (117) 
0

>  <r_epik_Ionization_Penalty_Neutral>  (117) 
1.29056

>  <r_epik_State_Penalty>  (117) 
1.36364

>  <r_epik_Charging_Adjusted_Penalty>  (117) 
1.36364

>  <i_epik_Tot_Q>  (117) 
0

>  <i_epik_Tot_abs_Q>  (117) 
0

>  <s_lp_Force_Field>  (117) 
OPLS3e

>  <r_lp_Energy>  (117) 
112.239

>  <b_lp_Chiralities_Consistent>  (117) 
1

>  <s_lp_Variant>  (117) 
21:0-2

>  <s_i_glide_gridfile>  (117) 
pfpi4k_grid

>  <i_i_glide_lignum>  (117) 
46

>  <i_i_glide_rotatable_bonds>  (117) 
0

>  <r_i_docking_score>  (117) 
-3.38982

>  <r_i_glide_ligand_efficiency>  (117) 
-0.178412

>  <r_i_glide_ligand_efficiency_sa>  (117) 
-0.476074

>  <r_i_glide_ligand_efficiency_ln>  (117) 
-0.859392

>  <r_i_glide_gscore>  (117) 
-3.38982

>  <r_i_glide_lipo>  (117) 
-0.722747

>  <r_i_glide_hbond>  (117) 
0

>  <r_i_glide_metal>  (117) 
-0

>  <r_i_glide_rewards>  (117) 
-1.9572

>  <r_i_glide_evdw>  (117) 
-15.8782

>  <r_i_glide_ecoul>  (117) 
0.893068

>  <r_i_glide_erotb>  (117) 
0

>  <r_i_glide_esite>  (117) 
-0.0499234

>  <r_i_glide_emodel>  (117) 
-18.6859

>  <r_i_glide_energy>  (117) 
-14.9851

>  <r_i_glide_einternal>  (117) 
0

>  <r_i_glide_intrahb_reward>  (117) 
-0

>  <i_i_glide_confnum>  (117) 
1

>  <i_i_glide_posenum>  (117) 
19

>  <r_i_glide_eff_state_penalty>  (117) 
0

>  <ligand_id>  (117) 
21

>  <original_smiles>  (117) 
CN1CCC23C(=O)NC=C4C5C6CC4(C2C(=O)C65)C13

>  <smiles>  (117) 
[H]C1=C2C3([H])C4([H])C(=O)C5([H])C6(C(=O)N1[H])C([H])([H])C([H])([H])N(C([H])([H])[H])C6([H])C25C([H])([H])C43[H]

$$$$
21:1:2
     RDKit          3D

 35 40  0  0  1  0  0  0  0  0999 V2000
    2.5236   -2.4305   -3.0227 C   0  0  0  0  0  0  0  0  0  0  0  0
    3.6834   -2.2148   -2.1816 N   0  0  0  0  0  0  0  0  0  0  0  0
    4.9761   -2.2374   -2.8954 C   0  0  0  0  0  0  0  0  0  0  0  0
    6.0178   -2.9840   -1.9720 C   0  0  0  0  0  0  0  0  0  0  0  0
    5.3076   -3.0743   -0.6197 C   0  0  2  0  0  0  0  0  0  0  0  0
    5.4673   -1.7024    0.1178 C   0  0  0  0  0  0  0  0  0  0  0  0
    6.5721   -1.1489    0.0847 O   0  0  0  0  0  0  0  0  0  0  0  0
    4.4340   -1.0397    0.6784 N   0  0  0  0  0  0  0  0  0  0  0  0
    3.3313   -1.6430    1.2954 C   0  0  0  0  0  0  0  0  0  0  0  0
    2.9914   -2.9172    1.0919 C   0  0  0  0  0  0  0  0  0  0  0  0
    2.6689   -3.8309    2.1966 C   0  0  1  0  0  0  0  0  0  0  0  0
    2.5401   -5.2118    1.6661 C   0  0  1  0  0  0  0  0  0  0  0  0
    2.5234   -5.0982    0.1546 C   0  0  0  0  0  0  0  0  0  0  0  0
    3.4208   -3.8886   -0.0142 C   0  0  2  0  0  0  0  0  0  0  0  0
    4.8924   -4.3223    0.2439 C   0  0  2  0  0  0  0  0  0  0  0  0
    5.1080   -4.5222    1.7458 C   0  0  0  0  0  0  0  0  0  0  0  0
    6.1542   -4.4008    2.3837 O   0  0  0  0  0  0  0  0  0  0  0  0
    3.7897   -4.8264    2.4895 C   0  0  1  0  0  0  0  0  0  0  0  0
    3.9683   -3.3183   -1.2940 C   0  0  1  0  0  0  0  0  0  0  0  0
    2.3867   -1.5674   -3.6697 H   0  0  0  0  0  0  0  0  0  0  0  0
    1.6408   -2.5268   -2.3923 H   0  0  0  0  0  0  0  0  0  0  0  0
    2.6082   -3.3265   -3.6348 H   0  0  0  0  0  0  0  0  0  0  0  0
    4.8976   -2.7336   -3.8636 H   0  0  0  0  0  0  0  0  0  0  0  0
    5.2609   -1.2047   -3.0706 H   0  0  0  0  0  0  0  0  0  0  0  0
    6.2122   -3.9695   -2.3794 H   0  0  0  0  0  0  0  0  0  0  0  0
    6.9860   -2.4821   -1.9601 H   0  0  0  0  0  0  0  0  0  0  0  0
    4.6522   -0.1044    1.0035 H   0  0  0  0  0  0  0  0  0  0  0  0
    3.0636   -1.1241    2.2232 H   0  0  0  0  0  0  0  0  0  0  0  0
    2.0116   -3.4645    2.9777 H   0  0  0  0  0  0  0  0  0  0  0  0
    1.8198   -5.8716    2.1344 H   0  0  0  0  0  0  0  0  0  0  0  0
    2.9175   -5.9997   -0.3079 H   0  0  0  0  0  0  0  0  0  0  0  0
    1.5194   -4.9148   -0.2187 H   0  0  0  0  0  0  0  0  0  0  0  0
    5.1517   -5.2284   -0.2912 H   0  0  0  0  0  0  0  0  0  0  0  0
    3.8482   -5.2269    3.5021 H   0  0  0  0  0  0  0  0  0  0  0  0
    4.0228   -4.1954   -1.9383 H   0  0  0  0  0  0  0  0  0  0  0  0
  1  2  1  0
  1 20  1  0
  1 21  1  0
  1 22  1  0
  2 19  1  0
  2  3  1  0
  3  4  1  0
  3 23  1  0
  3 24  1  0
  5  4  1  6
  4 25  1  0
  4 26  1  0
  5 15  1  0
  5 19  1  0
  5  6  1  0
  6  7  2  0
  6  8  1  0
  8  9  1  0
  8 27  1  0
  9 10  2  0
  9 28  1  0
 10 14  1  0
 10 11  1  0
 11 18  1  0
 11 12  1  0
 11 29  1  1
 12 18  1  0
 12 13  1  0
 12 30  1  1
 14 13  1  6
 13 31  1  0
 13 32  1  0
 14 15  1  0
 14 19  1  0
 15 16  1  0
 15 33  1  6
 16 17  2  0
 16 18  1  0
 18 34  1  1
 19 35  1  6
M  END
>  <i_m_ct_stereo_status>  (118) 
1

>  <s_m_source_file>  (118) 
/var/tmp/pbs.5076255.sched01/tmp44bw07az/09l6mph0o.sdf

>  <i_m_source_file_index>  (118) 
46

>  <i_lp_mmshare_version>  (118) 
48012

>  <i_f3d_flags>  (118) 
0

>  <s_epik_input>  (118) 
W0NIMl0xW0NIMl1OKFtDSDNdKVtDQEBIXTJbQ0BAXTMoW0NASF00W0NAQF0xMjUpQyg9W0NIXVtOSF1DNT1PKVtDQEhdNltDQEBIXShbQ0gyXTMpW0NASF02QzQ9Tw==

>  <s_epik_cmdline>  (118) 
J2VwaWtfcHl0aG9uJywgJy1waHQnLCAnMi4wJywgJy1waCcsICc3LjAnLCAnLXRuJywgJzgnLCAnLW1hJywgJzIwMCcsICctaW1hZScsICc8aW5maWxlLm1hZT4nLCAnLW9tYWUnLCAnPG91dGZpbGUubWFlPic=

>  <r_lp_tautomer_probability>  (118) 
1

>  <r_epik_Ionization_Penalty>  (118) 
1.29056

>  <r_epik_Ionization_Penalty_Charging>  (118) 
0

>  <r_epik_Ionization_Penalty_Neutral>  (118) 
1.29056

>  <r_epik_State_Penalty>  (118) 
1.36364

>  <r_epik_Charging_Adjusted_Penalty>  (118) 
1.36364

>  <i_epik_Tot_Q>  (118) 
0

>  <i_epik_Tot_abs_Q>  (118) 
0

>  <s_lp_Force_Field>  (118) 
OPLS3e

>  <r_lp_Energy>  (118) 
112.239

>  <b_lp_Chiralities_Consistent>  (118) 
1

>  <s_lp_Variant>  (118) 
21:0-2

>  <s_i_glide_gridfile>  (118) 
pfpi4k_grid

>  <i_i_glide_lignum>  (118) 
46

>  <i_i_glide_rotatable_bonds>  (118) 
0

>  <r_i_docking_score>  (118) 
-3.11266

>  <r_i_glide_ligand_efficiency>  (118) 
-0.163824

>  <r_i_glide_ligand_efficiency_sa>  (118) 
-0.437149

>  <r_i_glide_ligand_efficiency_ln>  (118) 
-0.789127

>  <r_i_glide_gscore>  (118) 
-3.11266

>  <r_i_glide_lipo>  (118) 
-0.272313

>  <r_i_glide_hbond>  (118) 
-0.0482052

>  <r_i_glide_metal>  (118) 
-0

>  <r_i_glide_rewards>  (118) 
-1.7269

>  <r_i_glide_evdw>  (118) 
-19.0861

>  <r_i_glide_ecoul>  (118) 
-0.739619

>  <r_i_glide_erotb>  (118) 
0

>  <r_i_glide_esite>  (118) 
0

>  <r_i_glide_emodel>  (118) 
-23.3624

>  <r_i_glide_energy>  (118) 
-19.8257

>  <r_i_glide_einternal>  (118) 
0

>  <r_i_glide_intrahb_reward>  (118) 
-0

>  <i_i_glide_confnum>  (118) 
2

>  <i_i_glide_posenum>  (118) 
28

>  <r_i_glide_eff_state_penalty>  (118) 
0

>  <ligand_id>  (118) 
21

>  <original_smiles>  (118) 
CN1CCC23C(=O)NC=C4C5C6CC4(C2C(=O)C65)C13

>  <smiles>  (118) 
[H]C1=C2C3([H])C4([H])C(=O)C5([H])C6(C(=O)N1[H])C([H])([H])C([H])([H])N(C([H])([H])[H])C6([H])C25C([H])([H])C43[H]

$$$$
22:0:0
     RDKit          3D

 94 99  0  0  1  0  0  0  0  0999 V2000
    3.5360    0.8528    3.7849 C   0  0  0  0  0  0  0  0  0  0  0  0
    3.1346    0.5112    2.3346 C   0  0  0  0  0  0  0  0  0  0  0  0
    1.6131    0.1930    2.2684 C   0  0  0  0  0  0  0  0  0  0  0  0
    4.1279   -0.4679    1.5993 C   0  0  2  0  0  0  0  0  0  0  0  0
    3.7581   -0.7614    0.1403 C   0  0  0  0  0  0  0  0  0  0  0  0
    4.1659   -2.1973   -0.1610 C   0  0  1  0  0  0  0  0  0  0  0  0
    4.9096   -2.1737   -1.3595 O   0  0  0  0  0  0  0  0  0  0  0  0
    4.9812   -2.7379    1.0421 C   0  0  1  0  0  0  0  0  0  0  0  0
    4.5111   -1.8414    2.2322 C   0  0  1  0  0  0  0  0  0  0  0  0
    5.6441   -1.6007    3.2595 C   0  0  0  0  0  0  0  0  0  0  0  0
    3.2931   -2.5468    2.8435 C   0  0  0  0  0  0  0  0  0  0  0  0
    3.5764   -3.9538    3.3374 C   0  0  0  0  0  0  0  0  0  0  0  0
    3.9396   -4.9814    2.2360 C   0  0  1  0  0  0  0  0  0  0  0  0
    2.6339   -5.2638    1.4479 C   0  0  0  0  0  0  0  0  0  0  0  0
    5.0101   -4.3418    1.2657 C   0  0  1  0  0  0  0  0  0  0  0  0
    4.9773   -5.0062   -0.1441 C   0  0  0  0  0  0  0  0  0  0  0  0
    6.3267   -4.7499    1.9700 C   0  0  0  0  0  0  0  0  0  0  0  0
    6.1441   -5.8928    3.0157 C   0  0  2  0  0  0  0  0  0  0  0  0
    6.7202   -5.4325    4.4057 C   0  0  0  0  0  0  0  0  0  0  0  0
    6.8204   -6.4060    5.4256 O   0  0  0  0  0  0  0  0  0  0  0  0
    6.9458   -7.1172    2.5356 C   0  0  0  0  0  0  0  0  0  0  0  0
    6.0213   -7.8126    1.5687 C   0  0  0  0  0  0  0  0  0  0  0  0
    4.6470   -7.5975    2.1512 C   0  0  0  0  0  0  0  0  0  0  0  0
    3.8247   -8.6749    2.1713 C   0  0  0  0  0  0  0  0  0  0  0  0
    2.5011   -9.0745    2.8394 C   0  0  2  0  0  0  0  0  0  0  0  0
    2.5611  -10.6380    2.8738 C   0  0  0  0  0  0  0  0  0  0  0  0
    1.3742   -8.6556    1.8811 C   0  0  0  0  0  0  0  0  0  0  0  0
   -0.0510   -8.9581    2.3741 C   0  0  0  0  0  0  0  0  0  0  0  0
   -0.3071   -8.3729    3.7646 C   0  0  1  0  0  0  0  0  0  0  0  0
   -1.6462   -8.6495    4.1471 O   0  0  0  0  0  0  0  0  0  0  0  0
    0.7426   -8.8052    4.8292 C   0  0  1  0  0  0  0  0  0  0  0  0
    0.4166   -8.0051    6.1175 C   0  0  0  0  0  0  0  0  0  0  0  0
    0.5173  -10.2986    5.2149 C   0  0  0  0  0  0  0  0  0  0  0  0
    1.6999  -10.9190    5.6423 O   0  0  0  0  0  0  0  0  0  0  0  0
    2.2148   -8.4968    4.2860 C   0  0  2  0  0  0  0  0  0  0  0  0
    2.5556   -7.0040    4.4450 C   0  0  0  0  0  0  0  0  0  0  0  0
    4.0323   -6.6359    4.3229 C   0  0  0  0  0  0  0  0  0  0  0  0
    4.6016   -6.2703    2.9226 C   0  0  2  0  0  0  0  0  0  0  0  0
    3.4797   -0.0142    4.4451 H   0  0  0  0  0  0  0  0  0  0  0  0
    2.8655    1.5922    4.2250 H   0  0  0  0  0  0  0  0  0  0  0  0
    4.5484    1.2613    3.8408 H   0  0  0  0  0  0  0  0  0  0  0  0
    3.2423    1.4497    1.8007 H   0  0  0  0  0  0  0  0  0  0  0  0
    1.3403   -0.7960    2.6523 H   0  0  0  0  0  0  0  0  0  0  0  0
    1.2272    0.2757    1.2517 H   0  0  0  0  0  0  0  0  0  0  0  0
    1.0501    0.9250    2.8594 H   0  0  0  0  0  0  0  0  0  0  0  0
    5.0672    0.0808    1.5133 H   0  0  0  0  0  0  0  0  0  0  0  0
    2.6865   -0.6815   -0.0303 H   0  0  0  0  0  0  0  0  0  0  0  0
    4.2629   -0.0469   -0.5248 H   0  0  0  0  0  0  0  0  0  0  0  0
    3.2436   -2.7590   -0.3069 H   0  0  0  0  0  0  0  0  0  0  0  0
    4.3356   -1.8329   -2.0286 H   0  0  0  0  0  0  0  0  0  0  0  0
    6.0040   -2.4328    0.8176 H   0  0  0  0  0  0  0  0  0  0  0  0
    5.8909   -2.5103    3.7872 H   0  0  0  0  0  0  0  0  0  0  0  0
    5.4017   -0.8963    4.0494 H   0  0  0  0  0  0  0  0  0  0  0  0
    6.5401   -1.2089    2.7697 H   0  0  0  0  0  0  0  0  0  0  0  0
    2.9188   -2.0001    3.7056 H   0  0  0  0  0  0  0  0  0  0  0  0
    2.4936   -2.5990    2.1055 H   0  0  0  0  0  0  0  0  0  0  0  0
    4.3357   -3.8842    4.1001 H   0  0  0  0  0  0  0  0  0  0  0  0
    2.6810   -4.2668    3.8608 H   0  0  0  0  0  0  0  0  0  0  0  0
    2.7150   -6.1274    0.7807 H   0  0  0  0  0  0  0  0  0  0  0  0
    2.3507   -4.4220    0.8103 H   0  0  0  0  0  0  0  0  0  0  0  0
    1.7653   -5.4069    2.0857 H   0  0  0  0  0  0  0  0  0  0  0  0
    4.8199   -6.0684   -0.1025 H   0  0  0  0  0  0  0  0  0  0  0  0
    5.8843   -4.7999   -0.7085 H   0  0  0  0  0  0  0  0  0  0  0  0
    4.1452   -4.6743   -0.7536 H   0  0  0  0  0  0  0  0  0  0  0  0
    7.0936   -4.9765    1.2375 H   0  0  0  0  0  0  0  0  0  0  0  0
    6.6981   -3.8712    2.4658 H   0  0  0  0  0  0  0  0  0  0  0  0
    7.7432   -5.1187    4.2675 H   0  0  0  0  0  0  0  0  0  0  0  0
    6.1811   -4.5777    4.7988 H   0  0  0  0  0  0  0  0  0  0  0  0
    7.4271   -7.0745    5.1468 H   0  0  0  0  0  0  0  0  0  0  0  0
    7.9131   -6.8668    2.0926 H   0  0  0  0  0  0  0  0  0  0  0  0
    7.1466   -7.8193    3.3459 H   0  0  0  0  0  0  0  0  0  0  0  0
    6.1435   -7.3856    0.5790 H   0  0  0  0  0  0  0  0  0  0  0  0
    6.2899   -8.8730    1.4913 H   0  0  0  0  0  0  0  0  0  0  0  0
    4.2393   -9.4962    1.6039 H   0  0  0  0  0  0  0  0  0  0  0  0
    1.5886  -11.1169    2.9301 H   0  0  0  0  0  0  0  0  0  0  0  0
    3.1782  -11.0095    3.6887 H   0  0  0  0  0  0  0  0  0  0  0  0
    3.0085  -11.0777    1.9878 H   0  0  0  0  0  0  0  0  0  0  0  0
    1.4423   -7.5901    1.6984 H   0  0  0  0  0  0  0  0  0  0  0  0
    1.5783   -9.1317    0.9236 H   0  0  0  0  0  0  0  0  0  0  0  0
   -0.7515   -8.5073    1.6756 H   0  0  0  0  0  0  0  0  0  0  0  0
   -0.2625  -10.0244    2.3517 H   0  0  0  0  0  0  0  0  0  0  0  0
   -0.2414   -7.2899    3.6517 H   0  0  0  0  0  0  0  0  0  0  0  0
   -1.7347   -9.5815    4.4388 H   0  0  0  0  0  0  0  0  0  0  0  0
    1.1740   -8.1388    6.8905 H   0  0  0  0  0  0  0  0  0  0  0  0
   -0.5343   -8.3268    6.5362 H   0  0  0  0  0  0  0  0  0  0  0  0
    0.3053   -6.9412    5.9201 H   0  0  0  0  0  0  0  0  0  0  0  0
   -0.1933  -10.3788    6.0310 H   0  0  0  0  0  0  0  0  0  0  0  0
    0.0770  -10.8869    4.4141 H   0  0  0  0  0  0  0  0  0  0  0  0
    1.4872  -11.5410    6.3496 H   0  0  0  0  0  0  0  0  0  0  0  0
    2.9298   -8.9717    4.9554 H   0  0  0  0  0  0  0  0  0  0  0  0
    1.8960   -6.3751    3.8699 H   0  0  0  0  0  0  0  0  0  0  0  0
    2.3802   -6.7251    5.4738 H   0  0  0  0  0  0  0  0  0  0  0  0
    4.1954   -5.8186    5.0319 H   0  0  0  0  0  0  0  0  0  0  0  0
    4.6060   -7.4691    4.7503 H   0  0  0  0  0  0  0  0  0  0  0  0
  1  2  1  0
  1 39  1  0
  1 40  1  0
  1 41  1  0
  2  3  1  0
  2  4  1  0
  2 42  1  0
  3 43  1  0
  3 44  1  0
  3 45  1  0
  4  9  1  0
  4  5  1  0
  4 46  1  6
  5  6  1  0
  5 47  1  0
  5 48  1  0
  6  7  1  0
  6  8  1  0
  6 49  1  6
  7 50  1  0
  8 15  1  0
  8  9  1  0
  8 51  1  6
  9 10  1  1
  9 11  1  0
 10 52  1  0
 10 53  1  0
 10 54  1  0
 11 12  1  0
 11 55  1  0
 11 56  1  0
 12 13  1  0
 12 57  1  0
 12 58  1  0
 13 38  1  0
 13 14  1  6
 13 15  1  0
 14 59  1  0
 14 60  1  0
 14 61  1  0
 15 16  1  6
 15 17  1  0
 16 62  1  0
 16 63  1  0
 16 64  1  0
 17 18  1  0
 17 65  1  0
 17 66  1  0
 18 38  1  0
 18 19  1  1
 18 21  1  0
 19 20  1  0
 19 67  1  0
 19 68  1  0
 20 69  1  0
 21 22  1  0
 21 70  1  0
 21 71  1  0
 22 23  1  0
 22 72  1  0
 22 73  1  0
 23 38  1  0
 23 24  2  0
 24 25  1  0
 24 74  1  0
 25 35  1  0
 25 26  1  1
 25 27  1  0
 26 75  1  0
 26 76  1  0
 26 77  1  0
 27 28  1  0
 27 78  1  0
 27 79  1  0
 28 29  1  0
 28 80  1  0
 28 81  1  0
 29 30  1  0
 29 31  1  0
 29 82  1  6
 30 83  1  0
 31 32  1  1
 31 33  1  0
 31 35  1  0
 32 84  1  0
 32 85  1  0
 32 86  1  0
 33 34  1  0
 33 87  1  0
 33 88  1  0
 34 89  1  0
 35 36  1  0
 35 90  1  1
 36 37  1  0
 36 91  1  0
 36 92  1  0
 38 37  1  1
 37 93  1  0
 37 94  1  0
M  END
>  <i_m_ct_stereo_status>  (119) 
1

>  <s_m_source_file>  (119) 
/var/tmp/pbs.5076255.sched01/tmp44bw07az/09l6mph0o.sdf

>  <i_m_source_file_index>  (119) 
47

>  <i_lp_mmshare_version>  (119) 
48012

>  <i_f3d_flags>  (119) 
0

>  <s_epik_input>  (119) 
W09IXVtDQEBIXTFbQ0gyXVtDQEBIXShbQ0hdKFtDSDNdKVtDSDNdKVtDQEBdKFtDSDNdKShbQ0gyXVtDSDJdMilbQ0BIXTFbQ0BdKFtDSDNdKShbQ0BdMihbQ0BdMzQ1KVtDSDNdKVtDSDJdW0NAXTMoW0NIMl1bT0hdKVtDSDJdW0NIMl1DND1bQ0hdW0NAQF02KFtDSDNdKVtDQEBIXShbQ0gyXVtDSDJdNSlbQ0BdKFtDSDNdKShbQ0gyXVtPSF0pW0NASF0oW09IXSlbQ0gyXVtDSDJdNg==

>  <s_epik_cmdline>  (119) 
J2VwaWtfcHl0aG9uJywgJy1waHQnLCAnMi4wJywgJy1waCcsICc3LjAnLCAnLXRuJywgJzgnLCAnLW1hJywgJzIwMCcsICctaW1hZScsICc8aW5maWxlLm1hZT4nLCAnLW9tYWUnLCAnPG91dGZpbGUubWFlPic=

>  <r_lp_tautomer_probability>  (119) 
1

>  <r_epik_Ionization_Penalty>  (119) 
5.43004e-06

>  <r_epik_Ionization_Penalty_Charging>  (119) 
0

>  <r_epik_Ionization_Penalty_Neutral>  (119) 
5.43004e-06

>  <r_epik_State_Penalty>  (119) 
-0

>  <r_epik_Charging_Adjusted_Penalty>  (119) 
0

>  <i_epik_Tot_Q>  (119) 
0

>  <i_epik_Tot_abs_Q>  (119) 
0

>  <s_lp_Force_Field>  (119) 
OPLS3e

>  <r_lp_Energy>  (119) 
122.851

>  <b_lp_Chiralities_Consistent>  (119) 
1

>  <s_lp_Variant>  (119) 
22:0-1

>  <s_i_glide_gridfile>  (119) 
pfpi4k_grid

>  <i_i_glide_lignum>  (119) 
47

>  <i_i_glide_rotatable_bonds>  (119) 
7

>  <r_i_docking_score>  (119) 
-3.16536

>  <r_i_glide_ligand_efficiency>  (119) 
-0.0832988

>  <r_i_glide_ligand_efficiency_sa>  (119) 
-0.280049

>  <r_i_glide_ligand_efficiency_ln>  (119) 
-0.682544

>  <r_i_glide_gscore>  (119) 
-3.16536

>  <r_i_glide_lipo>  (119) 
-0.517323

>  <r_i_glide_hbond>  (119) 
-0.301414

>  <r_i_glide_metal>  (119) 
-0

>  <r_i_glide_rewards>  (119) 
0

>  <r_i_glide_evdw>  (119) 
-16.4696

>  <r_i_glide_ecoul>  (119) 
-11.1367

>  <r_i_glide_erotb>  (119) 
0.147361

>  <r_i_glide_esite>  (119) 
0

>  <r_i_glide_emodel>  (119) 
-27.4173

>  <r_i_glide_energy>  (119) 
-27.6063

>  <r_i_glide_einternal>  (119) 
10.5209

>  <r_i_glide_intrahb_reward>  (119) 
-0

>  <i_i_glide_confnum>  (119) 
5

>  <i_i_glide_posenum>  (119) 
6

>  <r_i_glide_eff_state_penalty>  (119) 
0

>  <ligand_id>  (119) 
22

>  <original_smiles>  (119) 
CC(C)C1CC(O)C2C1(C)CCC1(C)C2(C)CC2(CO)CCC3=CC4(C)CCC(O)C(C)(CO)C4CCC321

>  <smiles>  (119) 
[H]OC([H])([H])C1(C([H])([H])[H])C([H])(O[H])C([H])([H])C([H])([H])C2(C([H])([H])[H])C([H])=C3C([H])([H])C([H])([H])C4(C([H])([H])O[H])C([H])([H])C5(C([H])([H])[H])C6([H])C([H])(O[H])C([H])([H])C([H])(C([H])(C([H])([H])[H])C([H])([H])[H])C6(C([H])([H])[H])C([H])([H])C([H])([H])C5(C([H])([H])[H])C34C([H])([H])C([H])([H])C21[H]

$$$$
22:0:1
     RDKit          3D

 94 99  0  0  1  0  0  0  0  0999 V2000
    2.1002    2.3409    3.4107 C   0  0  0  0  0  0  0  0  0  0  0  0
    2.4018    0.9237    3.9431 C   0  0  0  0  0  0  0  0  0  0  0  0
    2.8605    1.0683    5.4102 C   0  0  0  0  0  0  0  0  0  0  0  0
    3.3953    0.1609    2.9988 C   0  0  2  0  0  0  0  0  0  0  0  0
    2.8784    0.0693    1.5577 C   0  0  0  0  0  0  0  0  0  0  0  0
    3.3477   -1.2680    0.9873 C   0  0  1  0  0  0  0  0  0  0  0  0
    3.9957   -1.0420   -0.2440 O   0  0  0  0  0  0  0  0  0  0  0  0
    4.2801   -1.9430    2.0252 C   0  0  1  0  0  0  0  0  0  0  0  0
    3.8497   -1.2852    3.3732 C   0  0  1  0  0  0  0  0  0  0  0  0
    5.0420   -1.1504    4.3628 C   0  0  0  0  0  0  0  0  0  0  0  0
    2.6745   -2.1275    3.9105 C   0  0  0  0  0  0  0  0  0  0  0  0
    3.0478   -3.5994    4.1234 C   0  0  0  0  0  0  0  0  0  0  0  0
    3.4428   -4.4133    2.8512 C   0  0  1  0  0  0  0  0  0  0  0  0
    2.1239   -4.6613    2.0818 C   0  0  0  0  0  0  0  0  0  0  0  0
    4.4199   -3.5495    1.9553 C   0  0  1  0  0  0  0  0  0  0  0  0
    4.3370   -3.9735    0.4457 C   0  0  0  0  0  0  0  0  0  0  0  0
    5.8064   -3.9783    2.5046 C   0  0  0  0  0  0  0  0  0  0  0  0
    5.7420   -5.3000    3.3300 C   0  0  2  0  0  0  0  0  0  0  0  0
    6.4407   -5.2070    4.7487 C   0  0  0  0  0  0  0  0  0  0  0  0
    6.0509   -4.1388    5.5813 O   0  0  0  0  0  0  0  0  0  0  0  0
    6.5477   -6.3815    2.5838 C   0  0  0  0  0  0  0  0  0  0  0  0
    5.6240   -6.9659    1.5456 C   0  0  0  0  0  0  0  0  0  0  0  0
    4.2775   -6.9371    2.2314 C   0  0  0  0  0  0  0  0  0  0  0  0
    3.5133   -8.0488    2.0945 C   0  0  0  0  0  0  0  0  0  0  0  0
    2.2615   -8.6565    2.7472 C   0  0  2  0  0  0  0  0  0  0  0  0
    2.3976  -10.1938    2.4922 C   0  0  0  0  0  0  0  0  0  0  0  0
    1.0583   -8.1436    1.9346 C   0  0  0  0  0  0  0  0  0  0  0  0
   -0.3087   -8.6050    2.4470 C   0  0  0  0  0  0  0  0  0  0  0  0
   -0.4651   -8.2536    3.9300 C   0  0  1  0  0  0  0  0  0  0  0  0
   -1.7738   -8.6025    4.3243 O   0  0  0  0  0  0  0  0  0  0  0  0
    0.6399   -8.8533    4.8574 C   0  0  1  0  0  0  0  0  0  0  0  0
    0.3431   -8.3275    6.2902 C   0  0  0  0  0  0  0  0  0  0  0  0
    0.5186  -10.4042    4.9814 C   0  0  0  0  0  0  0  0  0  0  0  0
    1.7202  -11.0349    5.3506 O   0  0  0  0  0  0  0  0  0  0  0  0
    2.0604   -8.3739    4.2971 C   0  0  2  0  0  0  0  0  0  0  0  0
    2.3442   -6.9158    4.7118 C   0  0  0  0  0  0  0  0  0  0  0  0
    3.7844   -6.4263    4.5835 C   0  0  0  0  0  0  0  0  0  0  0  0
    4.2240   -5.7624    3.2480 C   0  0  2  0  0  0  0  0  0  0  0  0
    3.0076    2.9451    3.3529 H   0  0  0  0  0  0  0  0  0  0  0  0
    1.3998    2.8615    4.0664 H   0  0  0  0  0  0  0  0  0  0  0  0
    1.6479    2.3210    2.4190 H   0  0  0  0  0  0  0  0  0  0  0  0
    1.4543    0.3820    3.9577 H   0  0  0  0  0  0  0  0  0  0  0  0
    3.8570    1.5059    5.4821 H   0  0  0  0  0  0  0  0  0  0  0  0
    2.8629    0.1193    5.9411 H   0  0  0  0  0  0  0  0  0  0  0  0
    2.1871    1.7124    5.9754 H   0  0  0  0  0  0  0  0  0  0  0  0
    4.2932    0.7740    2.9454 H   0  0  0  0  0  0  0  0  0  0  0  0
    1.7888    0.0817    1.5320 H   0  0  0  0  0  0  0  0  0  0  0  0
    3.2221    0.9312    0.9734 H   0  0  0  0  0  0  0  0  0  0  0  0
    2.4570   -1.8699    0.8017 H   0  0  0  0  0  0  0  0  0  0  0  0
    3.3158   -0.8104   -0.8601 H   0  0  0  0  0  0  0  0  0  0  0  0
    5.2680   -1.5434    1.7949 H   0  0  0  0  0  0  0  0  0  0  0  0
    5.4235   -2.1128    4.6830 H   0  0  0  0  0  0  0  0  0  0  0  0
    4.7782   -0.5912    5.2591 H   0  0  0  0  0  0  0  0  0  0  0  0
    5.8466   -0.5575    3.9073 H   0  0  0  0  0  0  0  0  0  0  0  0
    2.3469   -1.7425    4.8728 H   0  0  0  0  0  0  0  0  0  0  0  0
    1.8058   -2.0487    3.2501 H   0  0  0  0  0  0  0  0  0  0  0  0
    3.8533   -3.6049    4.8470 H   0  0  0  0  0  0  0  0  0  0  0  0
    2.1994   -4.0821    4.6070 H   0  0  0  0  0  0  0  0  0  0  0  0
    2.2060   -5.3821    1.2627 H   0  0  0  0  0  0  0  0  0  0  0  0
    1.8146   -3.7187    1.6438 H   0  0  0  0  0  0  0  0  0  0  0  0
    1.2971   -4.9575    2.7229 H   0  0  0  0  0  0  0  0  0  0  0  0
    4.2430   -5.0406    0.3024 H   0  0  0  0  0  0  0  0  0  0  0  0
    5.1985   -3.6260   -0.1268 H   0  0  0  0  0  0  0  0  0  0  0  0
    3.4510   -3.5974   -0.0647 H   0  0  0  0  0  0  0  0  0  0  0  0
    6.5182   -4.0509    1.6879 H   0  0  0  0  0  0  0  0  0  0  0  0
    6.1798   -3.1788    3.1091 H   0  0  0  0  0  0  0  0  0  0  0  0
    6.3162   -6.1599    5.2883 H   0  0  0  0  0  0  0  0  0  0  0  0
    7.5143   -5.0713    4.6023 H   0  0  0  0  0  0  0  0  0  0  0  0
    5.1191   -4.0155    5.4826 H   0  0  0  0  0  0  0  0  0  0  0  0
    7.4819   -6.0265    2.1495 H   0  0  0  0  0  0  0  0  0  0  0  0
    6.8221   -7.1839    3.2721 H   0  0  0  0  0  0  0  0  0  0  0  0
    5.6876   -6.4069    0.6125 H   0  0  0  0  0  0  0  0  0  0  0  0
    5.9362   -7.9874    1.2919 H   0  0  0  0  0  0  0  0  0  0  0  0
    3.9370   -8.7365    1.3735 H   0  0  0  0  0  0  0  0  0  0  0  0
    1.4543  -10.7286    2.5094 H   0  0  0  0  0  0  0  0  0  0  0  0
    3.0654  -10.6794    3.2022 H   0  0  0  0  0  0  0  0  0  0  0  0
    2.8054  -10.4364    1.5115 H   0  0  0  0  0  0  0  0  0  0  0  0
    1.0585   -7.0620    1.9596 H   0  0  0  0  0  0  0  0  0  0  0  0
    1.1955   -8.4196    0.8896 H   0  0  0  0  0  0  0  0  0  0  0  0
   -1.0785   -8.0869    1.8782 H   0  0  0  0  0  0  0  0  0  0  0  0
   -0.4791   -9.6656    2.2587 H   0  0  0  0  0  0  0  0  0  0  0  0
   -0.4383   -7.1659    4.0104 H   0  0  0  0  0  0  0  0  0  0  0  0
   -1.7968   -9.5436    4.4836 H   0  0  0  0  0  0  0  0  0  0  0  0
    1.1587   -8.5475    6.9812 H   0  0  0  0  0  0  0  0  0  0  0  0
   -0.5778   -8.7623    6.6980 H   0  0  0  0  0  0  0  0  0  0  0  0
    0.1738   -7.2529    6.2947 H   0  0  0  0  0  0  0  0  0  0  0  0
   -0.1824  -10.6624    5.7862 H   0  0  0  0  0  0  0  0  0  0  0  0
    0.0754  -10.8738    4.1044 H   0  0  0  0  0  0  0  0  0  0  0  0
    1.5762  -11.5144    6.1831 H   0  0  0  0  0  0  0  0  0  0  0  0
    2.8316   -8.9320    4.8264 H   0  0  0  0  0  0  0  0  0  0  0  0
    1.6175   -6.2375    4.2953 H   0  0  0  0  0  0  0  0  0  0  0  0
    2.2065   -6.8410    5.7832 H   0  0  0  0  0  0  0  0  0  0  0  0
    3.9247   -5.7330    5.4101 H   0  0  0  0  0  0  0  0  0  0  0  0
    4.4393   -7.2716    4.8250 H   0  0  0  0  0  0  0  0  0  0  0  0
  1  2  1  0
  1 39  1  0
  1 40  1  0
  1 41  1  0
  2  3  1  0
  2  4  1  0
  2 42  1  0
  3 43  1  0
  3 44  1  0
  3 45  1  0
  4  9  1  0
  4  5  1  0
  4 46  1  6
  5  6  1  0
  5 47  1  0
  5 48  1  0
  6  7  1  0
  6  8  1  0
  6 49  1  6
  7 50  1  0
  8 15  1  0
  8  9  1  0
  8 51  1  6
  9 10  1  1
  9 11  1  0
 10 52  1  0
 10 53  1  0
 10 54  1  0
 11 12  1  0
 11 55  1  0
 11 56  1  0
 12 13  1  0
 12 57  1  0
 12 58  1  0
 13 38  1  0
 13 14  1  6
 13 15  1  0
 14 59  1  0
 14 60  1  0
 14 61  1  0
 15 16  1  6
 15 17  1  0
 16 62  1  0
 16 63  1  0
 16 64  1  0
 17 18  1  0
 17 65  1  0
 17 66  1  0
 18 38  1  0
 18 19  1  1
 18 21  1  0
 19 20  1  0
 19 67  1  0
 19 68  1  0
 20 69  1  0
 21 22  1  0
 21 70  1  0
 21 71  1  0
 22 23  1  0
 22 72  1  0
 22 73  1  0
 23 38  1  0
 23 24  2  0
 24 25  1  0
 24 74  1  0
 25 35  1  0
 25 26  1  1
 25 27  1  0
 26 75  1  0
 26 76  1  0
 26 77  1  0
 27 28  1  0
 27 78  1  0
 27 79  1  0
 28 29  1  0
 28 80  1  0
 28 81  1  0
 29 30  1  0
 29 31  1  0
 29 82  1  6
 30 83  1  0
 31 32  1  1
 31 33  1  0
 31 35  1  0
 32 84  1  0
 32 85  1  0
 32 86  1  0
 33 34  1  0
 33 87  1  0
 33 88  1  0
 34 89  1  0
 35 36  1  0
 35 90  1  1
 36 37  1  0
 36 91  1  0
 36 92  1  0
 38 37  1  1
 37 93  1  0
 37 94  1  0
M  END
>  <i_m_ct_stereo_status>  (120) 
1

>  <s_m_source_file>  (120) 
/var/tmp/pbs.5076255.sched01/tmp44bw07az/09l6mph0o.sdf

>  <i_m_source_file_index>  (120) 
47

>  <i_lp_mmshare_version>  (120) 
48012

>  <i_f3d_flags>  (120) 
0

>  <s_epik_input>  (120) 
W09IXVtDQEBIXTFbQ0gyXVtDQEBIXShbQ0hdKFtDSDNdKVtDSDNdKVtDQEBdKFtDSDNdKShbQ0gyXVtDSDJdMilbQ0BIXTFbQ0BdKFtDSDNdKShbQ0BdMihbQ0BdMzQ1KVtDSDNdKVtDSDJdW0NAXTMoW0NIMl1bT0hdKVtDSDJdW0NIMl1DND1bQ0hdW0NAQF02KFtDSDNdKVtDQEBIXShbQ0gyXVtDSDJdNSlbQ0BdKFtDSDNdKShbQ0gyXVtPSF0pW0NASF0oW09IXSlbQ0gyXVtDSDJdNg==

>  <s_epik_cmdline>  (120) 
J2VwaWtfcHl0aG9uJywgJy1waHQnLCAnMi4wJywgJy1waCcsICc3LjAnLCAnLXRuJywgJzgnLCAnLW1hJywgJzIwMCcsICctaW1hZScsICc8aW5maWxlLm1hZT4nLCAnLW9tYWUnLCAnPG91dGZpbGUubWFlPic=

>  <r_lp_tautomer_probability>  (120) 
1

>  <r_epik_Ionization_Penalty>  (120) 
5.43004e-06

>  <r_epik_Ionization_Penalty_Charging>  (120) 
0

>  <r_epik_Ionization_Penalty_Neutral>  (120) 
5.43004e-06

>  <r_epik_State_Penalty>  (120) 
-0

>  <r_epik_Charging_Adjusted_Penalty>  (120) 
0

>  <i_epik_Tot_Q>  (120) 
0

>  <i_epik_Tot_abs_Q>  (120) 
0

>  <s_lp_Force_Field>  (120) 
OPLS3e

>  <r_lp_Energy>  (120) 
122.851

>  <b_lp_Chiralities_Consistent>  (120) 
1

>  <s_lp_Variant>  (120) 
22:0-1

>  <s_i_glide_gridfile>  (120) 
pfpi4k_grid

>  <i_i_glide_lignum>  (120) 
47

>  <i_i_glide_rotatable_bonds>  (120) 
7

>  <r_i_docking_score>  (120) 
-3.06376

>  <r_i_glide_ligand_efficiency>  (120) 
-0.0806253

>  <r_i_glide_ligand_efficiency_sa>  (120) 
-0.27106

>  <r_i_glide_ligand_efficiency_ln>  (120) 
-0.660637

>  <r_i_glide_gscore>  (120) 
-3.06376

>  <r_i_glide_lipo>  (120) 
-0.266009

>  <r_i_glide_hbond>  (120) 
-0.304

>  <r_i_glide_metal>  (120) 
-0

>  <r_i_glide_rewards>  (120) 
0

>  <r_i_glide_evdw>  (120) 
-20.8399

>  <r_i_glide_ecoul>  (120) 
-10.6608

>  <r_i_glide_erotb>  (120) 
0.147361

>  <r_i_glide_esite>  (120) 
0

>  <r_i_glide_emodel>  (120) 
-34.7767

>  <r_i_glide_energy>  (120) 
-31.5007

>  <r_i_glide_einternal>  (120) 
5.31212

>  <r_i_glide_intrahb_reward>  (120) 
-0

>  <i_i_glide_confnum>  (120) 
5

>  <i_i_glide_posenum>  (120) 
38

>  <r_i_glide_eff_state_penalty>  (120) 
0

>  <ligand_id>  (120) 
22

>  <original_smiles>  (120) 
CC(C)C1CC(O)C2C1(C)CCC1(C)C2(C)CC2(CO)CCC3=CC4(C)CCC(O)C(C)(CO)C4CCC321

>  <smiles>  (120) 
[H]OC([H])([H])C1(C([H])([H])[H])C([H])(O[H])C([H])([H])C([H])([H])C2(C([H])([H])[H])C([H])=C3C([H])([H])C([H])([H])C4(C([H])([H])O[H])C([H])([H])C5(C([H])([H])[H])C6([H])C([H])(O[H])C([H])([H])C([H])(C([H])(C([H])([H])[H])C([H])([H])[H])C6(C([H])([H])[H])C([H])([H])C([H])([H])C5(C([H])([H])[H])C34C([H])([H])C([H])([H])C21[H]

$$$$
22:0:2
     RDKit          3D

 94 99  0  0  1  0  0  0  0  0999 V2000
   -1.4908   -7.7575    2.6215 C   0  0  0  0  0  0  0  0  0  0  0  0
   -0.1242   -8.4914    2.5674 C   0  0  0  0  0  0  0  0  0  0  0  0
   -0.4289   -9.9998    2.4969 C   0  0  0  0  0  0  0  0  0  0  0  0
    0.9277   -8.1604    3.6946 C   0  0  2  0  0  0  0  0  0  0  0  0
    0.3786   -8.2640    5.1269 C   0  0  0  0  0  0  0  0  0  0  0  0
    1.0914   -7.1826    5.9365 C   0  0  1  0  0  0  0  0  0  0  0  0
    1.5498   -7.7426    7.1530 O   0  0  0  0  0  0  0  0  0  0  0  0
    2.2265   -6.5548    5.0789 C   0  0  1  0  0  0  0  0  0  0  0  0
    1.7732   -6.8367    3.6099 C   0  0  1  0  0  0  0  0  0  0  0  0
    2.9606   -7.0625    2.6353 C   0  0  0  0  0  0  0  0  0  0  0  0
    0.9140   -5.6524    3.1659 C   0  0  0  0  0  0  0  0  0  0  0  0
    1.6187   -4.3058    3.2548 C   0  0  0  0  0  0  0  0  0  0  0  0
    1.9994   -3.8535    4.6789 C   0  0  1  0  0  0  0  0  0  0  0  0
    0.6696   -3.4502    5.4057 C   0  0  0  0  0  0  0  0  0  0  0  0
    2.6936   -5.0562    5.4412 C   0  0  1  0  0  0  0  0  0  0  0  0
    2.5563   -4.8885    6.9845 C   0  0  0  0  0  0  0  0  0  0  0  0
    4.1741   -4.8662    5.0485 C   0  0  0  0  0  0  0  0  0  0  0  0
    4.4518   -3.4293    4.4980 C   0  0  2  0  0  0  0  0  0  0  0  0
    5.1527   -3.5665    3.1034 C   0  0  0  0  0  0  0  0  0  0  0  0
    5.6523   -2.3518    2.5539 O   0  0  0  0  0  0  0  0  0  0  0  0
    5.3959   -2.7132    5.4757 C   0  0  0  0  0  0  0  0  0  0  0  0
    4.5274   -2.1380    6.5579 C   0  0  0  0  0  0  0  0  0  0  0  0
    3.2886   -1.7292    5.7859 C   0  0  0  0  0  0  0  0  0  0  0  0
    2.7731   -0.5011    6.0907 C   0  0  0  0  0  0  0  0  0  0  0  0
    1.7378    0.4921    5.5017 C   0  0  2  0  0  0  0  0  0  0  0  0
    2.2027    1.8720    6.0699 C   0  0  0  0  0  0  0  0  0  0  0  0
    0.3859    0.1335    6.1473 C   0  0  0  0  0  0  0  0  0  0  0  0
   -0.7993    0.9697    5.6499 C   0  0  0  0  0  0  0  0  0  0  0  0
   -0.9228    0.9438    4.1276 C   0  0  1  0  0  0  0  0  0  0  0  0
   -2.0373    1.7489    3.7971 O   0  0  0  0  0  0  0  0  0  0  0  0
    0.3622    1.4166    3.3905 C   0  0  1  0  0  0  0  0  0  0  0  0
    0.1011    1.1784    1.8628 C   0  0  0  0  0  0  0  0  0  0  0  0
    0.5333    2.9523    3.5337 C   0  0  0  0  0  0  0  0  0  0  0  0
    1.6784    3.4095    2.8434 O   0  0  0  0  0  0  0  0  0  0  0  0
    1.5968    0.5400    3.9172 C   0  0  2  0  0  0  0  0  0  0  0  0
    1.6013   -0.8637    3.2581 C   0  0  0  0  0  0  0  0  0  0  0  0
    2.8838   -1.6853    3.3681 C   0  0  0  0  0  0  0  0  0  0  0  0
    3.0648   -2.6614    4.5873 C   0  0  2  0  0  0  0  0  0  0  0  0
   -2.0418   -7.9808    3.5387 H   0  0  0  0  0  0  0  0  0  0  0  0
   -2.1244   -8.1057    1.7931 H   0  0  0  0  0  0  0  0  0  0  0  0
   -1.4112   -6.6678    2.5226 H   0  0  0  0  0  0  0  0  0  0  0  0
    0.3513   -8.2515    1.6135 H   0  0  0  0  0  0  0  0  0  0  0  0
   -0.7485  -10.3655    3.4686 H   0  0  0  0  0  0  0  0  0  0  0  0
    0.4187  -10.5984    2.1724 H   0  0  0  0  0  0  0  0  0  0  0  0
   -1.2411  -10.1972    1.7961 H   0  0  0  0  0  0  0  0  0  0  0  0
    1.6788   -8.9544    3.6218 H   0  0  0  0  0  0  0  0  0  0  0  0
   -0.6844   -8.0537    5.1871 H   0  0  0  0  0  0  0  0  0  0  0  0
    0.5247   -9.2728    5.5282 H   0  0  0  0  0  0  0  0  0  0  0  0
    0.3399   -6.4327    6.1576 H   0  0  0  0  0  0  0  0  0  0  0  0
    2.0753   -8.5059    6.9368 H   0  0  0  0  0  0  0  0  0  0  0  0
    3.0927   -7.2001    5.2537 H   0  0  0  0  0  0  0  0  0  0  0  0
    3.5657   -6.1742    2.4741 H   0  0  0  0  0  0  0  0  0  0  0  0
    2.6122   -7.3742    1.6481 H   0  0  0  0  0  0  0  0  0  0  0  0
    3.6415   -7.8324    2.9966 H   0  0  0  0  0  0  0  0  0  0  0  0
    0.6161   -5.7996    2.1330 H   0  0  0  0  0  0  0  0  0  0  0  0
    0.0237   -5.6056    3.7818 H   0  0  0  0  0  0  0  0  0  0  0  0
    2.4779   -4.3369    2.5953 H   0  0  0  0  0  0  0  0  0  0  0  0
    0.9541   -3.5651    2.8298 H   0  0  0  0  0  0  0  0  0  0  0  0
    0.8373   -2.9130    6.3361 H   0  0  0  0  0  0  0  0  0  0  0  0
    0.0810   -4.3206    5.6592 H   0  0  0  0  0  0  0  0  0  0  0  0
    0.0097   -2.8537    4.7859 H   0  0  0  0  0  0  0  0  0  0  0  0
    2.6723   -3.8686    7.3215 H   0  0  0  0  0  0  0  0  0  0  0  0
    3.2629   -5.5176    7.5278 H   0  0  0  0  0  0  0  0  0  0  0  0
    1.5649   -5.1331    7.3625 H   0  0  0  0  0  0  0  0  0  0  0  0
    4.8088   -5.0839    5.9038 H   0  0  0  0  0  0  0  0  0  0  0  0
    4.4876   -5.6034    4.3173 H   0  0  0  0  0  0  0  0  0  0  0  0
    5.9947   -4.2549    3.1925 H   0  0  0  0  0  0  0  0  0  0  0  0
    4.5042   -4.0145    2.3559 H   0  0  0  0  0  0  0  0  0  0  0  0
    5.8555   -2.4776    1.6314 H   0  0  0  0  0  0  0  0  0  0  0  0
    6.2147   -3.3414    5.8544 H   0  0  0  0  0  0  0  0  0  0  0  0
    5.8350   -1.8448    4.9884 H   0  0  0  0  0  0  0  0  0  0  0  0
    4.3922   -2.8458    7.3671 H   0  0  0  0  0  0  0  0  0  0  0  0
    5.0325   -1.2791    6.9911 H   0  0  0  0  0  0  0  0  0  0  0  0
    3.2688   -0.1031    6.9483 H   0  0  0  0  0  0  0  0  0  0  0  0
    1.3828    2.5719    6.2246 H   0  0  0  0  0  0  0  0  0  0  0  0
    2.9307    2.3553    5.4324 H   0  0  0  0  0  0  0  0  0  0  0  0
    2.6672    1.8071    7.0554 H   0  0  0  0  0  0  0  0  0  0  0  0
    0.1565   -0.9017    5.9368 H   0  0  0  0  0  0  0  0  0  0  0  0
    0.4661    0.2219    7.2293 H   0  0  0  0  0  0  0  0  0  0  0  0
   -1.7121    0.5553    6.0802 H   0  0  0  0  0  0  0  0  0  0  0  0
   -0.7386    1.9980    6.0154 H   0  0  0  0  0  0  0  0  0  0  0  0
   -1.1528   -0.0776    3.8343 H   0  0  0  0  0  0  0  0  0  0  0  0
   -2.7038    1.2093    3.3735 H   0  0  0  0  0  0  0  0  0  0  0  0
    1.0022    1.3256    1.2701 H   0  0  0  0  0  0  0  0  0  0  0  0
   -0.6450    1.8660    1.4853 H   0  0  0  0  0  0  0  0  0  0  0  0
   -0.2822    0.1768    1.6541 H   0  0  0  0  0  0  0  0  0  0  0  0
   -0.3253    3.4584    3.0810 H   0  0  0  0  0  0  0  0  0  0  0  0
    0.5784    3.3075    4.5644 H   0  0  0  0  0  0  0  0  0  0  0  0
    1.3883    3.7640    1.9978 H   0  0  0  0  0  0  0  0  0  0  0  0
    2.5032    1.0209    3.5337 H   0  0  0  0  0  0  0  0  0  0  0  0
    0.7105   -1.4225    3.4985 H   0  0  0  0  0  0  0  0  0  0  0  0
    1.5540   -0.7386    2.1809 H   0  0  0  0  0  0  0  0  0  0  0  0
    2.9687   -2.2305    2.4289 H   0  0  0  0  0  0  0  0  0  0  0  0
    3.7078   -0.9687    3.3343 H   0  0  0  0  0  0  0  0  0  0  0  0
  1  2  1  0
  1 39  1  0
  1 40  1  0
  1 41  1  0
  2  3  1  0
  2  4  1  0
  2 42  1  0
  3 43  1  0
  3 44  1  0
  3 45  1  0
  4  9  1  0
  4  5  1  0
  4 46  1  1
  5  6  1  0
  5 47  1  0
  5 48  1  0
  6  7  1  0
  6  8  1  0
  6 49  1  1
  7 50  1  0
  8 15  1  0
  8  9  1  0
  8 51  1  1
  9 10  1  6
  9 11  1  0
 10 52  1  0
 10 53  1  0
 10 54  1  0
 11 12  1  0
 11 55  1  0
 11 56  1  0
 12 13  1  0
 12 57  1  0
 12 58  1  0
 13 38  1  0
 13 14  1  1
 13 15  1  0
 14 59  1  0
 14 60  1  0
 14 61  1  0
 15 16  1  1
 15 17  1  0
 16 62  1  0
 16 63  1  0
 16 64  1  0
 17 18  1  0
 17 65  1  0
 17 66  1  0
 18 38  1  0
 18 19  1  6
 18 21  1  0
 19 20  1  0
 19 67  1  0
 19 68  1  0
 20 69  1  0
 21 22  1  0
 21 70  1  0
 21 71  1  0
 22 23  1  0
 22 72  1  0
 22 73  1  0
 23 38  1  0
 23 24  2  0
 24 25  1  0
 24 74  1  0
 25 35  1  0
 25 26  1  1
 25 27  1  0
 26 75  1  0
 26 76  1  0
 26 77  1  0
 27 28  1  0
 27 78  1  0
 27 79  1  0
 28 29  1  0
 28 80  1  0
 28 81  1  0
 29 30  1  0
 29 31  1  0
 29 82  1  6
 30 83  1  0
 31 32  1  6
 31 33  1  0
 31 35  1  0
 32 84  1  0
 32 85  1  0
 32 86  1  0
 33 34  1  0
 33 87  1  0
 33 88  1  0
 34 89  1  0
 35 36  1  0
 35 90  1  6
 36 37  1  0
 36 91  1  0
 36 92  1  0
 38 37  1  6
 37 93  1  0
 37 94  1  0
M  END
>  <i_m_ct_stereo_status>  (121) 
1

>  <s_m_source_file>  (121) 
/var/tmp/pbs.5076255.sched01/tmp44bw07az/09l6mph0o.sdf

>  <i_m_source_file_index>  (121) 
47

>  <i_lp_mmshare_version>  (121) 
48012

>  <i_f3d_flags>  (121) 
0

>  <s_epik_input>  (121) 
W09IXVtDQEBIXTFbQ0gyXVtDQEBIXShbQ0hdKFtDSDNdKVtDSDNdKVtDQEBdKFtDSDNdKShbQ0gyXVtDSDJdMilbQ0BIXTFbQ0BdKFtDSDNdKShbQ0BdMihbQ0BdMzQ1KVtDSDNdKVtDSDJdW0NAXTMoW0NIMl1bT0hdKVtDSDJdW0NIMl1DND1bQ0hdW0NAQF02KFtDSDNdKVtDQEBIXShbQ0gyXVtDSDJdNSlbQ0BdKFtDSDNdKShbQ0gyXVtPSF0pW0NASF0oW09IXSlbQ0gyXVtDSDJdNg==

>  <s_epik_cmdline>  (121) 
J2VwaWtfcHl0aG9uJywgJy1waHQnLCAnMi4wJywgJy1waCcsICc3LjAnLCAnLXRuJywgJzgnLCAnLW1hJywgJzIwMCcsICctaW1hZScsICc8aW5maWxlLm1hZT4nLCAnLW9tYWUnLCAnPG91dGZpbGUubWFlPic=

>  <r_lp_tautomer_probability>  (121) 
1

>  <r_epik_Ionization_Penalty>  (121) 
5.43004e-06

>  <r_epik_Ionization_Penalty_Charging>  (121) 
0

>  <r_epik_Ionization_Penalty_Neutral>  (121) 
5.43004e-06

>  <r_epik_State_Penalty>  (121) 
-0

>  <r_epik_Charging_Adjusted_Penalty>  (121) 
0

>  <i_epik_Tot_Q>  (121) 
0

>  <i_epik_Tot_abs_Q>  (121) 
0

>  <s_lp_Force_Field>  (121) 
OPLS3e

>  <r_lp_Energy>  (121) 
122.851

>  <b_lp_Chiralities_Consistent>  (121) 
1

>  <s_lp_Variant>  (121) 
22:0-1

>  <s_i_glide_gridfile>  (121) 
pfpi4k_grid

>  <i_i_glide_lignum>  (121) 
47

>  <i_i_glide_rotatable_bonds>  (121) 
7

>  <r_i_docking_score>  (121) 
-2.53638

>  <r_i_glide_ligand_efficiency>  (121) 
-0.0667468

>  <r_i_glide_ligand_efficiency_sa>  (121) 
-0.224401

>  <r_i_glide_ligand_efficiency_ln>  (121) 
-0.546918

>  <r_i_glide_gscore>  (121) 
-2.53638

>  <r_i_glide_lipo>  (121) 
-0.139594

>  <r_i_glide_hbond>  (121) 
-0.456

>  <r_i_glide_metal>  (121) 
-0

>  <r_i_glide_rewards>  (121) 
0

>  <r_i_glide_evdw>  (121) 
-21.7926

>  <r_i_glide_ecoul>  (121) 
-6.65677

>  <r_i_glide_erotb>  (121) 
0.147361

>  <r_i_glide_esite>  (121) 
0

>  <r_i_glide_emodel>  (121) 
-27.3798

>  <r_i_glide_energy>  (121) 
-28.4494

>  <r_i_glide_einternal>  (121) 
11.4865

>  <r_i_glide_intrahb_reward>  (121) 
-0

>  <i_i_glide_confnum>  (121) 
6

>  <i_i_glide_posenum>  (121) 
2

>  <r_i_glide_eff_state_penalty>  (121) 
0

>  <ligand_id>  (121) 
22

>  <original_smiles>  (121) 
CC(C)C1CC(O)C2C1(C)CCC1(C)C2(C)CC2(CO)CCC3=CC4(C)CCC(O)C(C)(CO)C4CCC321

>  <smiles>  (121) 
[H]OC([H])([H])C1(C([H])([H])[H])C([H])(O[H])C([H])([H])C([H])([H])C2(C([H])([H])[H])C([H])=C3C([H])([H])C([H])([H])C4(C([H])([H])O[H])C([H])([H])C5(C([H])([H])[H])C6([H])C([H])(O[H])C([H])([H])C([H])(C([H])(C([H])([H])[H])C([H])([H])[H])C6(C([H])([H])[H])C([H])([H])C([H])([H])C5(C([H])([H])[H])C34C([H])([H])C([H])([H])C21[H]

$$$$
23:0:0
     RDKit          3D

 61 68  0  0  1  0  0  0  0  0999 V2000
    3.2410    2.7003    4.9176 C   0  0  0  0  0  0  0  0  0  0  0  0
    3.3464    3.4951    6.1097 O   0  0  0  0  0  0  0  0  0  0  0  0
    2.5645    3.2399    7.3093 C   0  0  1  0  0  0  0  0  0  0  0  0
    2.9526    1.7895    7.6505 C   0  0  0  0  0  0  0  0  0  0  0  0
    4.5445    1.6422    7.6926 C   0  0  0  0  0  0  0  0  0  0  0  0
    5.5083    2.8373    8.0763 C   0  0  0  0  0  0  0  0  0  0  0  0
    6.5254    2.5653    8.7079 O   0  0  0  0  0  0  0  0  0  0  0  0
    5.2464    4.3101    7.6648 C   0  0  2  0  0  0  0  0  0  0  0  0
    5.1955    5.2525    8.7590 O   0  0  0  0  0  0  0  0  0  0  0  0
    3.9435    4.9755    8.1035 C   0  0  2  0  0  0  0  0  0  0  0  0
    2.9455    4.0216    8.6394 C   0  0  1  0  0  0  0  0  0  0  0  0
    1.8599    4.6071    9.6589 C   0  0  0  0  0  0  0  0  0  0  0  0
    0.6475    5.5598    9.2769 C   0  0  1  0  0  0  0  0  0  0  0  0
    0.3995    6.6443   10.3403 C   0  0  0  0  0  0  0  0  0  0  0  0
    0.5899    6.1519    7.8345 C   0  0  0  0  0  0  0  0  0  0  0  0
    1.6541    5.5154    6.9347 C   0  0  2  0  0  0  0  0  0  0  0  0
    1.6301    5.8914    5.4483 C   0  0  1  0  0  0  0  0  0  0  0  0
    0.3729    5.8352    4.8206 O   0  0  0  0  0  0  0  0  0  0  0  0
   -0.0943    4.5288    4.8229 C   0  0  0  0  0  0  0  0  0  0  0  0
   -0.9997    4.1537    3.8107 C   0  0  0  0  0  0  0  0  0  0  0  0
   -1.3879    5.0728    2.8805 O   0  0  0  0  0  0  0  0  0  0  0  0
   -1.4752    2.8346    3.7215 C   0  0  0  0  0  0  0  0  0  0  0  0
   -1.0551    1.8715    4.6593 C   0  0  0  0  0  0  0  0  0  0  0  0
   -0.1547    2.2271    5.6872 C   0  0  0  0  0  0  0  0  0  0  0  0
    0.3468    3.5462    5.7723 C   0  0  0  0  0  0  0  0  0  0  0  0
    1.2542    3.9558    6.9539 C   0  0  1  0  0  0  0  0  0  0  0  0
    2.6721    6.9206    5.1921 C   0  0  0  0  0  0  0  0  0  0  0  0
    2.8152    7.7745    4.0871 C   0  0  0  0  0  0  0  0  0  0  0  0
    3.9903    8.5550    4.0604 C   0  0  0  0  0  0  0  0  0  0  0  0
    4.9527    8.4985    5.0175 N   0  0  0  0  0  0  0  0  0  0  0  0
    4.7832    7.6595    6.0711 C   0  0  0  0  0  0  0  0  0  0  0  0
    3.6406    6.8460    6.1899 C   0  0  0  0  0  0  0  0  0  0  0  0
    3.1253    6.0828    7.4069 C   0  0  2  0  0  0  0  0  0  0  0  0
    3.0463    7.0432    8.4560 O   0  0  0  0  0  0  0  0  0  0  0  0
    3.9354    3.1129    4.1869 H   0  0  0  0  0  0  0  0  0  0  0  0
    2.2673    2.7420    4.4395 H   0  0  0  0  0  0  0  0  0  0  0  0
    3.5071    1.6503    5.0479 H   0  0  0  0  0  0  0  0  0  0  0  0
    2.5279    1.4793    8.6097 H   0  0  0  0  0  0  0  0  0  0  0  0
    2.5421    1.0836    6.9272 H   0  0  0  0  0  0  0  0  0  0  0  0
    4.7850    0.8148    8.3606 H   0  0  0  0  0  0  0  0  0  0  0  0
    4.8930    1.3096    6.7182 H   0  0  0  0  0  0  0  0  0  0  0  0
    5.7622    4.6819    6.7832 H   0  0  0  0  0  0  0  0  0  0  0  0
    3.4606    3.3818    9.3528 H   0  0  0  0  0  0  0  0  0  0  0  0
    1.4066    3.7468   10.1510 H   0  0  0  0  0  0  0  0  0  0  0  0
    2.4143    5.0877   10.4659 H   0  0  0  0  0  0  0  0  0  0  0  0
   -0.2380    4.9288    9.3490 H   0  0  0  0  0  0  0  0  0  0  0  0
    1.2265    7.3512   10.3994 H   0  0  0  0  0  0  0  0  0  0  0  0
    0.2706    6.2045   11.3291 H   0  0  0  0  0  0  0  0  0  0  0  0
   -0.5043    7.2124   10.1191 H   0  0  0  0  0  0  0  0  0  0  0  0
   -0.3977    5.9639    7.4172 H   0  0  0  0  0  0  0  0  0  0  0  0
    0.6797    7.2356    7.8322 H   0  0  0  0  0  0  0  0  0  0  0  0
    2.1837    5.1425    4.8929 H   0  0  0  0  0  0  0  0  0  0  0  0
   -0.9089    4.9382    2.0585 H   0  0  0  0  0  0  0  0  0  0  0  0
   -2.1512    2.5541    2.9279 H   0  0  0  0  0  0  0  0  0  0  0  0
   -1.4330    0.8626    4.5904 H   0  0  0  0  0  0  0  0  0  0  0  0
    0.1386    1.4884    6.4173 H   0  0  0  0  0  0  0  0  0  0  0  0
    0.5720    3.6757    7.7503 H   0  0  0  0  0  0  0  0  0  0  0  0
    2.0599    7.8443    3.3144 H   0  0  0  0  0  0  0  0  0  0  0  0
    4.1605    9.2507    3.2528 H   0  0  0  0  0  0  0  0  0  0  0  0
    5.5426    7.6902    6.8418 H   0  0  0  0  0  0  0  0  0  0  0  0
    2.4703    7.7387    8.1813 H   0  0  0  0  0  0  0  0  0  0  0  0
  1  2  1  0
  1 35  1  0
  1 36  1  0
  1 37  1  0
  3  2  1  6
  3 11  1  0
  3 26  1  0
  3  4  1  0
  4  5  1  0
  4 38  1  0
  4 39  1  0
  5  6  1  0
  5 40  1  0
  5 41  1  0
  6  7  2  0
  6  8  1  0
  8 10  1  0
  8  9  1  0
  8 42  1  6
 10  9  1  1
 10 33  1  0
 10 11  1  0
 11 12  1  0
 11 43  1  1
 12 13  1  0
 12 44  1  0
 12 45  1  0
 13 14  1  0
 13 15  1  0
 13 46  1  6
 14 47  1  0
 14 48  1  0
 14 49  1  0
 16 15  1  1
 15 50  1  0
 15 51  1  0
 16 26  1  0
 16 33  1  0
 16 17  1  0
 17 18  1  0
 17 27  1  0
 17 52  1  6
 18 19  1  0
 19 25  2  0
 19 20  1  0
 20 21  1  0
 20 22  2  0
 21 53  1  0
 22 23  1  0
 22 54  1  0
 23 24  2  0
 23 55  1  0
 24 25  1  0
 24 56  1  0
 25 26  1  0
 26 57  1  1
 27 32  2  0
 27 28  1  0
 28 29  2  0
 28 58  1  0
 29 30  1  0
 29 59  1  0
 30 31  2  0
 31 32  1  0
 31 60  1  0
 32 33  1  0
 33 34  1  1
 34 61  1  0
M  END
>  <i_m_ct_stereo_status>  (122) 
1

>  <s_m_source_file>  (122) 
/var/tmp/pbs.5076255.sched01/tmp44bw07az/09l6mph0o.sdf

>  <i_m_source_file_index>  (122) 
48

>  <i_lp_mmshare_version>  (122) 
48012

>  <i_f3d_flags>  (122) 
0

>  <s_epik_input>  (122) 
TzFbQ0BIXShbQ0BdMTIzKUMoPU8pW0NIMl1bQ0gyXVtDQF00KE9bQ0gzXSlbQ0hdMltDSDJdW0NAQEhdKFtDSDNdKVtDSDJdW0NAXTU2W0NASF0oYzdjKFtDQF0zNltPSF0pW2NIXW5bY0hdW2NIXTcpT2M4YyhbQ0BASF00NSlbY0hdW2NIXVtjSF1jOFtPSF0=

>  <s_epik_cmdline>  (122) 
J2VwaWtfcHl0aG9uJywgJy1waHQnLCAnMi4wJywgJy1waCcsICc3LjAnLCAnLXRuJywgJzgnLCAnLW1hJywgJzIwMCcsICctaW1hZScsICc8aW5maWxlLm1hZT4nLCAnLW9tYWUnLCAnPG91dGZpbGUubWFlPic=

>  <r_lp_tautomer_probability>  (122) 
1

>  <r_epik_Ionization_Penalty>  (122) 
0.0143177

>  <r_epik_Ionization_Penalty_Charging>  (122) 
0

>  <r_epik_Ionization_Penalty_Neutral>  (122) 
0.0143177

>  <r_epik_State_Penalty>  (122) 
0.0107451

>  <r_epik_Charging_Adjusted_Penalty>  (122) 
0.0107451

>  <i_epik_Tot_Q>  (122) 
0

>  <i_epik_Tot_abs_Q>  (122) 
0

>  <s_lp_Force_Field>  (122) 
OPLS3e

>  <r_lp_Energy>  (122) 
173.75

>  <b_lp_Chiralities_Consistent>  (122) 
1

>  <s_lp_Variant>  (122) 
23:0-1

>  <s_i_glide_gridfile>  (122) 
pfpi4k_grid

>  <i_i_glide_lignum>  (122) 
48

>  <i_i_glide_rotatable_bonds>  (122) 
3

>  <r_i_docking_score>  (122) 
-2.35327

>  <r_i_glide_ligand_efficiency>  (122) 
-0.0692138

>  <r_i_glide_ligand_efficiency_sa>  (122) 
-0.224226

>  <r_i_glide_ligand_efficiency_ln>  (122) 
-0.519903

>  <r_i_glide_gscore>  (122) 
-2.35327

>  <r_i_glide_lipo>  (122) 
-0.0709853

>  <r_i_glide_hbond>  (122) 
0

>  <r_i_glide_metal>  (122) 
-0

>  <r_i_glide_rewards>  (122) 
-0.262456

>  <r_i_glide_evdw>  (122) 
-16.7854

>  <r_i_glide_ecoul>  (122) 
-7.87039

>  <r_i_glide_erotb>  (122) 
0

>  <r_i_glide_esite>  (122) 
0

>  <r_i_glide_emodel>  (122) 
-26.5762

>  <r_i_glide_energy>  (122) 
-24.6558

>  <r_i_glide_einternal>  (122) 
3.8399

>  <r_i_glide_intrahb_reward>  (122) 
-0

>  <i_i_glide_confnum>  (122) 
1

>  <i_i_glide_posenum>  (122) 
24

>  <r_i_glide_eff_state_penalty>  (122) 
0

>  <ligand_id>  (122) 
23

>  <original_smiles>  (122) 
COC12CCC(=O)C3OC34C1CC(C)CC13C(Oc5c(O)cccc5C21)c1ccncc1C34O

>  <smiles>  (122) 
[H]Oc1c([H])c([H])c([H])c2c1OC1([H])c3c([H])c([H])nc([H])c3C3(O[H])C45OC4([H])C(=O)C([H])([H])C([H])([H])C4(OC([H])([H])[H])C2([H])C13C([H])([H])C([H])(C([H])([H])[H])C([H])([H])C45[H]

$$$$
23:1:0
     RDKit          3D

 62 69  0  0  1  0  0  0  0  0999 V2000
    3.4753   -5.7937    3.5799 C   0  0  0  0  0  0  0  0  0  0  0  0
    3.4117   -6.4893    4.8360 O   0  0  0  0  0  0  0  0  0  0  0  0
    4.4805   -6.4435    5.8215 C   0  0  1  0  0  0  0  0  0  0  0  0
    4.6383   -4.9321    6.0732 C   0  0  0  0  0  0  0  0  0  0  0  0
    3.2182   -4.2843    6.4168 C   0  0  0  0  0  0  0  0  0  0  0  0
    2.0522   -5.0949    7.1139 C   0  0  0  0  0  0  0  0  0  0  0  0
    1.3132   -4.4841    7.8800 O   0  0  0  0  0  0  0  0  0  0  0  0
    1.7608   -6.5901    6.8165 C   0  0  2  0  0  0  0  0  0  0  0  0
    1.7594   -7.4536    7.9709 O   0  0  0  0  0  0  0  0  0  0  0  0
    2.8577   -7.6185    7.0562 C   0  0  2  0  0  0  0  0  0  0  0  0
    4.1935   -7.0101    7.2738 C   0  0  1  0  0  0  0  0  0  0  0  0
    5.2492   -7.8692    8.1152 C   0  0  0  0  0  0  0  0  0  0  0  0
    6.0025   -9.1708    7.6048 C   0  0  1  0  0  0  0  0  0  0  0  0
    6.1451  -10.2341    8.7087 C   0  0  0  0  0  0  0  0  0  0  0  0
    5.5511   -9.8101    6.2554 C   0  0  0  0  0  0  0  0  0  0  0  0
    4.5535   -8.9051    5.5230 C   0  0  2  0  0  0  0  0  0  0  0  0
    4.1299   -9.3313    4.1097 C   0  0  1  0  0  0  0  0  0  0  0  0
    5.1562   -9.6951    3.2230 O   0  0  0  0  0  0  0  0  0  0  0  0
    5.9841   -8.6055    2.9972 C   0  0  0  0  0  0  0  0  0  0  0  0
    6.7066   -8.5896    1.7877 C   0  0  0  0  0  0  0  0  0  0  0  0
    6.5691   -9.6223    0.9084 O   0  0  0  0  0  0  0  0  0  0  0  0
    7.5388   -7.4967    1.4733 C   0  0  0  0  0  0  0  0  0  0  0  0
    7.6493   -6.4111    2.3649 C   0  0  0  0  0  0  0  0  0  0  0  0
    6.9361   -6.4146    3.5830 C   0  0  0  0  0  0  0  0  0  0  0  0
    6.0876   -7.5025    3.9075 C   0  0  0  0  0  0  0  0  0  0  0  0
    5.3984   -7.5544    5.2904 C   0  0  1  0  0  0  0  0  0  0  0  0
    2.8021   -9.9873    4.1733 C   0  0  0  0  0  0  0  0  0  0  0  0
    2.1807  -10.8041    3.2212 C   0  0  0  0  0  0  0  0  0  0  0  0
    0.8518  -11.1881    3.4892 C   0  0  0  0  0  0  0  0  0  0  0  0
    0.2241  -10.7443    4.6167 N   0  0  0  0  0  0  0  0  0  0  0  0
    0.8209   -9.9614    5.5527 C   0  0  0  0  0  0  0  0  0  0  0  0
    2.1463   -9.5570    5.3391 C   0  0  0  0  0  0  0  0  0  0  0  0
    3.1282   -8.9626    6.3394 C   0  0  2  0  0  0  0  0  0  0  0  0
    3.1423   -9.8590    7.4495 O   0  0  0  0  0  0  0  0  0  0  0  0
    2.5454   -5.9910    3.0467 H   0  0  0  0  0  0  0  0  0  0  0  0
    4.2674   -6.1387    2.9216 H   0  0  0  0  0  0  0  0  0  0  0  0
    3.5602   -4.7085    3.6579 H   0  0  0  0  0  0  0  0  0  0  0  0
    5.3421   -4.7365    6.8878 H   0  0  0  0  0  0  0  0  0  0  0  0
    5.0722   -4.4269    5.2093 H   0  0  0  0  0  0  0  0  0  0  0  0
    3.3947   -3.3957    7.0230 H   0  0  0  0  0  0  0  0  0  0  0  0
    2.7765   -3.8931    5.5045 H   0  0  0  0  0  0  0  0  0  0  0  0
    0.9708   -6.8120    6.1003 H   0  0  0  0  0  0  0  0  0  0  0  0
    4.0649   -6.2122    8.0067 H   0  0  0  0  0  0  0  0  0  0  0  0
    6.0401   -7.1803    8.4136 H   0  0  0  0  0  0  0  0  0  0  0  0
    4.7739   -8.1168    9.0657 H   0  0  0  0  0  0  0  0  0  0  0  0
    7.0294   -8.8527    7.4261 H   0  0  0  0  0  0  0  0  0  0  0  0
    5.1782  -10.6417    9.0057 H   0  0  0  0  0  0  0  0  0  0  0  0
    6.6149   -9.8190    9.6003 H   0  0  0  0  0  0  0  0  0  0  0  0
    6.7652  -11.0681    8.3751 H   0  0  0  0  0  0  0  0  0  0  0  0
    6.4287   -9.9734    5.6294 H   0  0  0  0  0  0  0  0  0  0  0  0
    5.1351  -10.8081    6.3925 H   0  0  0  0  0  0  0  0  0  0  0  0
    3.7156   -8.4631    3.6051 H   0  0  0  0  0  0  0  0  0  0  0  0
    5.8933  -10.2303    1.1770 H   0  0  0  0  0  0  0  0  0  0  0  0
    8.0876   -7.4905    0.5451 H   0  0  0  0  0  0  0  0  0  0  0  0
    8.2978   -5.5805    2.1166 H   0  0  0  0  0  0  0  0  0  0  0  0
    7.0632   -5.5912    4.2731 H   0  0  0  0  0  0  0  0  0  0  0  0
    6.2959   -7.4765    5.8964 H   0  0  0  0  0  0  0  0  0  0  0  0
    2.7041  -11.1331    2.3247 H   0  0  0  0  0  0  0  0  0  0  0  0
    0.2732  -11.8239    2.8326 H   0  0  0  0  0  0  0  0  0  0  0  0
    0.2356   -9.7488    6.4421 H   0  0  0  0  0  0  0  0  0  0  0  0
    2.7375  -10.6916    7.2277 H   0  0  0  0  0  0  0  0  0  0  0  0
   -0.7760  -11.0280    4.8163 H   0  0  0  0  0  0  0  0  0  0  0  0
  1  2  1  0
  1 35  1  0
  1 36  1  0
  1 37  1  0
  3  2  1  6
  3 11  1  0
  3 26  1  0
  3  4  1  0
  4  5  1  0
  4 38  1  0
  4 39  1  0
  5  6  1  0
  5 40  1  0
  5 41  1  0
  6  7  2  0
  6  8  1  0
  8 10  1  0
  8  9  1  0
  8 42  1  6
 10  9  1  1
 10 33  1  0
 10 11  1  0
 11 12  1  0
 11 43  1  1
 12 13  1  0
 12 44  1  0
 12 45  1  0
 13 14  1  0
 13 15  1  0
 13 46  1  6
 14 47  1  0
 14 48  1  0
 14 49  1  0
 16 15  1  1
 15 50  1  0
 15 51  1  0
 16 26  1  0
 16 33  1  0
 16 17  1  0
 17 18  1  0
 17 27  1  0
 17 52  1  6
 18 19  1  0
 19 25  2  0
 19 20  1  0
 20 21  1  0
 20 22  2  0
 21 53  1  0
 22 23  1  0
 22 54  1  0
 23 24  2  0
 23 55  1  0
 24 25  1  0
 24 56  1  0
 25 26  1  0
 26 57  1  1
 27 32  2  0
 27 28  1  0
 28 29  2  0
 28 58  1  0
 29 30  1  0
 29 59  1  0
 30 31  2  0
 30 62  1  0
 31 32  1  0
 31 60  1  0
 32 33  1  0
 33 34  1  1
 34 61  1  0
M  CHG  1  30   1
M  END
>  <i_m_ct_stereo_status>  (123) 
1

>  <s_m_source_file>  (123) 
/var/tmp/pbs.5076255.sched01/tmpstc2q6q5/48db17pvb_.sdf

>  <i_m_source_file_index>  (123) 
1

>  <i_lp_mmshare_version>  (123) 
48012

>  <i_f3d_flags>  (123) 
0

>  <s_epik_input>  (123) 
TzFbQ0BIXShbQ0BdMTIzKUMoPU8pW0NIMl1bQ0gyXVtDQF00KE9bQ0gzXSlbQ0hdMltDSDJdW0NAQEhdKFtDSDNdKVtDSDJdW0NAXTU2W0NASF0oYzdjKFtDQF0zNltPSF0pW2NIXW5bY0hdW2NIXTcpT2M4YyhbQ0BASF00NSlbY0hdW2NIXVtjSF1jOFtPSF0=

>  <s_epik_cmdline>  (123) 
J2VwaWtfcHl0aG9uJywgJy1waHQnLCAnMi4wJywgJy1waCcsICc3LjAnLCAnLXRuJywgJzgnLCAnLW1hJywgJzIwMCcsICctaW1hZScsICc8aW5maWxlLm1hZT4nLCAnLW9tYWUnLCAnPG91dGZpbGUubWFlPic=

>  <r_lp_tautomer_probability>  (123) 
1

>  <r_epik_Ionization_Penalty>  (123) 
2.23607

>  <r_epik_Ionization_Penalty_Charging>  (123) 
2.23518

>  <r_epik_Ionization_Penalty_Neutral>  (123) 
0.000881595

>  <r_epik_State_Penalty>  (123) 
2.38116

>  <r_epik_Charging_Adjusted_Penalty>  (123) 
4.61634

>  <i_epik_Tot_Q>  (123) 
1

>  <i_epik_Tot_abs_Q>  (123) 
1

>  <s_lp_Force_Field>  (123) 
OPLS3e

>  <r_lp_Energy>  (123) 
177.727

>  <b_lp_Chiralities_Consistent>  (123) 
1

>  <s_lp_Variant>  (123) 
23:0-2

>  <s_i_glide_gridfile>  (123) 
pfpi4k_grid

>  <i_i_glide_lignum>  (123) 
1

>  <i_i_glide_rotatable_bonds>  (123) 
3

>  <r_i_docking_score>  (123) 
-3.38659

>  <r_i_glide_ligand_efficiency>  (123) 
-0.0996057

>  <r_i_glide_ligand_efficiency_sa>  (123) 
-0.322684

>  <r_i_glide_ligand_efficiency_ln>  (123) 
-0.748193

>  <r_i_glide_gscore>  (123) 
-3.38659

>  <r_i_glide_lipo>  (123) 
-0.333498

>  <r_i_glide_hbond>  (123) 
-0.150327

>  <r_i_glide_metal>  (123) 
-0

>  <r_i_glide_rewards>  (123) 
-0.255584

>  <r_i_glide_evdw>  (123) 
-16.3625

>  <r_i_glide_ecoul>  (123) 
-11.6047

>  <r_i_glide_erotb>  (123) 
0

>  <r_i_glide_esite>  (123) 
-0.0883471

>  <r_i_glide_emodel>  (123) 
-34.9417

>  <r_i_glide_energy>  (123) 
-27.9673

>  <r_i_glide_einternal>  (123) 
2.18644

>  <r_i_glide_intrahb_reward>  (123) 
-0

>  <i_i_glide_confnum>  (123) 
2

>  <i_i_glide_posenum>  (123) 
12

>  <r_i_glide_eff_state_penalty>  (123) 
0

>  <ligand_id>  (123) 
23

>  <original_smiles>  (123) 
COC12CCC(=O)C3OC34C1CC(C)CC13C(Oc5c(O)cccc5C21)c1ccncc1C34O

>  <smiles>  (123) 
[H]Oc1c([H])c([H])c([H])c2c1OC1([H])c3c([H])c([H])[n+]([H])c([H])c3C3(O[H])C45OC4([H])C(=O)C([H])([H])C([H])([H])C4(OC([H])([H])[H])C2([H])C13C([H])([H])C([H])(C([H])([H])[H])C([H])([H])C45[H]

$$$$
23:1:1
     RDKit          3D

 62 69  0  0  1  0  0  0  0  0999 V2000
    0.5278   -6.3658    3.9575 C   0  0  0  0  0  0  0  0  0  0  0  0
    1.4443   -6.7050    5.0114 O   0  0  0  0  0  0  0  0  0  0  0  0
    2.3361   -5.7411    5.6358 C   0  0  1  0  0  0  0  0  0  0  0  0
    1.3520   -4.6753    6.1550 C   0  0  0  0  0  0  0  0  0  0  0  0
    0.2010   -5.3713    7.0210 C   0  0  0  0  0  0  0  0  0  0  0  0
    0.4282   -6.7108    7.8307 C   0  0  0  0  0  0  0  0  0  0  0  0
   -0.1750   -6.8300    8.9003 O   0  0  0  0  0  0  0  0  0  0  0  0
    1.3009   -7.8832    7.3181 C   0  0  2  0  0  0  0  0  0  0  0  0
    2.3776   -8.2946    8.1903 O   0  0  0  0  0  0  0  0  0  0  0  0
    2.7698   -7.6128    6.9891 C   0  0  2  0  0  0  0  0  0  0  0  0
    3.1116   -6.1712    6.9537 C   0  0  1  0  0  0  0  0  0  0  0  0
    4.6320   -5.7807    7.2522 C   0  0  0  0  0  0  0  0  0  0  0  0
    5.8612   -6.0296    6.2744 C   0  0  1  0  0  0  0  0  0  0  0  0
    7.1314   -6.4522    7.0334 C   0  0  0  0  0  0  0  0  0  0  0  0
    5.6380   -6.9073    5.0026 C   0  0  0  0  0  0  0  0  0  0  0  0
    4.1479   -7.2116    4.7960 C   0  0  2  0  0  0  0  0  0  0  0  0
    3.7548   -7.9440    3.5062 C   0  0  1  0  0  0  0  0  0  0  0  0
    4.2956   -7.4343    2.3167 O   0  0  0  0  0  0  0  0  0  0  0  0
    3.8416   -6.1406    2.1064 C   0  0  0  0  0  0  0  0  0  0  0  0
    3.8016   -5.6767    0.7772 C   0  0  0  0  0  0  0  0  0  0  0  0
    4.2311   -6.4848   -0.2305 O   0  0  0  0  0  0  0  0  0  0  0  0
    3.2984   -4.3964    0.4801 C   0  0  0  0  0  0  0  0  0  0  0  0
    2.8418   -3.5618    1.5173 C   0  0  0  0  0  0  0  0  0  0  0  0
    2.8822   -4.0072    2.8554 C   0  0  0  0  0  0  0  0  0  0  0  0
    3.3642   -5.3008    3.1641 C   0  0  0  0  0  0  0  0  0  0  0  0
    3.5024   -5.7454    4.6348 C   0  0  1  0  0  0  0  0  0  0  0  0
    3.5500   -9.3876    3.8050 C   0  0  0  0  0  0  0  0  0  0  0  0
    3.4945  -10.4747    2.9184 C   0  0  0  0  0  0  0  0  0  0  0  0
    3.1545  -11.7305    3.4637 C   0  0  0  0  0  0  0  0  0  0  0  0
    2.8712  -11.8455    4.7936 N   0  0  0  0  0  0  0  0  0  0  0  0
    2.9207  -10.8035    5.6607 C   0  0  0  0  0  0  0  0  0  0  0  0
    3.2619   -9.5272    5.1615 C   0  0  0  0  0  0  0  0  0  0  0  0
    3.6817   -8.2897    5.9469 C   0  0  2  0  0  0  0  0  0  0  0  0
    4.7552   -8.7215    6.7690 O   0  0  0  0  0  0  0  0  0  0  0  0
   -0.0232   -7.2705    3.6972 H   0  0  0  0  0  0  0  0  0  0  0  0
    1.0079   -6.0399    3.0386 H   0  0  0  0  0  0  0  0  0  0  0  0
   -0.2139   -5.6153    4.2331 H   0  0  0  0  0  0  0  0  0  0  0  0
    1.8687   -3.9250    6.7576 H   0  0  0  0  0  0  0  0  0  0  0  0
    0.9079   -4.1067    5.3398 H   0  0  0  0  0  0  0  0  0  0  0  0
   -0.1686   -4.6312    7.7321 H   0  0  0  0  0  0  0  0  0  0  0  0
   -0.6503   -5.5733    6.3751 H   0  0  0  0  0  0  0  0  0  0  0  0
    0.7945   -8.7089    6.8235 H   0  0  0  0  0  0  0  0  0  0  0  0
    2.6849   -5.7109    7.8434 H   0  0  0  0  0  0  0  0  0  0  0  0
    4.6383   -4.7080    7.4548 H   0  0  0  0  0  0  0  0  0  0  0  0
    4.8851   -6.2207    8.2175 H   0  0  0  0  0  0  0  0  0  0  0  0
    6.1148   -5.0424    5.8858 H   0  0  0  0  0  0  0  0  0  0  0  0
    7.0166   -7.4330    7.4952 H   0  0  0  0  0  0  0  0  0  0  0  0
    7.3772   -5.7405    7.8211 H   0  0  0  0  0  0  0  0  0  0  0  0
    7.9887   -6.5035    6.3621 H   0  0  0  0  0  0  0  0  0  0  0  0
    6.0256   -6.3722    4.1355 H   0  0  0  0  0  0  0  0  0  0  0  0
    6.2177   -7.8278    5.0379 H   0  0  0  0  0  0  0  0  0  0  0  0
    2.6925   -7.7881    3.3427 H   0  0  0  0  0  0  0  0  0  0  0  0
    3.9336   -6.2127   -1.0907 H   0  0  0  0  0  0  0  0  0  0  0  0
    3.2600   -4.0551   -0.5415 H   0  0  0  0  0  0  0  0  0  0  0  0
    2.4722   -2.5730    1.2808 H   0  0  0  0  0  0  0  0  0  0  0  0
    2.5590   -3.3450    3.6412 H   0  0  0  0  0  0  0  0  0  0  0  0
    4.1395   -4.9293    4.9634 H   0  0  0  0  0  0  0  0  0  0  0  0
    3.7178  -10.3577    1.8645 H   0  0  0  0  0  0  0  0  0  0  0  0
    3.0955  -12.6355    2.8723 H   0  0  0  0  0  0  0  0  0  0  0  0
    2.7303  -11.0427    6.7010 H   0  0  0  0  0  0  0  0  0  0  0  0
    4.4080   -9.3040    7.4281 H   0  0  0  0  0  0  0  0  0  0  0  0
    2.6200  -12.7641    5.1700 H   0  0  0  0  0  0  0  0  0  0  0  0
  1  2  1  0
  1 35  1  0
  1 36  1  0
  1 37  1  0
  3  2  1  6
  3 11  1  0
  3 26  1  0
  3  4  1  0
  4  5  1  0
  4 38  1  0
  4 39  1  0
  5  6  1  0
  5 40  1  0
  5 41  1  0
  6  7  2  0
  6  8  1  0
  8 10  1  0
  8  9  1  0
  8 42  1  6
 10  9  1  1
 10 33  1  0
 10 11  1  0
 11 12  1  0
 11 43  1  1
 12 13  1  0
 12 44  1  0
 12 45  1  0
 13 14  1  0
 13 15  1  0
 13 46  1  6
 14 47  1  0
 14 48  1  0
 14 49  1  0
 16 15  1  6
 15 50  1  0
 15 51  1  0
 16 26  1  0
 16 33  1  0
 16 17  1  0
 17 18  1  0
 17 27  1  0
 17 52  1  6
 18 19  1  0
 19 25  2  0
 19 20  1  0
 20 21  1  0
 20 22  2  0
 21 53  1  0
 22 23  1  0
 22 54  1  0
 23 24  2  0
 23 55  1  0
 24 25  1  0
 24 56  1  0
 25 26  1  0
 26 57  1  1
 27 32  2  0
 27 28  1  0
 28 29  2  0
 28 58  1  0
 29 30  1  0
 29 59  1  0
 30 31  2  0
 30 62  1  0
 31 32  1  0
 31 60  1  0
 32 33  1  0
 33 34  1  1
 34 61  1  0
M  CHG  1  30   1
M  END
>  <i_m_ct_stereo_status>  (124) 
1

>  <s_m_source_file>  (124) 
/var/tmp/pbs.5076255.sched01/tmpstc2q6q5/48db17pvb_.sdf

>  <i_m_source_file_index>  (124) 
1

>  <i_lp_mmshare_version>  (124) 
48012

>  <i_f3d_flags>  (124) 
0

>  <s_epik_input>  (124) 
TzFbQ0BIXShbQ0BdMTIzKUMoPU8pW0NIMl1bQ0gyXVtDQF00KE9bQ0gzXSlbQ0hdMltDSDJdW0NAQEhdKFtDSDNdKVtDSDJdW0NAXTU2W0NASF0oYzdjKFtDQF0zNltPSF0pW2NIXW5bY0hdW2NIXTcpT2M4YyhbQ0BASF00NSlbY0hdW2NIXVtjSF1jOFtPSF0=

>  <s_epik_cmdline>  (124) 
J2VwaWtfcHl0aG9uJywgJy1waHQnLCAnMi4wJywgJy1waCcsICc3LjAnLCAnLXRuJywgJzgnLCAnLW1hJywgJzIwMCcsICctaW1hZScsICc8aW5maWxlLm1hZT4nLCAnLW9tYWUnLCAnPG91dGZpbGUubWFlPic=

>  <r_lp_tautomer_probability>  (124) 
1

>  <r_epik_Ionization_Penalty>  (124) 
2.23607

>  <r_epik_Ionization_Penalty_Charging>  (124) 
2.23518

>  <r_epik_Ionization_Penalty_Neutral>  (124) 
0.000881595

>  <r_epik_State_Penalty>  (124) 
2.38116

>  <r_epik_Charging_Adjusted_Penalty>  (124) 
4.61634

>  <i_epik_Tot_Q>  (124) 
1

>  <i_epik_Tot_abs_Q>  (124) 
1

>  <s_lp_Force_Field>  (124) 
OPLS3e

>  <r_lp_Energy>  (124) 
177.727

>  <b_lp_Chiralities_Consistent>  (124) 
1

>  <s_lp_Variant>  (124) 
23:0-2

>  <s_i_glide_gridfile>  (124) 
pfpi4k_grid

>  <i_i_glide_lignum>  (124) 
1

>  <i_i_glide_rotatable_bonds>  (124) 
3

>  <r_i_docking_score>  (124) 
-3.35017

>  <r_i_glide_ligand_efficiency>  (124) 
-0.0985343

>  <r_i_glide_ligand_efficiency_sa>  (124) 
-0.319213

>  <r_i_glide_ligand_efficiency_ln>  (124) 
-0.740146

>  <r_i_glide_gscore>  (124) 
-3.35017

>  <r_i_glide_lipo>  (124) 
-0.0445859

>  <r_i_glide_hbond>  (124) 
-0.318503

>  <r_i_glide_metal>  (124) 
-0

>  <r_i_glide_rewards>  (124) 
-0.255584

>  <r_i_glide_evdw>  (124) 
-14.2503

>  <r_i_glide_ecoul>  (124) 
-13.0093

>  <r_i_glide_erotb>  (124) 
0

>  <r_i_glide_esite>  (124) 
-0.0675874

>  <r_i_glide_emodel>  (124) 
-35.1789

>  <r_i_glide_energy>  (124) 
-27.2596

>  <r_i_glide_einternal>  (124) 
0.855517

>  <r_i_glide_intrahb_reward>  (124) 
-0

>  <i_i_glide_confnum>  (124) 
1

>  <i_i_glide_posenum>  (124) 
8

>  <r_i_glide_eff_state_penalty>  (124) 
0

>  <ligand_id>  (124) 
23

>  <original_smiles>  (124) 
COC12CCC(=O)C3OC34C1CC(C)CC13C(Oc5c(O)cccc5C21)c1ccncc1C34O

>  <smiles>  (124) 
[H]Oc1c([H])c([H])c([H])c2c1OC1([H])c3c([H])c([H])[n+]([H])c([H])c3C3(O[H])C45OC4([H])C(=O)C([H])([H])C([H])([H])C4(OC([H])([H])[H])C2([H])C13C([H])([H])C([H])(C([H])([H])[H])C([H])([H])C45[H]

$$$$
24:0:0
     RDKit          3D

 58 64  0  0  1  0  0  0  0  0999 V2000
    3.3527   -6.5122    6.4431 C   0  0  0  0  0  0  0  0  0  0  0  0
    2.9120   -6.5548    5.0902 O   0  0  0  0  0  0  0  0  0  0  0  0
    3.6132   -7.2415    4.0698 C   0  0  2  0  0  0  0  0  0  0  0  0
    4.9725   -6.4664    3.8662 C   0  0  2  0  0  0  0  0  0  0  0  0
    4.8049   -4.8948    3.7226 C   0  0  0  0  0  0  0  0  0  0  0  0
    3.9769   -4.4570    2.5256 C   0  0  1  0  0  0  0  0  0  0  0  0
    4.3262   -3.7443    1.1797 C   0  0  1  0  0  0  0  0  0  0  0  0
    5.6737   -3.2584    0.6603 C   0  0  0  0  0  0  0  0  0  0  0  0
    6.6078   -4.4499    0.6804 C   0  0  0  0  0  0  0  0  0  0  0  0
    8.0010   -4.5474    0.5806 C   0  0  0  0  0  0  0  0  0  0  0  0
    8.6237   -5.7072    1.0958 C   0  0  0  0  0  0  0  0  0  0  0  0
    7.9000   -6.6637    1.8372 C   0  0  0  0  0  0  0  0  0  0  0  0
    8.5992   -7.6556    2.4754 O   0  0  0  0  0  0  0  0  0  0  0  0
    6.5006   -6.5305    2.0027 C   0  0  0  0  0  0  0  0  0  0  0  0
    5.9021   -5.5037    1.2620 C   0  0  0  0  0  0  0  0  0  0  0  0
    4.4484   -5.2052    1.3341 C   0  0  1  0  0  0  0  0  0  0  0  0
    3.5024   -6.2152    0.6998 C   0  0  0  0  0  0  0  0  0  0  0  0
    3.2729   -7.4769    1.5528 C   0  0  0  0  0  0  0  0  0  0  0  0
    2.7092   -7.1866    2.8883 N   0  0  0  0  0  0  0  0  0  0  0  0
    1.4303   -7.8535    3.1448 C   0  0  0  0  0  0  0  0  0  0  0  0
    1.5328   -9.3168    3.6147 C   0  0  1  0  0  0  0  0  0  0  0  0
    1.7419  -10.3461    2.4923 C   0  0  0  0  0  0  0  0  0  0  0  0
    2.5078   -9.4769    4.8041 C   0  0  0  0  0  0  0  0  0  0  0  0
    3.8484   -8.7563    4.4972 C   0  0  0  0  0  0  0  0  0  0  0  0
    4.6746   -8.8558    5.6220 O   0  0  0  0  0  0  0  0  0  0  0  0
    5.9409   -9.3260    5.1968 C   0  0  0  0  0  0  0  0  0  0  0  0
    5.5716  -10.1544    3.9787 C   0  0  0  0  0  0  0  0  0  0  0  0
    4.4583   -9.4596    3.4582 O   0  0  0  0  0  0  0  0  0  0  0  0
    5.8141   -7.2171    2.9606 O   0  0  0  0  0  0  0  0  0  0  0  0
    2.7628   -5.7597    6.9599 H   0  0  0  0  0  0  0  0  0  0  0  0
    4.3949   -6.2301    6.5642 H   0  0  0  0  0  0  0  0  0  0  0  0
    3.1777   -7.4505    6.9629 H   0  0  0  0  0  0  0  0  0  0  0  0
    5.5163   -6.5519    4.7976 H   0  0  0  0  0  0  0  0  0  0  0  0
    4.3228   -4.5062    4.6200 H   0  0  0  0  0  0  0  0  0  0  0  0
    5.7842   -4.4206    3.6901 H   0  0  0  0  0  0  0  0  0  0  0  0
    2.9082   -4.4472    2.7397 H   0  0  0  0  0  0  0  0  0  0  0  0
    3.4649   -3.3496    0.6402 H   0  0  0  0  0  0  0  0  0  0  0  0
    5.5793   -2.8885   -0.3609 H   0  0  0  0  0  0  0  0  0  0  0  0
    6.0517   -2.4571    1.2958 H   0  0  0  0  0  0  0  0  0  0  0  0
    8.5881   -3.7285    0.1962 H   0  0  0  0  0  0  0  0  0  0  0  0
    9.6925   -5.8148    1.0417 H   0  0  0  0  0  0  0  0  0  0  0  0
    9.4881   -7.7905    2.1078 H   0  0  0  0  0  0  0  0  0  0  0  0
    2.5263   -5.7370    0.5953 H   0  0  0  0  0  0  0  0  0  0  0  0
    3.8366   -6.4604   -0.3099 H   0  0  0  0  0  0  0  0  0  0  0  0
    2.5774   -8.1148    1.0052 H   0  0  0  0  0  0  0  0  0  0  0  0
    4.1797   -8.0712    1.5983 H   0  0  0  0  0  0  0  0  0  0  0  0
    0.9095   -7.2918    3.9221 H   0  0  0  0  0  0  0  0  0  0  0  0
    0.7832   -7.7902    2.2723 H   0  0  0  0  0  0  0  0  0  0  0  0
    0.5450   -9.5662    4.0009 H   0  0  0  0  0  0  0  0  0  0  0  0
    2.7094  -10.2402    2.0037 H   0  0  0  0  0  0  0  0  0  0  0  0
    0.9810  -10.2469    1.7215 H   0  0  0  0  0  0  0  0  0  0  0  0
    1.6906  -11.3643    2.8841 H   0  0  0  0  0  0  0  0  0  0  0  0
    2.0724   -9.0447    5.7083 H   0  0  0  0  0  0  0  0  0  0  0  0
    2.7007  -10.5304    5.0202 H   0  0  0  0  0  0  0  0  0  0  0  0
    6.5858   -8.4900    4.9264 H   0  0  0  0  0  0  0  0  0  0  0  0
    6.4619   -9.8855    5.9714 H   0  0  0  0  0  0  0  0  0  0  0  0
    6.3838  -10.2166    3.2516 H   0  0  0  0  0  0  0  0  0  0  0  0
    5.2742  -11.1628    4.2679 H   0  0  0  0  0  0  0  0  0  0  0  0
  1  2  1  0
  1 30  1  0
  1 31  1  0
  1 32  1  0
  3  2  1  1
  3 19  1  0
  3 24  1  0
  3  4  1  0
  4 29  1  0
  4  5  1  0
  4 33  1  1
  5  6  1  0
  5 34  1  0
  5 35  1  0
  6 16  1  0
  6  7  1  0
  6 36  1  1
  7 16  1  0
  7  8  1  0
  7 37  1  6
  8  9  1  0
  8 38  1  0
  8 39  1  0
  9 15  2  0
  9 10  1  0
 10 11  2  0
 10 40  1  0
 11 12  1  0
 11 41  1  0
 12 13  1  0
 12 14  2  0
 13 42  1  0
 14 15  1  0
 14 29  1  0
 15 16  1  0
 16 17  1  6
 17 18  1  0
 17 43  1  0
 17 44  1  0
 18 19  1  0
 18 45  1  0
 18 46  1  0
 19 20  1  0
 20 21  1  0
 20 47  1  0
 20 48  1  0
 21 22  1  0
 21 23  1  0
 21 49  1  1
 22 50  1  0
 22 51  1  0
 22 52  1  0
 23 24  1  0
 23 53  1  0
 23 54  1  0
 24 28  1  0
 24 25  1  0
 25 26  1  0
 26 27  1  0
 26 55  1  0
 26 56  1  0
 27 28  1  0
 27 57  1  0
 27 58  1  0
M  END
>  <i_m_ct_stereo_status>  (125) 
1

>  <s_m_source_file>  (125) 
/var/tmp/pbs.5076255.sched01/tmpstc2q6q5/48db17pvb_.sdf

>  <i_m_source_file_index>  (125) 
2

>  <i_lp_mmshare_version>  (125) 
48012

>  <i_f3d_flags>  (125) 
0

>  <s_epik_input>  (125) 
W0NIMl0xW0NIMl1OMltDSDJdW0NAQEhdKFtDSDNdKVtDSDJdQzMoT1tDSDJdW0NIMl1PMylbQ0BAXTIoT1tDSDNdKVtDQEhdKFtDSDJdNClPYyhjKFtPSF0pW2NIXVtjSF01KWM2YzVbQ0gyXVtDQEBIXTdbQ0BIXTRbQ0BdMTY3

>  <s_epik_cmdline>  (125) 
J2VwaWtfcHl0aG9uJywgJy1waHQnLCAnMi4wJywgJy1waCcsICc3LjAnLCAnLXRuJywgJzgnLCAnLW1hJywgJzIwMCcsICctaW1hZScsICc8aW5maWxlLm1hZT4nLCAnLW9tYWUnLCAnPG91dGZpbGUubWFlPic=

>  <r_lp_tautomer_probability>  (125) 
1

>  <r_epik_Ionization_Penalty>  (125) 
0.00997701

>  <r_epik_Ionization_Penalty_Charging>  (125) 
0

>  <r_epik_Ionization_Penalty_Neutral>  (125) 
0.00997701

>  <r_epik_State_Penalty>  (125) 
0.00741964

>  <r_epik_Charging_Adjusted_Penalty>  (125) 
0.00741964

>  <i_epik_Tot_Q>  (125) 
0

>  <i_epik_Tot_abs_Q>  (125) 
0

>  <s_lp_Force_Field>  (125) 
OPLS3e

>  <r_lp_Energy>  (125) 
87.4079

>  <b_lp_Chiralities_Consistent>  (125) 
1

>  <s_lp_Variant>  (125) 
24:0-1

>  <s_i_glide_gridfile>  (125) 
pfpi4k_grid

>  <i_i_glide_lignum>  (125) 
2

>  <i_i_glide_rotatable_bonds>  (125) 
2

>  <r_i_docking_score>  (125) 
-2.97852

>  <r_i_glide_ligand_efficiency>  (125) 
-0.102707

>  <r_i_glide_ligand_efficiency_sa>  (125) 
-0.31555

>  <r_i_glide_ligand_efficiency_ln>  (125) 
-0.682005

>  <r_i_glide_gscore>  (125) 
-2.97852

>  <r_i_glide_lipo>  (125) 
-0.720126

>  <r_i_glide_hbond>  (125) 
0

>  <r_i_glide_metal>  (125) 
-0

>  <r_i_glide_rewards>  (125) 
-0.685363

>  <r_i_glide_evdw>  (125) 
-16.4385

>  <r_i_glide_ecoul>  (125) 
-5.00228

>  <r_i_glide_erotb>  (125) 
0

>  <r_i_glide_esite>  (125) 
-0.000760715

>  <r_i_glide_emodel>  (125) 
-25.1179

>  <r_i_glide_energy>  (125) 
-21.4408

>  <r_i_glide_einternal>  (125) 
0.279468

>  <r_i_glide_intrahb_reward>  (125) 
-0

>  <i_i_glide_confnum>  (125) 
5

>  <i_i_glide_posenum>  (125) 
11

>  <r_i_glide_eff_state_penalty>  (125) 
0

>  <ligand_id>  (125) 
24

>  <original_smiles>  (125) 
COC12C3CC4C5Cc6ccc(O)c(c6C54CCN1CC(C)CC21OCCO1)O3

>  <smiles>  (125) 
[H]Oc1c([H])c([H])c2c3c1OC1([H])C([H])([H])C4([H])C([H])(C2([H])[H])C34C([H])([H])C([H])([H])N2C([H])([H])C([H])(C([H])([H])[H])C([H])([H])C3(OC([H])([H])C([H])([H])O3)C21OC([H])([H])[H]

$$$$
24:0:1
     RDKit          3D

 58 64  0  0  1  0  0  0  0  0999 V2000
    3.9182   -3.5866    5.3047 C   0  0  0  0  0  0  0  0  0  0  0  0
    3.5900   -4.5238    4.2853 O   0  0  0  0  0  0  0  0  0  0  0  0
    4.5669   -5.1869    3.5051 C   0  0  2  0  0  0  0  0  0  0  0  0
    5.2627   -4.0745    2.6275 C   0  0  2  0  0  0  0  0  0  0  0  0
    4.2278   -3.1112    1.8875 C   0  0  0  0  0  0  0  0  0  0  0  0
    3.2914   -3.8074    0.9046 C   0  0  1  0  0  0  0  0  0  0  0  0
    3.1724   -3.8083   -0.6569 C   0  0  1  0  0  0  0  0  0  0  0  0
    4.0124   -3.0725   -1.6922 C   0  0  0  0  0  0  0  0  0  0  0  0
    5.4560   -3.4532   -1.4251 C   0  0  0  0  0  0  0  0  0  0  0  0
    6.6573   -2.8954   -1.8675 C   0  0  0  0  0  0  0  0  0  0  0  0
    7.8333   -3.1307   -1.1213 C   0  0  0  0  0  0  0  0  0  0  0  0
    7.7742   -3.8091    0.1161 C   0  0  0  0  0  0  0  0  0  0  0  0
    8.9034   -3.8918    0.8777 O   0  0  0  0  0  0  0  0  0  0  0  0
    6.5470   -4.3102    0.6062 C   0  0  0  0  0  0  0  0  0  0  0  0
    5.4646   -4.2506   -0.2822 C   0  0  0  0  0  0  0  0  0  0  0  0
    4.0981   -4.7105    0.0550 C   0  0  1  0  0  0  0  0  0  0  0  0
    3.8928   -6.2057    0.1955 C   0  0  0  0  0  0  0  0  0  0  0  0
    4.4162   -6.7868    1.5195 C   0  0  0  0  0  0  0  0  0  0  0  0
    3.7885   -6.1774    2.7088 N   0  0  0  0  0  0  0  0  0  0  0  0
    3.0864   -7.1480    3.5602 C   0  0  0  0  0  0  0  0  0  0  0  0
    3.9820   -7.9131    4.5485 C   0  0  1  0  0  0  0  0  0  0  0  0
    4.7556   -9.1047    3.9584 C   0  0  0  0  0  0  0  0  0  0  0  0
    4.8582   -6.9603    5.3800 C   0  0  0  0  0  0  0  0  0  0  0  0
    5.5956   -5.9500    4.4522 C   0  0  0  0  0  0  0  0  0  0  0  0
    6.3399   -5.0612    5.2263 O   0  0  0  0  0  0  0  0  0  0  0  0
    7.5290   -5.7455    5.5766 C   0  0  0  0  0  0  0  0  0  0  0  0
    7.7812   -6.5802    4.3238 C   0  0  0  0  0  0  0  0  0  0  0  0
    6.5142   -6.6667    3.6915 O   0  0  0  0  0  0  0  0  0  0  0  0
    6.3875   -4.6454    1.9192 O   0  0  0  0  0  0  0  0  0  0  0  0
    3.0011   -3.0851    5.6021 H   0  0  0  0  0  0  0  0  0  0  0  0
    4.6104   -2.8110    4.9899 H   0  0  0  0  0  0  0  0  0  0  0  0
    4.3091   -4.0722    6.1958 H   0  0  0  0  0  0  0  0  0  0  0  0
    5.7797   -3.4289    3.3264 H   0  0  0  0  0  0  0  0  0  0  0  0
    3.5989   -2.6181    2.6290 H   0  0  0  0  0  0  0  0  0  0  0  0
    4.7590   -2.3100    1.3771 H   0  0  0  0  0  0  0  0  0  0  0  0
    2.4028   -4.2124    1.3859 H   0  0  0  0  0  0  0  0  0  0  0  0
    2.2437   -4.2214   -1.0462 H   0  0  0  0  0  0  0  0  0  0  0  0
    3.7206   -3.3694   -2.6998 H   0  0  0  0  0  0  0  0  0  0  0  0
    3.8656   -1.9968   -1.5916 H   0  0  0  0  0  0  0  0  0  0  0  0
    6.6728   -2.2524   -2.7203 H   0  0  0  0  0  0  0  0  0  0  0  0
    8.7723   -2.7169   -1.4499 H   0  0  0  0  0  0  0  0  0  0  0  0
    8.7129   -4.2362    1.7411 H   0  0  0  0  0  0  0  0  0  0  0  0
    2.8179   -6.3732    0.1924 H   0  0  0  0  0  0  0  0  0  0  0  0
    4.3011   -6.7278   -0.6709 H   0  0  0  0  0  0  0  0  0  0  0  0
    4.1959   -7.8546    1.5000 H   0  0  0  0  0  0  0  0  0  0  0  0
    5.4994   -6.7425    1.5533 H   0  0  0  0  0  0  0  0  0  0  0  0
    2.3395   -6.6134    4.1486 H   0  0  0  0  0  0  0  0  0  0  0  0
    2.5175   -7.8596    2.9619 H   0  0  0  0  0  0  0  0  0  0  0  0
    3.3059   -8.3820    5.2596 H   0  0  0  0  0  0  0  0  0  0  0  0
    5.4992   -8.7957    3.2257 H   0  0  0  0  0  0  0  0  0  0  0  0
    4.0779   -9.8000    3.4641 H   0  0  0  0  0  0  0  0  0  0  0  0
    5.2851   -9.6564    4.7402 H   0  0  0  0  0  0  0  0  0  0  0  0
    4.2554   -6.3960    6.0947 H   0  0  0  0  0  0  0  0  0  0  0  0
    5.5660   -7.5543    5.9585 H   0  0  0  0  0  0  0  0  0  0  0  0
    8.3464   -5.0727    5.8361 H   0  0  0  0  0  0  0  0  0  0  0  0
    7.3541   -6.3827    6.4442 H   0  0  0  0  0  0  0  0  0  0  0  0
    8.4909   -6.0778    3.6655 H   0  0  0  0  0  0  0  0  0  0  0  0
    8.1639   -7.5753    4.5526 H   0  0  0  0  0  0  0  0  0  0  0  0
  1  2  1  0
  1 30  1  0
  1 31  1  0
  1 32  1  0
  3  2  1  1
  3 19  1  0
  3 24  1  0
  3  4  1  0
  4 29  1  0
  4  5  1  0
  4 33  1  1
  5  6  1  0
  5 34  1  0
  5 35  1  0
  6 16  1  0
  6  7  1  0
  6 36  1  1
  7 16  1  0
  7  8  1  0
  7 37  1  1
  8  9  1  0
  8 38  1  0
  8 39  1  0
  9 15  2  0
  9 10  1  0
 10 11  2  0
 10 40  1  0
 11 12  1  0
 11 41  1  0
 12 13  1  0
 12 14  2  0
 13 42  1  0
 14 15  1  0
 14 29  1  0
 15 16  1  0
 16 17  1  1
 17 18  1  0
 17 43  1  0
 17 44  1  0
 18 19  1  0
 18 45  1  0
 18 46  1  0
 19 20  1  0
 20 21  1  0
 20 47  1  0
 20 48  1  0
 21 22  1  0
 21 23  1  0
 21 49  1  1
 22 50  1  0
 22 51  1  0
 22 52  1  0
 23 24  1  0
 23 53  1  0
 23 54  1  0
 24 28  1  0
 24 25  1  0
 25 26  1  0
 26 27  1  0
 26 55  1  0
 26 56  1  0
 27 28  1  0
 27 57  1  0
 27 58  1  0
M  END
>  <i_m_ct_stereo_status>  (126) 
1

>  <s_m_source_file>  (126) 
/var/tmp/pbs.5076255.sched01/tmpstc2q6q5/48db17pvb_.sdf

>  <i_m_source_file_index>  (126) 
2

>  <i_lp_mmshare_version>  (126) 
48012

>  <i_f3d_flags>  (126) 
0

>  <s_epik_input>  (126) 
W0NIMl0xW0NIMl1OMltDSDJdW0NAQEhdKFtDSDNdKVtDSDJdQzMoT1tDSDJdW0NIMl1PMylbQ0BAXTIoT1tDSDNdKVtDQEhdKFtDSDJdNClPYyhjKFtPSF0pW2NIXVtjSF01KWM2YzVbQ0gyXVtDQEBIXTdbQ0BIXTRbQ0BdMTY3

>  <s_epik_cmdline>  (126) 
J2VwaWtfcHl0aG9uJywgJy1waHQnLCAnMi4wJywgJy1waCcsICc3LjAnLCAnLXRuJywgJzgnLCAnLW1hJywgJzIwMCcsICctaW1hZScsICc8aW5maWxlLm1hZT4nLCAnLW9tYWUnLCAnPG91dGZpbGUubWFlPic=

>  <r_lp_tautomer_probability>  (126) 
1

>  <r_epik_Ionization_Penalty>  (126) 
0.00997701

>  <r_epik_Ionization_Penalty_Charging>  (126) 
0

>  <r_epik_Ionization_Penalty_Neutral>  (126) 
0.00997701

>  <r_epik_State_Penalty>  (126) 
0.00741964

>  <r_epik_Charging_Adjusted_Penalty>  (126) 
0.00741964

>  <i_epik_Tot_Q>  (126) 
0

>  <i_epik_Tot_abs_Q>  (126) 
0

>  <s_lp_Force_Field>  (126) 
OPLS3e

>  <r_lp_Energy>  (126) 
87.4079

>  <b_lp_Chiralities_Consistent>  (126) 
1

>  <s_lp_Variant>  (126) 
24:0-1

>  <s_i_glide_gridfile>  (126) 
pfpi4k_grid

>  <i_i_glide_lignum>  (126) 
2

>  <i_i_glide_rotatable_bonds>  (126) 
2

>  <r_i_docking_score>  (126) 
-2.68361

>  <r_i_glide_ligand_efficiency>  (126) 
-0.0925381

>  <r_i_glide_ligand_efficiency_sa>  (126) 
-0.284307

>  <r_i_glide_ligand_efficiency_ln>  (126) 
-0.614478

>  <r_i_glide_gscore>  (126) 
-2.68361

>  <r_i_glide_lipo>  (126) 
-0.620897

>  <r_i_glide_hbond>  (126) 
0

>  <r_i_glide_metal>  (126) 
-0

>  <r_i_glide_rewards>  (126) 
-0.686501

>  <r_i_glide_evdw>  (126) 
-20.5417

>  <r_i_glide_ecoul>  (126) 
-2.32747

>  <r_i_glide_erotb>  (126) 
0

>  <r_i_glide_esite>  (126) 
0

>  <r_i_glide_emodel>  (126) 
-26.5201

>  <r_i_glide_energy>  (126) 
-22.8692

>  <r_i_glide_einternal>  (126) 
0.0312358

>  <r_i_glide_intrahb_reward>  (126) 
-0

>  <i_i_glide_confnum>  (126) 
4

>  <i_i_glide_posenum>  (126) 
7

>  <r_i_glide_eff_state_penalty>  (126) 
0

>  <ligand_id>  (126) 
24

>  <original_smiles>  (126) 
COC12C3CC4C5Cc6ccc(O)c(c6C54CCN1CC(C)CC21OCCO1)O3

>  <smiles>  (126) 
[H]Oc1c([H])c([H])c2c3c1OC1([H])C([H])([H])C4([H])C([H])(C2([H])[H])C34C([H])([H])C([H])([H])N2C([H])([H])C([H])(C([H])([H])[H])C([H])([H])C3(OC([H])([H])C([H])([H])O3)C21OC([H])([H])[H]

$$$$
24:0:2
     RDKit          3D

 58 64  0  0  1  0  0  0  0  0999 V2000
    4.8474   -4.5247    5.5759 C   0  0  0  0  0  0  0  0  0  0  0  0
    4.4115   -5.3894    4.5320 O   0  0  0  0  0  0  0  0  0  0  0  0
    5.2498   -5.8233    3.4837 C   0  0  2  0  0  0  0  0  0  0  0  0
    5.5748   -4.5365    2.6266 C   0  0  2  0  0  0  0  0  0  0  0  0
    4.3021   -3.6646    2.2475 C   0  0  0  0  0  0  0  0  0  0  0  0
    3.2738   -4.3814    1.3970 C   0  0  1  0  0  0  0  0  0  0  0  0
    2.8299   -4.2426   -0.0945 C   0  0  1  0  0  0  0  0  0  0  0  0
    3.3144   -3.2840   -1.1655 C   0  0  0  0  0  0  0  0  0  0  0  0
    4.8191   -3.4617   -1.2635 C   0  0  0  0  0  0  0  0  0  0  0  0
    5.8127   -2.6898   -1.8760 C   0  0  0  0  0  0  0  0  0  0  0  0
    7.1508   -2.8438   -1.4325 C   0  0  0  0  0  0  0  0  0  0  0  0
    7.4508   -3.6257   -0.2946 C   0  0  0  0  0  0  0  0  0  0  0  0
    8.7238   -3.6048    0.1936 O   0  0  0  0  0  0  0  0  0  0  0  0
    6.4301   -4.3591    0.3884 C   0  0  0  0  0  0  0  0  0  0  0  0
    5.1841   -4.3624   -0.2652 C   0  0  0  0  0  0  0  0  0  0  0  0
    3.9911   -5.0565    0.2948 C   0  0  1  0  0  0  0  0  0  0  0  0
    4.0107   -6.5812    0.2808 C   0  0  0  0  0  0  0  0  0  0  0  0
    4.8753   -7.2091    1.3822 C   0  0  0  0  0  0  0  0  0  0  0  0
    4.4484   -6.8367    2.7417 N   0  0  0  0  0  0  0  0  0  0  0  0
    4.0868   -7.9736    3.5896 C   0  0  0  0  0  0  0  0  0  0  0  0
    5.2680   -8.6910    4.2593 C   0  0  1  0  0  0  0  0  0  0  0  0
    6.0265   -9.6923    3.3707 C   0  0  0  0  0  0  0  0  0  0  0  0
    6.1812   -7.7144    5.0089 C   0  0  0  0  0  0  0  0  0  0  0  0
    6.5579   -6.5101    4.0804 C   0  0  0  0  0  0  0  0  0  0  0  0
    7.3459   -5.6194    4.8092 O   0  0  0  0  0  0  0  0  0  0  0  0
    8.6541   -6.1618    4.8052 C   0  0  0  0  0  0  0  0  0  0  0  0
    8.7248   -6.8030    3.4227 C   0  0  0  0  0  0  0  0  0  0  0  0
    7.3699   -7.0082    3.0673 O   0  0  0  0  0  0  0  0  0  0  0  0
    6.6061   -4.8215    1.6493 O   0  0  0  0  0  0  0  0  0  0  0  0
    3.9660   -4.1944    6.1190 H   0  0  0  0  0  0  0  0  0  0  0  0
    5.3549   -3.6255    5.2384 H   0  0  0  0  0  0  0  0  0  0  0  0
    5.4809   -5.0364    6.2945 H   0  0  0  0  0  0  0  0  0  0  0  0
    6.0524   -3.8637    3.3024 H   0  0  0  0  0  0  0  0  0  0  0  0
    3.8112   -3.3452    3.1650 H   0  0  0  0  0  0  0  0  0  0  0  0
    4.6207   -2.7461    1.7555 H   0  0  0  0  0  0  0  0  0  0  0  0
    2.5736   -4.9628    1.9955 H   0  0  0  0  0  0  0  0  0  0  0  0
    1.8906   -4.7483   -0.3330 H   0  0  0  0  0  0  0  0  0  0  0  0
    2.8499   -3.5136   -2.1236 H   0  0  0  0  0  0  0  0  0  0  0  0
    3.0610   -2.2583   -0.8969 H   0  0  0  0  0  0  0  0  0  0  0  0
    5.5506   -1.9533   -2.6137 H   0  0  0  0  0  0  0  0  0  0  0  0
    7.9373   -2.2815   -1.9042 H   0  0  0  0  0  0  0  0  0  0  0  0
    9.2754   -3.0000   -0.2708 H   0  0  0  0  0  0  0  0  0  0  0  0
    2.9873   -6.9140    0.4743 H   0  0  0  0  0  0  0  0  0  0  0  0
    4.2839   -6.9501   -0.7052 H   0  0  0  0  0  0  0  0  0  0  0  0
    4.7862   -8.2955    1.2672 H   0  0  0  0  0  0  0  0  0  0  0  0
    5.9253   -7.0118    1.1970 H   0  0  0  0  0  0  0  0  0  0  0  0
    3.4298   -7.6116    4.3812 H   0  0  0  0  0  0  0  0  0  0  0  0
    3.4868   -8.6934    3.0307 H   0  0  0  0  0  0  0  0  0  0  0  0
    4.8279   -9.3205    5.0333 H   0  0  0  0  0  0  0  0  0  0  0  0
    6.5430   -9.2015    2.5438 H   0  0  0  0  0  0  0  0  0  0  0  0
    5.3466  -10.4229    2.9392 H   0  0  0  0  0  0  0  0  0  0  0  0
    6.7828  -10.2320    3.9444 H   0  0  0  0  0  0  0  0  0  0  0  0
    5.6915   -7.3174    5.8975 H   0  0  0  0  0  0  0  0  0  0  0  0
    7.0686   -8.2508    5.3423 H   0  0  0  0  0  0  0  0  0  0  0  0
    9.4323   -5.4304    4.9865 H   0  0  0  0  0  0  0  0  0  0  0  0
    8.7598   -6.9040    5.5971 H   0  0  0  0  0  0  0  0  0  0  0  0
    9.2041   -6.1333    2.7077 H   0  0  0  0  0  0  0  0  0  0  0  0
    9.2720   -7.7459    3.4307 H   0  0  0  0  0  0  0  0  0  0  0  0
  1  2  1  0
  1 30  1  0
  1 31  1  0
  1 32  1  0
  3  2  1  1
  3 19  1  0
  3 24  1  0
  3  4  1  0
  4 29  1  0
  4  5  1  0
  4 33  1  1
  5  6  1  0
  5 34  1  0
  5 35  1  0
  6 16  1  0
  6  7  1  0
  6 36  1  1
  7 16  1  0
  7  8  1  0
  7 37  1  1
  8  9  1  0
  8 38  1  0
  8 39  1  0
  9 15  2  0
  9 10  1  0
 10 11  2  0
 10 40  1  0
 11 12  1  0
 11 41  1  0
 12 13  1  0
 12 14  2  0
 13 42  1  0
 14 15  1  0
 14 29  1  0
 15 16  1  0
 16 17  1  1
 17 18  1  0
 17 43  1  0
 17 44  1  0
 18 19  1  0
 18 45  1  0
 18 46  1  0
 19 20  1  0
 20 21  1  0
 20 47  1  0
 20 48  1  0
 21 22  1  0
 21 23  1  0
 21 49  1  1
 22 50  1  0
 22 51  1  0
 22 52  1  0
 23 24  1  0
 23 53  1  0
 23 54  1  0
 24 28  1  0
 24 25  1  0
 25 26  1  0
 26 27  1  0
 26 55  1  0
 26 56  1  0
 27 28  1  0
 27 57  1  0
 27 58  1  0
M  END
>  <i_m_ct_stereo_status>  (127) 
1

>  <s_m_source_file>  (127) 
/var/tmp/pbs.5076255.sched01/tmpstc2q6q5/48db17pvb_.sdf

>  <i_m_source_file_index>  (127) 
2

>  <i_lp_mmshare_version>  (127) 
48012

>  <i_f3d_flags>  (127) 
0

>  <s_epik_input>  (127) 
W0NIMl0xW0NIMl1OMltDSDJdW0NAQEhdKFtDSDNdKVtDSDJdQzMoT1tDSDJdW0NIMl1PMylbQ0BAXTIoT1tDSDNdKVtDQEhdKFtDSDJdNClPYyhjKFtPSF0pW2NIXVtjSF01KWM2YzVbQ0gyXVtDQEBIXTdbQ0BIXTRbQ0BdMTY3

>  <s_epik_cmdline>  (127) 
J2VwaWtfcHl0aG9uJywgJy1waHQnLCAnMi4wJywgJy1waCcsICc3LjAnLCAnLXRuJywgJzgnLCAnLW1hJywgJzIwMCcsICctaW1hZScsICc8aW5maWxlLm1hZT4nLCAnLW9tYWUnLCAnPG91dGZpbGUubWFlPic=

>  <r_lp_tautomer_probability>  (127) 
1

>  <r_epik_Ionization_Penalty>  (127) 
0.00997701

>  <r_epik_Ionization_Penalty_Charging>  (127) 
0

>  <r_epik_Ionization_Penalty_Neutral>  (127) 
0.00997701

>  <r_epik_State_Penalty>  (127) 
0.00741964

>  <r_epik_Charging_Adjusted_Penalty>  (127) 
0.00741964

>  <i_epik_Tot_Q>  (127) 
0

>  <i_epik_Tot_abs_Q>  (127) 
0

>  <s_lp_Force_Field>  (127) 
OPLS3e

>  <r_lp_Energy>  (127) 
87.4079

>  <b_lp_Chiralities_Consistent>  (127) 
1

>  <s_lp_Variant>  (127) 
24:0-1

>  <s_i_glide_gridfile>  (127) 
pfpi4k_grid

>  <i_i_glide_lignum>  (127) 
2

>  <i_i_glide_rotatable_bonds>  (127) 
2

>  <r_i_docking_score>  (127) 
-2.59505

>  <r_i_glide_ligand_efficiency>  (127) 
-0.0894845

>  <r_i_glide_ligand_efficiency_sa>  (127) 
-0.274925

>  <r_i_glide_ligand_efficiency_ln>  (127) 
-0.594201

>  <r_i_glide_gscore>  (127) 
-2.59505

>  <r_i_glide_lipo>  (127) 
-0.698961

>  <r_i_glide_hbond>  (127) 
0

>  <r_i_glide_metal>  (127) 
-0

>  <r_i_glide_rewards>  (127) 
-0.686642

>  <r_i_glide_evdw>  (127) 
-21.3463

>  <r_i_glide_ecoul>  (127) 
-0.947548

>  <r_i_glide_erotb>  (127) 
0

>  <r_i_glide_esite>  (127) 
0

>  <r_i_glide_emodel>  (127) 
-25.5901

>  <r_i_glide_energy>  (127) 
-22.2939

>  <r_i_glide_einternal>  (127) 
0.0239659

>  <r_i_glide_intrahb_reward>  (127) 
-0

>  <i_i_glide_confnum>  (127) 
1

>  <i_i_glide_posenum>  (127) 
22

>  <r_i_glide_eff_state_penalty>  (127) 
0

>  <ligand_id>  (127) 
24

>  <original_smiles>  (127) 
COC12C3CC4C5Cc6ccc(O)c(c6C54CCN1CC(C)CC21OCCO1)O3

>  <smiles>  (127) 
[H]Oc1c([H])c([H])c2c3c1OC1([H])C([H])([H])C4([H])C([H])(C2([H])[H])C34C([H])([H])C([H])([H])N2C([H])([H])C([H])(C([H])([H])[H])C([H])([H])C3(OC([H])([H])C([H])([H])O3)C21OC([H])([H])[H]

$$$$
24:1:0
     RDKit          3D

 59 65  0  0  1  0  0  0  0  0999 V2000
    3.4205   -8.5884    3.0088 C   0  0  0  0  0  0  0  0  0  0  0  0
    3.1347   -7.4898    2.0994 O   0  0  0  0  0  0  0  0  0  0  0  0
    2.6031   -6.2278    2.5143 C   0  0  2  0  0  0  0  0  0  0  0  0
    2.7687   -5.0794    1.4475 C   0  0  2  0  0  0  0  0  0  0  0  0
    3.7719   -5.3733    0.2566 C   0  0  0  0  0  0  0  0  0  0  0  0
    5.1922   -5.6465    0.7245 C   0  0  1  0  0  0  0  0  0  0  0  0
    6.5219   -4.8694    0.6038 C   0  0  1  0  0  0  0  0  0  0  0  0
    6.8162   -3.5108   -0.0333 C   0  0  0  0  0  0  0  0  0  0  0  0
    5.8812   -2.5115    0.6208 C   0  0  0  0  0  0  0  0  0  0  0  0
    5.5225   -1.2130    0.2606 C   0  0  0  0  0  0  0  0  0  0  0  0
    4.2929   -0.6942    0.7233 C   0  0  0  0  0  0  0  0  0  0  0  0
    3.3938   -1.5195    1.4294 C   0  0  0  0  0  0  0  0  0  0  0  0
    2.1375   -1.0677    1.7392 O   0  0  0  0  0  0  0  0  0  0  0  0
    3.7139   -2.8563    1.7510 C   0  0  0  0  0  0  0  0  0  0  0  0
    5.0371   -3.2293    1.4587 C   0  0  0  0  0  0  0  0  0  0  0  0
    5.5730   -4.5961    1.7095 C   0  0  1  0  0  0  0  0  0  0  0  0
    5.8591   -4.9334    3.1726 C   0  0  0  0  0  0  0  0  0  0  0  0
    4.9369   -6.0629    3.6567 C   0  0  0  0  0  0  0  0  0  0  0  0
    3.4989   -5.6352    3.7573 N   0  0  2  0  0  0  0  0  0  0  0  0
    2.9161   -5.8370    5.0871 C   0  0  0  0  0  0  0  0  0  0  0  0
    1.5655   -5.1617    5.2943 C   0  0  1  0  0  0  0  0  0  0  0  0
    1.6895   -3.7743    5.9339 C   0  0  0  0  0  0  0  0  0  0  0  0
    0.7212   -5.1063    3.9885 C   0  0  0  0  0  0  0  0  0  0  0  0
    1.0871   -6.3038    3.0615 C   0  0  0  0  0  0  0  0  0  0  0  0
    0.8060   -7.5069    3.7001 O   0  0  0  0  0  0  0  0  0  0  0  0
    0.2737   -8.3954    2.7160 C   0  0  0  0  0  0  0  0  0  0  0  0
    0.1985   -7.5439    1.4337 C   0  0  0  0  0  0  0  0  0  0  0  0
    0.2049   -6.2156    1.9614 O   0  0  0  0  0  0  0  0  0  0  0  0
    2.7874   -3.7848    2.1247 O   0  0  0  0  0  0  0  0  0  0  0  0
    3.2534   -9.4941    2.3955 H   0  0  0  0  0  0  0  0  0  0  0  0
    2.6931   -8.6112    3.8157 H   0  0  0  0  0  0  0  0  0  0  0  0
    4.4141   -8.5660    3.4214 H   0  0  0  0  0  0  0  0  0  0  0  0
    1.8353   -5.0132    0.8894 H   0  0  0  0  0  0  0  0  0  0  0  0
    3.4087   -6.2414   -0.2869 H   0  0  0  0  0  0  0  0  0  0  0  0
    3.7715   -4.5595   -0.4685 H   0  0  0  0  0  0  0  0  0  0  0  0
    5.3516   -6.7079    0.9185 H   0  0  0  0  0  0  0  0  0  0  0  0
    7.3930   -5.4796    0.8079 H   0  0  0  0  0  0  0  0  0  0  0  0
    7.8452   -3.2317    0.1496 H   0  0  0  0  0  0  0  0  0  0  0  0
    6.6471   -3.5831   -1.1058 H   0  0  0  0  0  0  0  0  0  0  0  0
    6.1372   -0.6394   -0.4317 H   0  0  0  0  0  0  0  0  0  0  0  0
    4.0294    0.3158    0.4795 H   0  0  0  0  0  0  0  0  0  0  0  0
    1.7037   -0.6701    0.9342 H   0  0  0  0  0  0  0  0  0  0  0  0
    6.8507   -5.3751    3.2154 H   0  0  0  0  0  0  0  0  0  0  0  0
    5.8179   -4.0544    3.8291 H   0  0  0  0  0  0  0  0  0  0  0  0
    5.1303   -6.8818    3.0347 H   0  0  0  0  0  0  0  0  0  0  0  0
    5.2883   -6.4338    4.6554 H   0  0  0  0  0  0  0  0  0  0  0  0
    2.8175   -6.9056    5.3015 H   0  0  0  0  0  0  0  0  0  0  0  0
    3.6022   -5.4740    5.8689 H   0  0  0  0  0  0  0  0  0  0  0  0
    1.0051   -5.7729    6.0072 H   0  0  0  0  0  0  0  0  0  0  0  0
    2.2659   -3.1097    5.2947 H   0  0  0  0  0  0  0  0  0  0  0  0
    2.1989   -3.8310    6.9018 H   0  0  0  0  0  0  0  0  0  0  0  0
    0.7176   -3.3140    6.1067 H   0  0  0  0  0  0  0  0  0  0  0  0
   -0.3325   -5.1652    4.2643 H   0  0  0  0  0  0  0  0  0  0  0  0
    0.8505   -4.1482    3.4840 H   0  0  0  0  0  0  0  0  0  0  0  0
    0.9356   -9.2518    2.5785 H   0  0  0  0  0  0  0  0  0  0  0  0
   -0.6848   -8.8305    3.0252 H   0  0  0  0  0  0  0  0  0  0  0  0
    1.0806   -7.6640    0.8140 H   0  0  0  0  0  0  0  0  0  0  0  0
   -0.6638   -7.7784    0.8202 H   0  0  0  0  0  0  0  0  0  0  0  0
    3.5203   -4.6069    3.6515 H   0  0  0  0  0  0  0  0  0  0  0  0
  1  2  1  0
  1 30  1  0
  1 31  1  0
  1 32  1  0
  3  2  1  6
  3 19  1  0
  3 24  1  0
  3  4  1  0
  4 29  1  0
  4  5  1  0
  4 33  1  6
  5  6  1  0
  5 34  1  0
  5 35  1  0
  6 16  1  0
  6  7  1  0
  6 36  1  1
  7 16  1  0
  7  8  1  0
  7 37  1  1
  8  9  1  0
  8 38  1  0
  8 39  1  0
  9 15  2  0
  9 10  1  0
 10 11  2  0
 10 40  1  0
 11 12  1  0
 11 41  1  0
 12 13  1  0
 12 14  2  0
 13 42  1  0
 14 15  1  0
 14 29  1  0
 15 16  1  0
 16 17  1  1
 17 18  1  0
 17 43  1  0
 17 44  1  0
 18 19  1  0
 18 45  1  0
 18 46  1  0
 19 20  1  0
 19 59  1  6
 20 21  1  0
 20 47  1  0
 20 48  1  0
 21 22  1  0
 21 23  1  0
 21 49  1  1
 22 50  1  0
 22 51  1  0
 22 52  1  0
 23 24  1  0
 23 53  1  0
 23 54  1  0
 24 28  1  0
 24 25  1  0
 25 26  1  0
 26 27  1  0
 26 55  1  0
 26 56  1  0
 27 28  1  0
 27 57  1  0
 27 58  1  0
M  CHG  1  19   1
M  END
>  <i_m_ct_stereo_status>  (128) 
1

>  <s_m_source_file>  (128) 
/var/tmp/pbs.5076255.sched01/tmpstc2q6q5/48db17pvb_.sdf

>  <i_m_source_file_index>  (128) 
3

>  <i_lp_mmshare_version>  (128) 
48012

>  <i_f3d_flags>  (128) 
0

>  <s_epik_input>  (128) 
W0NIMl0xW0NIMl1OMltDSDJdW0NAQEhdKFtDSDNdKVtDSDJdQzMoT1tDSDJdW0NIMl1PMylbQ0BAXTIoT1tDSDNdKVtDQEhdKFtDSDJdNClPYyhjKFtPSF0pW2NIXVtjSF01KWM2YzVbQ0gyXVtDQEBIXTdbQ0BIXTRbQ0BdMTY3

>  <s_epik_cmdline>  (128) 
J2VwaWtfcHl0aG9uJywgJy1waHQnLCAnMi4wJywgJy1waCcsICc3LjAnLCAnLXRuJywgJzgnLCAnLW1hJywgJzIwMCcsICctaW1hZScsICc8aW5maWxlLm1hZT4nLCAnLW9tYWUnLCAnPG91dGZpbGUubWFlPic=

>  <r_lp_tautomer_probability>  (128) 
1

>  <r_epik_Ionization_Penalty>  (128) 
2.43862

>  <r_epik_Ionization_Penalty_Charging>  (128) 
2.43833

>  <r_epik_Ionization_Penalty_Neutral>  (128) 
0.0002872

>  <r_epik_State_Penalty>  (128) 
2.59891

>  <r_epik_Charging_Adjusted_Penalty>  (128) 
5.03724

>  <i_epik_Tot_Q>  (128) 
1

>  <i_epik_Tot_abs_Q>  (128) 
1

>  <s_lp_Force_Field>  (128) 
OPLS3e

>  <r_lp_Energy>  (128) 
86.9211

>  <b_lp_Chiralities_Consistent>  (128) 
1

>  <s_lp_Variant>  (128) 
24:0-2

>  <s_i_glide_gridfile>  (128) 
pfpi4k_grid

>  <i_i_glide_lignum>  (128) 
3

>  <i_i_glide_rotatable_bonds>  (128) 
2

>  <r_i_docking_score>  (128) 
-3.57542

>  <r_i_glide_ligand_efficiency>  (128) 
-0.12329

>  <r_i_glide_ligand_efficiency_sa>  (128) 
-0.378787

>  <r_i_glide_ligand_efficiency_ln>  (128) 
-0.81868

>  <r_i_glide_gscore>  (128) 
-3.57542

>  <r_i_glide_lipo>  (128) 
-0.631152

>  <r_i_glide_hbond>  (128) 
-0.268586

>  <r_i_glide_metal>  (128) 
-0

>  <r_i_glide_rewards>  (128) 
-0.678491

>  <r_i_glide_evdw>  (128) 
-21.1742

>  <r_i_glide_ecoul>  (128) 
-6.00638

>  <r_i_glide_erotb>  (128) 
0

>  <r_i_glide_esite>  (128) 
-0.037522

>  <r_i_glide_emodel>  (128) 
-29.0685

>  <r_i_glide_energy>  (128) 
-27.1805

>  <r_i_glide_einternal>  (128) 
2.29117

>  <r_i_glide_intrahb_reward>  (128) 
-0

>  <i_i_glide_confnum>  (128) 
6

>  <i_i_glide_posenum>  (128) 
1

>  <r_i_glide_eff_state_penalty>  (128) 
0

>  <ligand_id>  (128) 
24

>  <original_smiles>  (128) 
COC12C3CC4C5Cc6ccc(O)c(c6C54CCN1CC(C)CC21OCCO1)O3

>  <smiles>  (128) 
[H]Oc1c([H])c([H])c2c3c1OC1([H])C([H])([H])C4([H])C([H])(C2([H])[H])C34C([H])([H])C([H])([H])[N+]2([H])C([H])([H])C([H])(C([H])([H])[H])C([H])([H])C3(OC([H])([H])C([H])([H])O3)C12OC([H])([H])[H]

$$$$
24:1:1
     RDKit          3D

 59 65  0  0  1  0  0  0  0  0999 V2000
    3.1866   -8.9240    2.5861 C   0  0  0  0  0  0  0  0  0  0  0  0
    2.9799   -7.6815    1.8550 O   0  0  0  0  0  0  0  0  0  0  0  0
    2.5291   -6.4677    2.4777 C   0  0  2  0  0  0  0  0  0  0  0  0
    2.7915   -5.1807    1.6023 C   0  0  2  0  0  0  0  0  0  0  0  0
    3.7996   -5.3564    0.3877 C   0  0  0  0  0  0  0  0  0  0  0  0
    5.1907   -5.8017    0.8194 C   0  0  1  0  0  0  0  0  0  0  0  0
    6.5745   -5.1114    0.8372 C   0  0  1  0  0  0  0  0  0  0  0  0
    6.9693   -3.6879    0.4230 C   0  0  0  0  0  0  0  0  0  0  0  0
    6.0853   -2.7485    1.2179 C   0  0  0  0  0  0  0  0  0  0  0  0
    5.8369   -1.3798    1.0610 C   0  0  0  0  0  0  0  0  0  0  0  0
    4.6424   -0.8524    1.5944 C   0  0  0  0  0  0  0  0  0  0  0  0
    3.6646   -1.7232    2.1503 C   0  0  0  0  0  0  0  0  0  0  0  0
    2.4388   -1.1985    2.4847 O   0  0  0  0  0  0  0  0  0  0  0  0
    3.8887   -3.1016    2.2599 C   0  0  0  0  0  0  0  0  0  0  0  0
    5.1877   -3.5287    1.9232 C   0  0  0  0  0  0  0  0  0  0  0  0
    5.6270   -4.9469    1.9689 C   0  0  1  0  0  0  0  0  0  0  0  0
    5.8689   -5.5431    3.3521 C   0  0  0  0  0  0  0  0  0  0  0  0
    4.8588   -6.6743    3.6428 C   0  0  0  0  0  0  0  0  0  0  0  0
    3.4523   -6.1556    3.7901 N   0  0  2  0  0  0  0  0  0  0  0  0
    2.8209   -6.5289    5.0908 C   0  0  0  0  0  0  0  0  0  0  0  0
    1.5195   -5.7974    5.3816 C   0  0  1  0  0  0  0  0  0  0  0  0
    1.7308   -4.5380    6.2340 C   0  0  0  0  0  0  0  0  0  0  0  0
    0.7042   -5.4801    4.0937 C   0  0  0  0  0  0  0  0  0  0  0  0
    1.0069   -6.5237    2.9927 C   0  0  0  0  0  0  0  0  0  0  0  0
    0.6424   -7.7921    3.4284 O   0  0  0  0  0  0  0  0  0  0  0  0
    0.0847   -8.4803    2.3113 C   0  0  0  0  0  0  0  0  0  0  0  0
    0.0880   -7.4520    1.1806 C   0  0  0  0  0  0  0  0  0  0  0  0
    0.1527   -6.2095    1.9122 O   0  0  0  0  0  0  0  0  0  0  0  0
    2.8891   -4.0165    2.4750 O   0  0  0  0  0  0  0  0  0  0  0  0
    2.9637   -9.7158    1.8418 H   0  0  0  0  0  0  0  0  0  0  0  0
    2.4498   -9.0267    3.3810 H   0  0  0  0  0  0  0  0  0  0  0  0
    4.1635   -9.0417    2.9919 H   0  0  0  0  0  0  0  0  0  0  0  0
    1.8747   -4.9624    1.0588 H   0  0  0  0  0  0  0  0  0  0  0  0
    3.3967   -6.1001   -0.2900 H   0  0  0  0  0  0  0  0  0  0  0  0
    3.8715   -4.4417   -0.1976 H   0  0  0  0  0  0  0  0  0  0  0  0
    5.2785   -6.8872    0.8435 H   0  0  0  0  0  0  0  0  0  0  0  0
    7.4040   -5.8005    0.9453 H   0  0  0  0  0  0  0  0  0  0  0  0
    8.0114   -3.5096    0.6602 H   0  0  0  0  0  0  0  0  0  0  0  0
    6.8187   -3.5827   -0.6498 H   0  0  0  0  0  0  0  0  0  0  0  0
    6.5026   -0.7540    0.4790 H   0  0  0  0  0  0  0  0  0  0  0  0
    4.4411    0.1931    1.5010 H   0  0  0  0  0  0  0  0  0  0  0  0
    2.3269   -0.3122    2.1989 H   0  0  0  0  0  0  0  0  0  0  0  0
    6.8246   -6.0471    3.3362 H   0  0  0  0  0  0  0  0  0  0  0  0
    5.8932   -4.7799    4.1466 H   0  0  0  0  0  0  0  0  0  0  0  0
    4.9977   -7.3812    2.9124 H   0  0  0  0  0  0  0  0  0  0  0  0
    5.1590   -7.2085    4.5785 H   0  0  0  0  0  0  0  0  0  0  0  0
    2.6548   -7.6044    5.1202 H   0  0  0  0  0  0  0  0  0  0  0  0
    3.5263   -6.3386    5.9101 H   0  0  0  0  0  0  0  0  0  0  0  0
    0.9084   -6.4719    5.9863 H   0  0  0  0  0  0  0  0  0  0  0  0
    2.3616   -3.8224    5.7122 H   0  0  0  0  0  0  0  0  0  0  0  0
    2.2159   -4.7807    7.1824 H   0  0  0  0  0  0  0  0  0  0  0  0
    0.7874   -4.0445    6.4711 H   0  0  0  0  0  0  0  0  0  0  0  0
   -0.3595   -5.4925    4.3410 H   0  0  0  0  0  0  0  0  0  0  0  0
    0.9118   -4.4614    3.7497 H   0  0  0  0  0  0  0  0  0  0  0  0
    0.6888   -9.3498    2.0553 H   0  0  0  0  0  0  0  0  0  0  0  0
   -0.9087   -8.8918    2.5405 H   0  0  0  0  0  0  0  0  0  0  0  0
    0.9709   -7.5042    0.5586 H   0  0  0  0  0  0  0  0  0  0  0  0
   -0.7676   -7.5571    0.5183 H   0  0  0  0  0  0  0  0  0  0  0  0
    3.5437   -5.1293    3.8598 H   0  0  0  0  0  0  0  0  0  0  0  0
  1  2  1  0
  1 30  1  0
  1 31  1  0
  1 32  1  0
  3  2  1  6
  3 19  1  0
  3 24  1  0
  3  4  1  0
  4 29  1  0
  4  5  1  0
  4 33  1  6
  5  6  1  0
  5 34  1  0
  5 35  1  0
  6 16  1  0
  6  7  1  0
  6 36  1  1
  7 16  1  0
  7  8  1  0
  7 37  1  1
  8  9  1  0
  8 38  1  0
  8 39  1  0
  9 15  2  0
  9 10  1  0
 10 11  2  0
 10 40  1  0
 11 12  1  0
 11 41  1  0
 12 13  1  0
 12 14  2  0
 13 42  1  0
 14 15  1  0
 14 29  1  0
 15 16  1  0
 16 17  1  1
 17 18  1  0
 17 43  1  0
 17 44  1  0
 18 19  1  0
 18 45  1  0
 18 46  1  0
 19 20  1  0
 19 59  1  1
 20 21  1  0
 20 47  1  0
 20 48  1  0
 21 22  1  0
 21 23  1  0
 21 49  1  1
 22 50  1  0
 22 51  1  0
 22 52  1  0
 23 24  1  0
 23 53  1  0
 23 54  1  0
 24 28  1  0
 24 25  1  0
 25 26  1  0
 26 27  1  0
 26 55  1  0
 26 56  1  0
 27 28  1  0
 27 57  1  0
 27 58  1  0
M  CHG  1  19   1
M  END
>  <i_m_ct_stereo_status>  (129) 
1

>  <s_m_source_file>  (129) 
/var/tmp/pbs.5076255.sched01/tmpstc2q6q5/48db17pvb_.sdf

>  <i_m_source_file_index>  (129) 
3

>  <i_lp_mmshare_version>  (129) 
48012

>  <i_f3d_flags>  (129) 
0

>  <s_epik_input>  (129) 
W0NIMl0xW0NIMl1OMltDSDJdW0NAQEhdKFtDSDNdKVtDSDJdQzMoT1tDSDJdW0NIMl1PMylbQ0BAXTIoT1tDSDNdKVtDQEhdKFtDSDJdNClPYyhjKFtPSF0pW2NIXVtjSF01KWM2YzVbQ0gyXVtDQEBIXTdbQ0BIXTRbQ0BdMTY3

>  <s_epik_cmdline>  (129) 
J2VwaWtfcHl0aG9uJywgJy1waHQnLCAnMi4wJywgJy1waCcsICc3LjAnLCAnLXRuJywgJzgnLCAnLW1hJywgJzIwMCcsICctaW1hZScsICc8aW5maWxlLm1hZT4nLCAnLW9tYWUnLCAnPG91dGZpbGUubWFlPic=

>  <r_lp_tautomer_probability>  (129) 
1

>  <r_epik_Ionization_Penalty>  (129) 
2.43862

>  <r_epik_Ionization_Penalty_Charging>  (129) 
2.43833

>  <r_epik_Ionization_Penalty_Neutral>  (129) 
0.0002872

>  <r_epik_State_Penalty>  (129) 
2.59891

>  <r_epik_Charging_Adjusted_Penalty>  (129) 
5.03724

>  <i_epik_Tot_Q>  (129) 
1

>  <i_epik_Tot_abs_Q>  (129) 
1

>  <s_lp_Force_Field>  (129) 
OPLS3e

>  <r_lp_Energy>  (129) 
86.9211

>  <b_lp_Chiralities_Consistent>  (129) 
1

>  <s_lp_Variant>  (129) 
24:0-2

>  <s_i_glide_gridfile>  (129) 
pfpi4k_grid

>  <i_i_glide_lignum>  (129) 
3

>  <i_i_glide_rotatable_bonds>  (129) 
2

>  <r_i_docking_score>  (129) 
-3.4435

>  <r_i_glide_ligand_efficiency>  (129) 
-0.118741

>  <r_i_glide_ligand_efficiency_sa>  (129) 
-0.364811

>  <r_i_glide_ligand_efficiency_ln>  (129) 
-0.788474

>  <r_i_glide_gscore>  (129) 
-3.4435

>  <r_i_glide_lipo>  (129) 
-0.767989

>  <r_i_glide_hbond>  (129) 
-0.271284

>  <r_i_glide_metal>  (129) 
-0

>  <r_i_glide_rewards>  (129) 
-0.678491

>  <r_i_glide_evdw>  (129) 
-20.682

>  <r_i_glide_ecoul>  (129) 
-4.33136

>  <r_i_glide_erotb>  (129) 
0

>  <r_i_glide_esite>  (129) 
-0.0419341

>  <r_i_glide_emodel>  (129) 
-29.3358

>  <r_i_glide_energy>  (129) 
-25.0133

>  <r_i_glide_einternal>  (129) 
0.147256

>  <r_i_glide_intrahb_reward>  (129) 
-0

>  <i_i_glide_confnum>  (129) 
3

>  <i_i_glide_posenum>  (129) 
6

>  <r_i_glide_eff_state_penalty>  (129) 
0

>  <ligand_id>  (129) 
24

>  <original_smiles>  (129) 
COC12C3CC4C5Cc6ccc(O)c(c6C54CCN1CC(C)CC21OCCO1)O3

>  <smiles>  (129) 
[H]Oc1c([H])c([H])c2c3c1OC1([H])C([H])([H])C4([H])C([H])(C2([H])[H])C34C([H])([H])C([H])([H])[N+]2([H])C([H])([H])C([H])(C([H])([H])[H])C([H])([H])C3(OC([H])([H])C([H])([H])O3)C12OC([H])([H])[H]

$$$$
24:1:2
     RDKit          3D

 59 65  0  0  1  0  0  0  0  0999 V2000
    2.5896   -9.5133    2.0887 C   0  0  0  0  0  0  0  0  0  0  0  0
    2.1036   -8.2120    1.6979 O   0  0  0  0  0  0  0  0  0  0  0  0
    1.8554   -7.1437    2.6431 C   0  0  2  0  0  0  0  0  0  0  0  0
    1.7658   -5.7278    1.9566 C   0  0  2  0  0  0  0  0  0  0  0  0
    2.3044   -5.6137    0.4749 C   0  0  0  0  0  0  0  0  0  0  0  0
    3.7721   -5.9938    0.3386 C   0  0  1  0  0  0  0  0  0  0  0  0
    5.0549   -5.1948    0.0215 C   0  0  1  0  0  0  0  0  0  0  0  0
    5.2374   -3.6928   -0.2426 C   0  0  0  0  0  0  0  0  0  0  0  0
    4.6466   -2.9784    0.9519 C   0  0  0  0  0  0  0  0  0  0  0  0
    4.3147   -1.6240    1.1305 C   0  0  0  0  0  0  0  0  0  0  0  0
    3.3566   -1.2988    2.1063 C   0  0  0  0  0  0  0  0  0  0  0  0
    2.6524   -2.3256    2.7892 C   0  0  0  0  0  0  0  0  0  0  0  0
    1.5921   -1.9765    3.5894 O   0  0  0  0  0  0  0  0  0  0  0  0
    2.9435   -3.6747    2.5755 C   0  0  0  0  0  0  0  0  0  0  0  0
    4.0695   -3.9303    1.7613 C   0  0  0  0  0  0  0  0  0  0  0  0
    4.5451   -5.2946    1.4127 C   0  0  1  0  0  0  0  0  0  0  0  0
    5.2538   -6.0783    2.5088 C   0  0  0  0  0  0  0  0  0  0  0  0
    4.4460   -7.3283    2.9167 C   0  0  0  0  0  0  0  0  0  0  0  0
    3.1458   -6.9614    3.5951 N   0  0  2  0  0  0  0  0  0  0  0  0
    3.0189   -7.5909    4.9521 C   0  0  0  0  0  0  0  0  0  0  0  0
    1.8597   -7.0274    5.7733 C   0  0  1  0  0  0  0  0  0  0  0  0
    2.3059   -5.9068    6.7188 C   0  0  0  0  0  0  0  0  0  0  0  0
    0.6501   -6.5927    4.9035 C   0  0  0  0  0  0  0  0  0  0  0  0
    0.5925   -7.4191    3.5951 C   0  0  0  0  0  0  0  0  0  0  0  0
    0.4529   -8.7770    3.8912 O   0  0  0  0  0  0  0  0  0  0  0  0
   -0.4234   -9.3304    2.9200 C   0  0  0  0  0  0  0  0  0  0  0  0
   -0.8522   -8.1264    2.0619 C   0  0  0  0  0  0  0  0  0  0  0  0
   -0.5850   -7.0468    2.9181 O   0  0  0  0  0  0  0  0  0  0  0  0
    2.1065   -4.7006    2.9442 O   0  0  0  0  0  0  0  0  0  0  0  0
    2.1809  -10.1965    1.3290 H   0  0  0  0  0  0  0  0  0  0  0  0
    2.1544   -9.8117    3.0440 H   0  0  0  0  0  0  0  0  0  0  0  0
    3.6500   -9.6000    2.1372 H   0  0  0  0  0  0  0  0  0  0  0  0
    0.7138   -5.5168    1.8098 H   0  0  0  0  0  0  0  0  0  0  0  0
    1.7129   -6.2876   -0.1536 H   0  0  0  0  0  0  0  0  0  0  0  0
    2.1499   -4.6189    0.0664 H   0  0  0  0  0  0  0  0  0  0  0  0
    3.9003   -7.0575    0.1366 H   0  0  0  0  0  0  0  0  0  0  0  0
    5.8899   -5.8130   -0.2737 H   0  0  0  0  0  0  0  0  0  0  0  0
    6.2913   -3.4623   -0.3352 H   0  0  0  0  0  0  0  0  0  0  0  0
    4.7306   -3.4395   -1.1701 H   0  0  0  0  0  0  0  0  0  0  0  0
    4.7166   -0.8607    0.4748 H   0  0  0  0  0  0  0  0  0  0  0  0
    3.1031   -0.2683    2.2699 H   0  0  0  0  0  0  0  0  0  0  0  0
    1.4386   -1.0431    3.5946 H   0  0  0  0  0  0  0  0  0  0  0  0
    6.1707   -6.4823    2.0927 H   0  0  0  0  0  0  0  0  0  0  0  0
    5.5228   -5.4476    3.3733 H   0  0  0  0  0  0  0  0  0  0  0  0
    4.3441   -7.8990    2.0641 H   0  0  0  0  0  0  0  0  0  0  0  0
    5.0574   -7.9657    3.5849 H   0  0  0  0  0  0  0  0  0  0  0  0
    2.9025   -8.6652    4.8406 H   0  0  0  0  0  0  0  0  0  0  0  0
    3.9448   -7.4622    5.5120 H   0  0  0  0  0  0  0  0  0  0  0  0
    1.5126   -7.8451    6.4167 H   0  0  0  0  0  0  0  0  0  0  0  0
    2.7009   -5.0642    6.1548 H   0  0  0  0  0  0  0  0  0  0  0  0
    3.0934   -6.2491    7.3988 H   0  0  0  0  0  0  0  0  0  0  0  0
    1.4852   -5.5424    7.3354 H   0  0  0  0  0  0  0  0  0  0  0  0
   -0.2752   -6.7331    5.4732 H   0  0  0  0  0  0  0  0  0  0  0  0
    0.6973   -5.5186    4.6928 H   0  0  0  0  0  0  0  0  0  0  0  0
    0.0777  -10.0830    2.3226 H   0  0  0  0  0  0  0  0  0  0  0  0
   -1.2797   -9.8360    3.3761 H   0  0  0  0  0  0  0  0  0  0  0  0
   -0.2241   -8.0008    1.1792 H   0  0  0  0  0  0  0  0  0  0  0  0
   -1.8836   -8.2399    1.7079 H   0  0  0  0  0  0  0  0  0  0  0  0
    3.2288   -5.9594    3.8170 H   0  0  0  0  0  0  0  0  0  0  0  0
  1  2  1  0
  1 30  1  0
  1 31  1  0
  1 32  1  0
  3  2  1  6
  3 19  1  0
  3 24  1  0
  3  4  1  0
  4 29  1  0
  4  5  1  0
  4 33  1  6
  5  6  1  0
  5 34  1  0
  5 35  1  0
  6 16  1  0
  6  7  1  0
  6 36  1  1
  7 16  1  0
  7  8  1  0
  7 37  1  1
  8  9  1  0
  8 38  1  0
  8 39  1  0
  9 15  2  0
  9 10  1  0
 10 11  2  0
 10 40  1  0
 11 12  1  0
 11 41  1  0
 12 13  1  0
 12 14  2  0
 13 42  1  0
 14 15  1  0
 14 29  1  0
 15 16  1  0
 16 17  1  1
 17 18  1  0
 17 43  1  0
 17 44  1  0
 18 19  1  0
 18 45  1  0
 18 46  1  0
 19 20  1  0
 19 59  1  1
 20 21  1  0
 20 47  1  0
 20 48  1  0
 21 22  1  0
 21 23  1  0
 21 49  1  1
 22 50  1  0
 22 51  1  0
 22 52  1  0
 23 24  1  0
 23 53  1  0
 23 54  1  0
 24 28  1  0
 24 25  1  0
 25 26  1  0
 26 27  1  0
 26 55  1  0
 26 56  1  0
 27 28  1  0
 27 57  1  0
 27 58  1  0
M  CHG  1  19   1
M  END
>  <i_m_ct_stereo_status>  (130) 
1

>  <s_m_source_file>  (130) 
/var/tmp/pbs.5076255.sched01/tmpstc2q6q5/48db17pvb_.sdf

>  <i_m_source_file_index>  (130) 
3

>  <i_lp_mmshare_version>  (130) 
48012

>  <i_f3d_flags>  (130) 
0

>  <s_epik_input>  (130) 
W0NIMl0xW0NIMl1OMltDSDJdW0NAQEhdKFtDSDNdKVtDSDJdQzMoT1tDSDJdW0NIMl1PMylbQ0BAXTIoT1tDSDNdKVtDQEhdKFtDSDJdNClPYyhjKFtPSF0pW2NIXVtjSF01KWM2YzVbQ0gyXVtDQEBIXTdbQ0BIXTRbQ0BdMTY3

>  <s_epik_cmdline>  (130) 
J2VwaWtfcHl0aG9uJywgJy1waHQnLCAnMi4wJywgJy1waCcsICc3LjAnLCAnLXRuJywgJzgnLCAnLW1hJywgJzIwMCcsICctaW1hZScsICc8aW5maWxlLm1hZT4nLCAnLW9tYWUnLCAnPG91dGZpbGUubWFlPic=

>  <r_lp_tautomer_probability>  (130) 
1

>  <r_epik_Ionization_Penalty>  (130) 
2.43862

>  <r_epik_Ionization_Penalty_Charging>  (130) 
2.43833

>  <r_epik_Ionization_Penalty_Neutral>  (130) 
0.0002872

>  <r_epik_State_Penalty>  (130) 
2.59891

>  <r_epik_Charging_Adjusted_Penalty>  (130) 
5.03724

>  <i_epik_Tot_Q>  (130) 
1

>  <i_epik_Tot_abs_Q>  (130) 
1

>  <s_lp_Force_Field>  (130) 
OPLS3e

>  <r_lp_Energy>  (130) 
86.9211

>  <b_lp_Chiralities_Consistent>  (130) 
1

>  <s_lp_Variant>  (130) 
24:0-2

>  <s_i_glide_gridfile>  (130) 
pfpi4k_grid

>  <i_i_glide_lignum>  (130) 
3

>  <i_i_glide_rotatable_bonds>  (130) 
2

>  <r_i_docking_score>  (130) 
-2.38832

>  <r_i_glide_ligand_efficiency>  (130) 
-0.082356

>  <r_i_glide_ligand_efficiency_sa>  (130) 
-0.253024

>  <r_i_glide_ligand_efficiency_ln>  (130) 
-0.546866

>  <r_i_glide_gscore>  (130) 
-2.38832

>  <r_i_glide_lipo>  (130) 
-0.187233

>  <r_i_glide_hbond>  (130) 
-0.124533

>  <r_i_glide_metal>  (130) 
-0

>  <r_i_glide_rewards>  (130) 
-0.678491

>  <r_i_glide_evdw>  (130) 
-22.0253

>  <r_i_glide_ecoul>  (130) 
-1.70133

>  <r_i_glide_erotb>  (130) 
0

>  <r_i_glide_esite>  (130) 
-0.0416043

>  <r_i_glide_emodel>  (130) 
-25.5778

>  <r_i_glide_energy>  (130) 
-23.7266

>  <r_i_glide_einternal>  (130) 
0.0215307

>  <r_i_glide_intrahb_reward>  (130) 
-0

>  <i_i_glide_confnum>  (130) 
6

>  <i_i_glide_posenum>  (130) 
25

>  <r_i_glide_eff_state_penalty>  (130) 
0

>  <ligand_id>  (130) 
24

>  <original_smiles>  (130) 
COC12C3CC4C5Cc6ccc(O)c(c6C54CCN1CC(C)CC21OCCO1)O3

>  <smiles>  (130) 
[H]Oc1c([H])c([H])c2c3c1OC1([H])C([H])([H])C4([H])C([H])(C2([H])[H])C34C([H])([H])C([H])([H])[N+]2([H])C([H])([H])C([H])(C([H])([H])[H])C([H])([H])C3(OC([H])([H])C([H])([H])O3)C12OC([H])([H])[H]

$$$$
26:1:0
     RDKit          3D

 60 67  0  0  1  0  0  0  0  0999 V2000
    2.8996   -6.7770    6.2039 C   0  0  0  0  0  0  0  0  0  0  0  0
    3.8930   -5.9024    5.9708 C   0  0  0  0  0  0  0  0  0  0  0  0
    5.0902   -6.2076    5.0897 C   0  0  0  0  0  0  0  0  0  0  0  0
    5.1251   -5.3368    3.8037 C   0  0  0  0  0  0  0  0  0  0  0  0
    4.6334   -3.8755    3.9611 C   0  0  2  0  0  0  0  0  0  0  0  0
    5.3439   -3.1032    4.9463 O   0  0  0  0  0  0  0  0  0  0  0  0
    4.0471   -3.5553    5.3349 C   0  0  2  0  0  0  0  0  0  0  0  0
    3.9858   -4.4945    6.5237 C   0  0  1  0  0  0  0  0  0  0  0  0
    2.6881   -3.7086    6.8590 C   0  0  0  0  0  0  0  0  0  0  0  0
    1.8313   -3.8510    7.7289 O   0  0  0  0  0  0  0  0  0  0  0  0
    2.8304   -2.7007    5.6822 C   0  0  1  0  0  0  0  0  0  0  0  0
    3.0033   -1.2057    6.0857 C   0  0  1  0  0  0  0  0  0  0  0  0
    4.3636   -0.6936    5.6958 C   0  0  0  0  0  0  0  0  0  0  0  0
    4.3007   -0.2355    4.4492 C   0  0  0  0  0  0  0  0  0  0  0  0
    5.1985   -0.6520    3.3226 C   0  0  0  0  0  0  0  0  0  0  0  0
    4.2391   -1.5352    2.4775 C   0  0  2  0  0  0  0  0  0  0  0  0
    2.8331   -0.8073    2.6223 C   0  0  0  0  0  0  0  0  0  0  0  0
    2.6915    0.2413    1.4854 C   0  0  0  0  0  0  0  0  0  0  0  0
    1.5579   -1.6541    2.4835 C   0  0  0  0  0  0  0  0  0  0  0  0
    2.9190   -0.0004    3.9522 C   0  0  1  0  0  0  0  0  0  0  0  0
    2.0644   -0.3762    5.1808 C   0  0  0  0  0  0  0  0  0  0  0  0
    4.4667   -3.1292    2.5724 C   0  0  1  0  0  0  0  0  0  0  0  0
    5.8142   -3.2516    2.0714 O   0  0  0  0  0  0  0  0  0  0  0  0
    6.0047   -3.2180    0.7080 C   0  0  0  0  0  0  0  0  0  0  0  0
    7.2728   -2.8547    0.2032 C   0  0  0  0  0  0  0  0  0  0  0  0
    7.4803   -2.7709   -1.1882 C   0  0  0  0  0  0  0  0  0  0  0  0
    6.4206   -3.0566   -2.0674 C   0  0  0  0  0  0  0  0  0  0  0  0
    5.1612   -3.4348   -1.5562 C   0  0  0  0  0  0  0  0  0  0  0  0
    4.9382   -3.5130   -0.1635 C   0  0  0  0  0  0  0  0  0  0  0  0
    3.7259   -3.8564    0.3014 N   0  0  0  0  0  0  0  0  0  0  0  0
    3.4878   -3.8894    1.6301 C   0  0  0  0  0  0  0  0  0  0  0  0
    2.4431   -4.6603    2.1207 C   0  0  0  0  0  0  0  0  0  0  0  0
    2.0515   -6.5225    6.8203 H   0  0  0  0  0  0  0  0  0  0  0  0
    2.9098   -7.7612    5.7611 H   0  0  0  0  0  0  0  0  0  0  0  0
    5.9792   -6.0057    5.6873 H   0  0  0  0  0  0  0  0  0  0  0  0
    5.1199   -7.2695    4.8446 H   0  0  0  0  0  0  0  0  0  0  0  0
    6.1334   -5.3471    3.3890 H   0  0  0  0  0  0  0  0  0  0  0  0
    4.5074   -5.8517    3.0749 H   0  0  0  0  0  0  0  0  0  0  0  0
    4.7661   -4.3566    7.2812 H   0  0  0  0  0  0  0  0  0  0  0  0
    1.9855   -2.8773    5.0265 H   0  0  0  0  0  0  0  0  0  0  0  0
    2.8087   -1.0319    7.1433 H   0  0  0  0  0  0  0  0  0  0  0  0
    5.2470   -1.1145    6.1424 H   0  0  0  0  0  0  0  0  0  0  0  0
    5.4392    0.2491    2.7626 H   0  0  0  0  0  0  0  0  0  0  0  0
    6.1439   -1.1166    3.5941 H   0  0  0  0  0  0  0  0  0  0  0  0
    4.5168   -1.3147    1.4462 H   0  0  0  0  0  0  0  0  0  0  0  0
    1.7780    0.8296    1.5961 H   0  0  0  0  0  0  0  0  0  0  0  0
    2.6359   -0.2287    0.5021 H   0  0  0  0  0  0  0  0  0  0  0  0
    3.5206    0.9472    1.4617 H   0  0  0  0  0  0  0  0  0  0  0  0
    0.6651   -1.0478    2.6383 H   0  0  0  0  0  0  0  0  0  0  0  0
    1.5105   -2.4702    3.1874 H   0  0  0  0  0  0  0  0  0  0  0  0
    1.4685   -2.0856    1.4857 H   0  0  0  0  0  0  0  0  0  0  0  0
    2.8282    1.0677    3.7541 H   0  0  0  0  0  0  0  0  0  0  0  0
    1.1143   -0.8622    4.9638 H   0  0  0  0  0  0  0  0  0  0  0  0
    1.8143    0.5444    5.7030 H   0  0  0  0  0  0  0  0  0  0  0  0
    8.0768   -2.6200    0.8798 H   0  0  0  0  0  0  0  0  0  0  0  0
    8.4502   -2.4928   -1.5794 H   0  0  0  0  0  0  0  0  0  0  0  0
    6.5770   -3.0119   -3.1360 H   0  0  0  0  0  0  0  0  0  0  0  0
    4.3591   -3.6621   -2.2439 H   0  0  0  0  0  0  0  0  0  0  0  0
    2.2259   -4.7293    3.1779 H   0  0  0  0  0  0  0  0  0  0  0  0
    1.8036   -5.2131    1.4466 H   0  0  0  0  0  0  0  0  0  0  0  0
  1  2  2  0
  1 33  1  0
  1 34  1  0
  2  8  1  0
  2  3  1  0
  3  4  1  0
  3 35  1  0
  3 36  1  0
  4  5  1  0
  4 37  1  0
  4 38  1  0
  5  7  1  0
  5 22  1  0
  5  6  1  1
  7  6  1  1
  7 11  1  0
  7  8  1  0
  8  9  1  0
  8 39  1  1
  9 10  2  0
  9 11  1  0
 11 12  1  0
 11 40  1  6
 12 21  1  0
 12 13  1  0
 12 41  1  1
 13 14  2  0
 13 42  1  0
 14 20  1  0
 14 15  1  0
 15 16  1  0
 15 43  1  0
 15 44  1  0
 16 17  1  0
 16 22  1  0
 16 45  1  6
 17 18  1  0
 17 19  1  0
 17 20  1  0
 18 46  1  0
 18 47  1  0
 18 48  1  0
 19 49  1  0
 19 50  1  0
 19 51  1  0
 20 21  1  0
 20 52  1  6
 21 53  1  0
 21 54  1  0
 22 31  1  0
 22 23  1  6
 23 24  1  0
 24 29  2  0
 24 25  1  0
 25 26  2  0
 25 55  1  0
 26 27  1  0
 26 56  1  0
 27 28  2  0
 27 57  1  0
 28 29  1  0
 28 58  1  0
 29 30  1  0
 30 31  1  0
 31 32  2  0
 32 59  1  0
 32 60  1  0
M  CHG  1  30  -1
M  END
>  <i_m_ct_stereo_status>  (131) 
1

>  <s_m_source_file>  (131) 
/var/tmp/pbs.5076255.sched01/tmpstc2q6q5/48db17pvb_.sdf

>  <i_m_source_file_index>  (131) 
6

>  <i_lp_mmshare_version>  (131) 
48012

>  <i_f3d_flags>  (131) 
2

>  <s_epik_input>  (131) 
W0NIMl0xW0NIMl1DKD1bQ0gyXSlbQ0BIXShbQ0BAXTIoQzEzNClPMylDKD1PKVtDQEhdMltDQEhdNVtDSF09QzZbQ0BASF0oW0NIMl01KUMoW0NIM10pKFtDSDNdKVtDQEhdKFtDSDJdNilbQ0BAXTQ3T2M4YyhOPUM3W0NIM10pW2NIXVtjSF1bY0hdW2NIXTg=

>  <s_epik_cmdline>  (131) 
J2VwaWtfcHl0aG9uJywgJy1waHQnLCAnMi4wJywgJy1waCcsICc3LjAnLCAnLXRuJywgJzgnLCAnLW1hJywgJzIwMCcsICctaW1hZScsICc8aW5maWxlLm1hZT4nLCAnLW9tYWUnLCAnPG91dGZpbGUubWFlPic=

>  <r_epik_Ionization_Penalty>  (131) 
0.0504177

>  <r_epik_Ionization_Penalty_Charging>  (131) 
0

>  <r_epik_Ionization_Penalty_Neutral>  (131) 
0.0504177

>  <r_epik_State_Penalty>  (131) 
0.0431277

>  <r_epik_Charging_Adjusted_Penalty>  (131) 
0.0431277

>  <i_epik_Tot_Q>  (131) 
-1

>  <i_epik_Tot_abs_Q>  (131) 
1

>  <s_epik_Chemistry_Notes>  (131) 
This compound has an imine and may undergo hydrolysis.

>  <s_lp_Force_Field>  (131) 
OPLS3e

>  <r_lp_Energy>  (131) 
83.5156

>  <b_lp_Chiralities_Consistent>  (131) 
0

>  <s_lp_Variant>  (131) 
26:0-2

>  <s_i_glide_gridfile>  (131) 
pfpi4k_grid

>  <i_i_glide_lignum>  (131) 
6

>  <i_i_glide_rotatable_bonds>  (131) 
0

>  <r_i_docking_score>  (131) 
-2.26086

>  <r_i_glide_ligand_efficiency>  (131) 
-0.0706519

>  <r_i_glide_ligand_efficiency_sa>  (131) 
-0.224306

>  <r_i_glide_ligand_efficiency_ln>  (131) 
-0.506269

>  <r_i_glide_gscore>  (131) 
-2.26086

>  <r_i_glide_lipo>  (131) 
-0.593615

>  <r_i_glide_hbond>  (131) 
0

>  <r_i_glide_metal>  (131) 
-0

>  <r_i_glide_rewards>  (131) 
-0.500953

>  <r_i_glide_evdw>  (131) 
-23.4317

>  <r_i_glide_ecoul>  (131) 
0.0352887

>  <r_i_glide_erotb>  (131) 
0

>  <r_i_glide_esite>  (131) 
0

>  <r_i_glide_emodel>  (131) 
-27.9042

>  <r_i_glide_energy>  (131) 
-23.3964

>  <r_i_glide_einternal>  (131) 
0

>  <r_i_glide_intrahb_reward>  (131) 
-0

>  <i_i_glide_confnum>  (131) 
2

>  <i_i_glide_posenum>  (131) 
26

>  <r_i_glide_eff_state_penalty>  (131) 
0

>  <ligand_id>  (131) 
26

>  <original_smiles>  (131) 
C=C1CCC23OC24C1C(=O)C4C1C=C2CC(C(C)(C)C2C1)C31Oc2ccccc2N=C1C

>  <smiles>  (131) 
[H]C([H])=C1C([H])([H])C([H])([H])C23OC24C1([H])C(=O)C4([H])C1([H])C([H])=C2C([H])([H])C([H])(C34Oc3c([H])c([H])c([H])c([H])c3[N-]C4=C([H])[H])C(C([H])([H])[H])(C([H])([H])[H])C2([H])C1([H])[H]

$$$$
26:1:1
     RDKit          3D

 60 67  0  0  1  0  0  0  0  0999 V2000
   -1.0850    1.6337    2.7019 C   0  0  0  0  0  0  0  0  0  0  0  0
   -0.4643    1.8935    3.8645 C   0  0  0  0  0  0  0  0  0  0  0  0
   -1.1748    1.9606    5.2035 C   0  0  0  0  0  0  0  0  0  0  0  0
   -0.7443    0.8269    6.1719 C   0  0  0  0  0  0  0  0  0  0  0  0
    0.7490    0.4166    6.1045 C   0  0  2  0  0  0  0  0  0  0  0  0
    1.6820    1.4817    6.3523 O   0  0  0  0  0  0  0  0  0  0  0  0
    1.5401    1.0916    4.9915 C   0  0  2  0  0  0  0  0  0  0  0  0
    1.0179    2.1488    4.0368 C   0  0  1  0  0  0  0  0  0  0  0  0
    2.0265    1.4988    3.0566 C   0  0  0  0  0  0  0  0  0  0  0  0
    2.2283    1.6740    1.8623 O   0  0  0  0  0  0  0  0  0  0  0  0
    2.6099    0.4878    4.0865 C   0  0  1  0  0  0  0  0  0  0  0  0
    4.1181    0.6598    4.4238 C   0  0  1  0  0  0  0  0  0  0  0  0
    4.3084    1.0765    5.8542 C   0  0  0  0  0  0  0  0  0  0  0  0
    4.3886   -0.0122    6.6124 C   0  0  0  0  0  0  0  0  0  0  0  0
    3.5300   -0.2812    7.8070 C   0  0  0  0  0  0  0  0  0  0  0  0
    2.5625   -1.3702    7.2601 C   0  0  2  0  0  0  0  0  0  0  0  0
    3.4773   -2.2256    6.2760 C   0  0  0  0  0  0  0  0  0  0  0  0
    4.1486   -3.3805    7.0758 C   0  0  0  0  0  0  0  0  0  0  0  0
    2.8001   -2.9563    5.1002 C   0  0  0  0  0  0  0  0  0  0  0  0
    4.6306   -1.2696    5.8452 C   0  0  1  0  0  0  0  0  0  0  0  0
    4.7547   -0.7457    4.3990 C   0  0  0  0  0  0  0  0  0  0  0  0
    1.0575   -0.8944    6.9396 C   0  0  1  0  0  0  0  0  0  0  0  0
    0.6072   -0.4642    8.2419 O   0  0  0  0  0  0  0  0  0  0  0  0
    0.2245   -1.4248    9.1417 C   0  0  0  0  0  0  0  0  0  0  0  0
    0.2340   -1.1321   10.5214 C   0  0  0  0  0  0  0  0  0  0  0  0
   -0.1274   -2.1107   11.4625 C   0  0  0  0  0  0  0  0  0  0  0  0
   -0.5300   -3.3904   11.0210 C   0  0  0  0  0  0  0  0  0  0  0  0
   -0.5545   -3.6728    9.6426 C   0  0  0  0  0  0  0  0  0  0  0  0
   -0.1932   -2.7016    8.6949 C   0  0  0  0  0  0  0  0  0  0  0  0
   -0.2149   -2.9967    7.3797 N   0  0  0  0  0  0  0  0  0  0  0  0
    0.1945   -2.0968    6.4636 C   0  0  0  0  0  0  0  0  0  0  0  0
   -0.2586   -2.2009    5.1600 C   0  0  0  0  0  0  0  0  0  0  0  0
   -0.5489    1.5725    1.7654 H   0  0  0  0  0  0  0  0  0  0  0  0
   -2.1484    1.4596    2.6687 H   0  0  0  0  0  0  0  0  0  0  0  0
   -0.9179    2.9265    5.6381 H   0  0  0  0  0  0  0  0  0  0  0  0
   -2.2544    1.9683    5.0538 H   0  0  0  0  0  0  0  0  0  0  0  0
   -1.0059    1.1097    7.1927 H   0  0  0  0  0  0  0  0  0  0  0  0
   -1.3680   -0.0264    5.9288 H   0  0  0  0  0  0  0  0  0  0  0  0
    1.2769    3.1849    4.2814 H   0  0  0  0  0  0  0  0  0  0  0  0
    2.3536   -0.5004    3.7165 H   0  0  0  0  0  0  0  0  0  0  0  0
    4.6172    1.3494    3.7429 H   0  0  0  0  0  0  0  0  0  0  0  0
    3.9311    2.0279    6.1924 H   0  0  0  0  0  0  0  0  0  0  0  0
    4.1791   -0.7304    8.5566 H   0  0  0  0  0  0  0  0  0  0  0  0
    3.0435    0.5854    8.2712 H   0  0  0  0  0  0  0  0  0  0  0  0
    2.4306   -2.0529    8.1010 H   0  0  0  0  0  0  0  0  0  0  0  0
    4.8571   -3.9330    6.4550 H   0  0  0  0  0  0  0  0  0  0  0  0
    3.4201   -4.1074    7.4385 H   0  0  0  0  0  0  0  0  0  0  0  0
    4.7047   -3.0205    7.9420 H   0  0  0  0  0  0  0  0  0  0  0  0
    3.5365   -3.4648    4.4776 H   0  0  0  0  0  0  0  0  0  0  0  0
    2.2507   -2.2924    4.4518 H   0  0  0  0  0  0  0  0  0  0  0  0
    2.0991   -3.7196    5.4409 H   0  0  0  0  0  0  0  0  0  0  0  0
    5.5903   -1.6551    6.1827 H   0  0  0  0  0  0  0  0  0  0  0  0
    4.3541   -1.4038    3.6257 H   0  0  0  0  0  0  0  0  0  0  0  0
    5.8142   -0.6391    4.1749 H   0  0  0  0  0  0  0  0  0  0  0  0
    0.5562   -0.1546   10.8606 H   0  0  0  0  0  0  0  0  0  0  0  0
   -0.0972   -1.8893   12.5203 H   0  0  0  0  0  0  0  0  0  0  0  0
   -0.8108   -4.1491   11.7438 H   0  0  0  0  0  0  0  0  0  0  0  0
   -0.8750   -4.6582    9.3167 H   0  0  0  0  0  0  0  0  0  0  0  0
    0.0198   -1.4901    4.3887 H   0  0  0  0  0  0  0  0  0  0  0  0
   -0.8860   -3.0291    4.8567 H   0  0  0  0  0  0  0  0  0  0  0  0
  1  2  2  0
  1 33  1  0
  1 34  1  0
  2  8  1  0
  2  3  1  0
  3  4  1  0
  3 35  1  0
  3 36  1  0
  4  5  1  0
  4 37  1  0
  4 38  1  0
  5  7  1  0
  5 22  1  0
  5  6  1  1
  7  6  1  1
  7 11  1  0
  7  8  1  0
  8  9  1  0
  8 39  1  1
  9 10  2  0
  9 11  1  0
 11 12  1  0
 11 40  1  6
 12 21  1  0
 12 13  1  0
 12 41  1  6
 13 14  2  0
 13 42  1  0
 14 20  1  0
 14 15  1  0
 15 16  1  0
 15 43  1  0
 15 44  1  0
 16 17  1  0
 16 22  1  0
 16 45  1  1
 17 18  1  0
 17 19  1  0
 17 20  1  0
 18 46  1  0
 18 47  1  0
 18 48  1  0
 19 49  1  0
 19 50  1  0
 19 51  1  0
 20 21  1  0
 20 52  1  1
 21 53  1  0
 21 54  1  0
 22 31  1  0
 22 23  1  1
 23 24  1  0
 24 29  2  0
 24 25  1  0
 25 26  2  0
 25 55  1  0
 26 27  1  0
 26 56  1  0
 27 28  2  0
 27 57  1  0
 28 29  1  0
 28 58  1  0
 29 30  1  0
 30 31  1  0
 31 32  2  0
 32 59  1  0
 32 60  1  0
M  CHG  1  30  -1
M  END
>  <i_m_ct_stereo_status>  (132) 
1

>  <s_m_source_file>  (132) 
/var/tmp/pbs.5076255.sched01/tmpstc2q6q5/48db17pvb_.sdf

>  <i_m_source_file_index>  (132) 
6

>  <i_lp_mmshare_version>  (132) 
48012

>  <i_f3d_flags>  (132) 
2

>  <s_epik_input>  (132) 
W0NIMl0xW0NIMl1DKD1bQ0gyXSlbQ0BIXShbQ0BAXTIoQzEzNClPMylDKD1PKVtDQEhdMltDQEhdNVtDSF09QzZbQ0BASF0oW0NIMl01KUMoW0NIM10pKFtDSDNdKVtDQEhdKFtDSDJdNilbQ0BAXTQ3T2M4YyhOPUM3W0NIM10pW2NIXVtjSF1bY0hdW2NIXTg=

>  <s_epik_cmdline>  (132) 
J2VwaWtfcHl0aG9uJywgJy1waHQnLCAnMi4wJywgJy1waCcsICc3LjAnLCAnLXRuJywgJzgnLCAnLW1hJywgJzIwMCcsICctaW1hZScsICc8aW5maWxlLm1hZT4nLCAnLW9tYWUnLCAnPG91dGZpbGUubWFlPic=

>  <r_epik_Ionization_Penalty>  (132) 
0.0504177

>  <r_epik_Ionization_Penalty_Charging>  (132) 
0

>  <r_epik_Ionization_Penalty_Neutral>  (132) 
0.0504177

>  <r_epik_State_Penalty>  (132) 
0.0431277

>  <r_epik_Charging_Adjusted_Penalty>  (132) 
0.0431277

>  <i_epik_Tot_Q>  (132) 
-1

>  <i_epik_Tot_abs_Q>  (132) 
1

>  <s_epik_Chemistry_Notes>  (132) 
This compound has an imine and may undergo hydrolysis.

>  <s_lp_Force_Field>  (132) 
OPLS3e

>  <r_lp_Energy>  (132) 
83.5156

>  <b_lp_Chiralities_Consistent>  (132) 
0

>  <s_lp_Variant>  (132) 
26:0-2

>  <s_i_glide_gridfile>  (132) 
pfpi4k_grid

>  <i_i_glide_lignum>  (132) 
6

>  <i_i_glide_rotatable_bonds>  (132) 
0

>  <r_i_docking_score>  (132) 
-2.00936

>  <r_i_glide_ligand_efficiency>  (132) 
-0.0627926

>  <r_i_glide_ligand_efficiency_sa>  (132) 
-0.199354

>  <r_i_glide_ligand_efficiency_ln>  (132) 
-0.449951

>  <r_i_glide_gscore>  (132) 
-2.00936

>  <r_i_glide_lipo>  (132) 
-0.0670231

>  <r_i_glide_hbond>  (132) 
0

>  <r_i_glide_metal>  (132) 
-0

>  <r_i_glide_rewards>  (132) 
-0.500953

>  <r_i_glide_evdw>  (132) 
-19.6351

>  <r_i_glide_ecoul>  (132) 
-3.05432

>  <r_i_glide_erotb>  (132) 
0

>  <r_i_glide_esite>  (132) 
-0.0014827

>  <r_i_glide_emodel>  (132) 
-26.6296

>  <r_i_glide_energy>  (132) 
-22.6894

>  <r_i_glide_einternal>  (132) 
0

>  <r_i_glide_intrahb_reward>  (132) 
-0

>  <i_i_glide_confnum>  (132) 
2

>  <i_i_glide_posenum>  (132) 
3

>  <r_i_glide_eff_state_penalty>  (132) 
0

>  <ligand_id>  (132) 
26

>  <original_smiles>  (132) 
C=C1CCC23OC24C1C(=O)C4C1C=C2CC(C(C)(C)C2C1)C31Oc2ccccc2N=C1C

>  <smiles>  (132) 
[H]C([H])=C1C([H])([H])C([H])([H])C23OC24C1([H])C(=O)C4([H])C1([H])C([H])=C2C([H])([H])C([H])(C34Oc3c([H])c([H])c([H])c([H])c3[N-]C4=C([H])[H])C(C([H])([H])[H])(C([H])([H])[H])C2([H])C1([H])[H]

$$$$
26:1:2
     RDKit          3D

 60 67  0  0  1  0  0  0  0  0999 V2000
    0.6462  -10.8531    3.7311 C   0  0  0  0  0  0  0  0  0  0  0  0
    1.8193  -10.2486    3.9708 C   0  0  0  0  0  0  0  0  0  0  0  0
    2.9204  -10.1295    2.9352 C   0  0  0  0  0  0  0  0  0  0  0  0
    3.1862   -8.6676    2.4937 C   0  0  0  0  0  0  0  0  0  0  0  0
    3.0409   -7.6049    3.6099 C   0  0  2  0  0  0  0  0  0  0  0  0
    3.8965   -7.8063    4.7553 O   0  0  0  0  0  0  0  0  0  0  0  0
    2.5225   -8.1397    4.9418 C   0  0  2  0  0  0  0  0  0  0  0  0
    2.2259   -9.5932    5.2733 C   0  0  1  0  0  0  0  0  0  0  0  0
    1.1486   -8.9469    6.2044 C   0  0  0  0  0  0  0  0  0  0  0  0
    0.2562   -9.4053    6.9094 O   0  0  0  0  0  0  0  0  0  0  0  0
    1.5490   -7.4729    5.9070 C   0  0  1  0  0  0  0  0  0  0  0  0
    2.0697   -6.6743    7.1357 C   0  0  1  0  0  0  0  0  0  0  0  0
    3.5148   -6.3001    6.9686 C   0  0  0  0  0  0  0  0  0  0  0  0
    3.5951   -5.1394    6.3291 C   0  0  0  0  0  0  0  0  0  0  0  0
    4.3794   -4.9270    5.0731 C   0  0  0  0  0  0  0  0  0  0  0  0
    3.2542   -4.8454    4.0028 C   0  0  2  0  0  0  0  0  0  0  0  0
    2.0627   -4.1165    4.7696 C   0  0  0  0  0  0  0  0  0  0  0  0
    2.1916   -2.5786    4.5748 C   0  0  0  0  0  0  0  0  0  0  0  0
    0.6279   -4.4059    4.3130 C   0  0  0  0  0  0  0  0  0  0  0  0
    2.3080   -4.3889    6.2785 C   0  0  1  0  0  0  0  0  0  0  0  0
    1.3669   -5.2989    7.1000 C   0  0  0  0  0  0  0  0  0  0  0  0
    3.0901   -6.1269    3.0351 C   0  0  1  0  0  0  0  0  0  0  0  0
    4.3811   -6.1489    2.3940 O   0  0  0  0  0  0  0  0  0  0  0  0
    4.5999   -5.2898    1.3403 C   0  0  0  0  0  0  0  0  0  0  0  0
    5.9173   -4.9310    1.0028 C   0  0  0  0  0  0  0  0  0  0  0  0
    6.1755   -3.9984   -0.0281 C   0  0  0  0  0  0  0  0  0  0  0  0
    5.0857   -3.4441   -0.7352 C   0  0  0  0  0  0  0  0  0  0  0  0
    3.7723   -3.8132   -0.4039 C   0  0  0  0  0  0  0  0  0  0  0  0
    3.5064   -4.7330    0.6333 C   0  0  0  0  0  0  0  0  0  0  0  0
    2.2396   -5.0671    0.9462 N   0  0  0  0  0  0  0  0  0  0  0  0
    1.9832   -5.8841    1.9685 C   0  0  0  0  0  0  0  0  0  0  0  0
    0.7584   -6.5551    2.0123 C   0  0  0  0  0  0  0  0  0  0  0  0
   -0.1245  -10.8947    4.4820 H   0  0  0  0  0  0  0  0  0  0  0  0
    0.4270  -11.2959    2.7679 H   0  0  0  0  0  0  0  0  0  0  0  0
    3.8202  -10.5412    3.3942 H   0  0  0  0  0  0  0  0  0  0  0  0
    2.7027  -10.7664    2.0770 H   0  0  0  0  0  0  0  0  0  0  0  0
    4.1713   -8.5984    2.0319 H   0  0  0  0  0  0  0  0  0  0  0  0
    2.4735   -8.4584    1.7013 H   0  0  0  0  0  0  0  0  0  0  0  0
    3.0105  -10.1242    5.8243 H   0  0  0  0  0  0  0  0  0  0  0  0
    0.6998   -7.0244    5.4085 H   0  0  0  0  0  0  0  0  0  0  0  0
    1.9128   -7.1978    8.0794 H   0  0  0  0  0  0  0  0  0  0  0  0
    4.2635   -7.0729    6.9058 H   0  0  0  0  0  0  0  0  0  0  0  0
    4.8317   -3.9420    5.1738 H   0  0  0  0  0  0  0  0  0  0  0  0
    5.1846   -5.6382    4.8653 H   0  0  0  0  0  0  0  0  0  0  0  0
    3.5946   -4.0677    3.3167 H   0  0  0  0  0  0  0  0  0  0  0  0
    1.4429   -2.0406    5.1598 H   0  0  0  0  0  0  0  0  0  0  0  0
    2.0483   -2.2751    3.5363 H   0  0  0  0  0  0  0  0  0  0  0  0
    3.1649   -2.1981    4.8898 H   0  0  0  0  0  0  0  0  0  0  0  0
   -0.1022   -3.8847    4.9334 H   0  0  0  0  0  0  0  0  0  0  0  0
    0.3729   -5.4536    4.3399 H   0  0  0  0  0  0  0  0  0  0  0  0
    0.4755   -4.0665    3.2891 H   0  0  0  0  0  0  0  0  0  0  0  0
    2.4768   -3.4533    6.8077 H   0  0  0  0  0  0  0  0  0  0  0  0
    0.3288   -5.3364    6.7621 H   0  0  0  0  0  0  0  0  0  0  0  0
    1.3312   -4.9052    8.1140 H   0  0  0  0  0  0  0  0  0  0  0  0
    6.7473   -5.3505    1.5641 H   0  0  0  0  0  0  0  0  0  0  0  0
    7.1823   -3.7190   -0.2707 H   0  0  0  0  0  0  0  0  0  0  0  0
    5.2672   -2.7373   -1.5444 H   0  0  0  0  0  0  0  0  0  0  0  0
    2.9448   -3.3768   -0.9643 H   0  0  0  0  0  0  0  0  0  0  0  0
    0.5169   -7.2496    2.8090 H   0  0  0  0  0  0  0  0  0  0  0  0
    0.0136   -6.4236    1.2386 H   0  0  0  0  0  0  0  0  0  0  0  0
  1  2  2  0
  1 33  1  0
  1 34  1  0
  2  8  1  0
  2  3  1  0
  3  4  1  0
  3 35  1  0
  3 36  1  0
  4  5  1  0
  4 37  1  0
  4 38  1  0
  5  7  1  0
  5 22  1  0
  5  6  1  1
  7  6  1  1
  7 11  1  0
  7  8  1  0
  8  9  1  0
  8 39  1  1
  9 10  2  0
  9 11  1  0
 11 12  1  0
 11 40  1  6
 12 21  1  0
 12 13  1  0
 12 41  1  1
 13 14  2  0
 13 42  1  0
 14 20  1  0
 14 15  1  0
 15 16  1  0
 15 43  1  0
 15 44  1  0
 16 17  1  0
 16 22  1  0
 16 45  1  6
 17 18  1  0
 17 19  1  0
 17 20  1  0
 18 46  1  0
 18 47  1  0
 18 48  1  0
 19 49  1  0
 19 50  1  0
 19 51  1  0
 20 21  1  0
 20 52  1  1
 21 53  1  0
 21 54  1  0
 22 31  1  0
 22 23  1  6
 23 24  1  0
 24 29  2  0
 24 25  1  0
 25 26  2  0
 25 55  1  0
 26 27  1  0
 26 56  1  0
 27 28  2  0
 27 57  1  0
 28 29  1  0
 28 58  1  0
 29 30  1  0
 30 31  1  0
 31 32  2  0
 32 59  1  0
 32 60  1  0
M  CHG  1  30  -1
M  END
>  <i_m_ct_stereo_status>  (133) 
1

>  <s_m_source_file>  (133) 
/var/tmp/pbs.5076255.sched01/tmpstc2q6q5/48db17pvb_.sdf

>  <i_m_source_file_index>  (133) 
6

>  <i_lp_mmshare_version>  (133) 
48012

>  <i_f3d_flags>  (133) 
2

>  <s_epik_input>  (133) 
W0NIMl0xW0NIMl1DKD1bQ0gyXSlbQ0BIXShbQ0BAXTIoQzEzNClPMylDKD1PKVtDQEhdMltDQEhdNVtDSF09QzZbQ0BASF0oW0NIMl01KUMoW0NIM10pKFtDSDNdKVtDQEhdKFtDSDJdNilbQ0BAXTQ3T2M4YyhOPUM3W0NIM10pW2NIXVtjSF1bY0hdW2NIXTg=

>  <s_epik_cmdline>  (133) 
J2VwaWtfcHl0aG9uJywgJy1waHQnLCAnMi4wJywgJy1waCcsICc3LjAnLCAnLXRuJywgJzgnLCAnLW1hJywgJzIwMCcsICctaW1hZScsICc8aW5maWxlLm1hZT4nLCAnLW9tYWUnLCAnPG91dGZpbGUubWFlPic=

>  <r_epik_Ionization_Penalty>  (133) 
0.0504177

>  <r_epik_Ionization_Penalty_Charging>  (133) 
0

>  <r_epik_Ionization_Penalty_Neutral>  (133) 
0.0504177

>  <r_epik_State_Penalty>  (133) 
0.0431277

>  <r_epik_Charging_Adjusted_Penalty>  (133) 
0.0431277

>  <i_epik_Tot_Q>  (133) 
-1

>  <i_epik_Tot_abs_Q>  (133) 
1

>  <s_epik_Chemistry_Notes>  (133) 
This compound has an imine and may undergo hydrolysis.

>  <s_lp_Force_Field>  (133) 
OPLS3e

>  <r_lp_Energy>  (133) 
83.5156

>  <b_lp_Chiralities_Consistent>  (133) 
0

>  <s_lp_Variant>  (133) 
26:0-2

>  <s_i_glide_gridfile>  (133) 
pfpi4k_grid

>  <i_i_glide_lignum>  (133) 
6

>  <i_i_glide_rotatable_bonds>  (133) 
0

>  <r_i_docking_score>  (133) 
-1.89432

>  <r_i_glide_ligand_efficiency>  (133) 
-0.0591975

>  <r_i_glide_ligand_efficiency_sa>  (133) 
-0.18794

>  <r_i_glide_ligand_efficiency_ln>  (133) 
-0.42419

>  <r_i_glide_gscore>  (133) 
-1.89432

>  <r_i_glide_lipo>  (133) 
-0.249407

>  <r_i_glide_hbond>  (133) 
-0.018101

>  <r_i_glide_metal>  (133) 
-0

>  <r_i_glide_rewards>  (133) 
-0.500953

>  <r_i_glide_evdw>  (133) 
-24.3886

>  <r_i_glide_ecoul>  (133) 
0.911219

>  <r_i_glide_erotb>  (133) 
0

>  <r_i_glide_esite>  (133) 
-0.0431102

>  <r_i_glide_emodel>  (133) 
-27.1141

>  <r_i_glide_energy>  (133) 
-23.4774

>  <r_i_glide_einternal>  (133) 
0

>  <r_i_glide_intrahb_reward>  (133) 
-0

>  <i_i_glide_confnum>  (133) 
2

>  <i_i_glide_posenum>  (133) 
4

>  <r_i_glide_eff_state_penalty>  (133) 
0

>  <ligand_id>  (133) 
26

>  <original_smiles>  (133) 
C=C1CCC23OC24C1C(=O)C4C1C=C2CC(C(C)(C)C2C1)C31Oc2ccccc2N=C1C

>  <smiles>  (133) 
[H]C([H])=C1C([H])([H])C([H])([H])C23OC24C1([H])C(=O)C4([H])C1([H])C([H])=C2C([H])([H])C([H])(C34Oc3c([H])c([H])c([H])c([H])c3[N-]C4=C([H])[H])C(C([H])([H])[H])(C([H])([H])[H])C2([H])C1([H])[H]

$$$$
27:0:0
     RDKit          3D

 37 41  0  0  1  0  0  0  0  0999 V2000
   -3.0162    2.8339   10.4354 C   0  0  0  0  0  0  0  0  0  0  0  0
   -1.7653    3.5087   10.3898 O   0  0  0  0  0  0  0  0  0  0  0  0
   -0.8351    2.8850    9.5167 C   0  0  2  0  0  0  0  0  0  0  0  0
    0.6032    3.2904    9.8253 C   0  0  2  0  0  0  0  0  0  0  0  0
    1.0499    4.5873    9.3907 O   0  0  0  0  0  0  0  0  0  0  0  0
    1.3527    3.4841    8.5237 C   0  0  2  0  0  0  0  0  0  0  0  0
    0.3638    3.0457    7.4713 C   0  0  2  0  0  0  0  0  0  0  0  0
    0.1915    3.5948    6.1775 O   0  0  0  0  0  0  0  0  0  0  0  0
   -1.1469    3.2342    5.7373 C   0  0  2  0  0  0  0  0  0  0  0  0
   -1.9310    2.8669    7.0260 C   0  0  1  0  0  0  0  0  0  0  0  0
   -2.0753    1.4550    6.9990 O   0  0  0  0  0  0  0  0  0  0  0  0
   -1.7713    0.8960    5.8303 C   0  0  0  0  0  0  0  0  0  0  0  0
   -1.9456   -0.2894    5.5443 O   0  0  0  0  0  0  0  0  0  0  0  0
   -1.2440    1.9598    4.8678 C   0  0  1  0  0  0  0  0  0  0  0  0
   -2.1310    2.1596    3.7090 N   0  0  0  0  0  0  0  0  0  0  0  0
   -1.2743    2.1125    2.5277 C   0  0  0  0  0  0  0  0  0  0  0  0
    0.0378    1.6422    2.9215 N   0  0  0  0  0  0  0  0  0  0  0  0
    1.1108    1.3956    1.9716 C   0  0  0  0  0  0  0  0  0  0  0  0
    0.0967    1.5275    4.2474 C   0  0  0  0  0  0  0  0  0  0  0  0
    1.0703    1.1367    4.8935 O   0  0  0  0  0  0  0  0  0  0  0  0
   -0.9701    3.3696    8.0740 C   0  0  1  0  0  0  0  0  0  0  0  0
   -3.7323    3.3814   11.0481 H   0  0  0  0  0  0  0  0  0  0  0  0
   -2.8820    1.8517   10.8753 H   0  0  0  0  0  0  0  0  0  0  0  0
   -3.4482    2.7049    9.4426 H   0  0  0  0  0  0  0  0  0  0  0  0
   -0.8839    1.7929    9.5851 H   0  0  0  0  0  0  0  0  0  0  0  0
    1.0980    2.8642   10.6976 H   0  0  0  0  0  0  0  0  0  0  0  0
    2.3978    3.1904    8.4459 H   0  0  0  0  0  0  0  0  0  0  0  0
    0.4973    1.9640    7.3713 H   0  0  0  0  0  0  0  0  0  0  0  0
   -1.5805    4.1037    5.2414 H   0  0  0  0  0  0  0  0  0  0  0  0
   -2.9061    3.3465    7.0860 H   0  0  0  0  0  0  0  0  0  0  0  0
   -2.7684    1.3624    3.6417 H   0  0  0  0  0  0  0  0  0  0  0  0
   -1.6946    1.4524    1.7637 H   0  0  0  0  0  0  0  0  0  0  0  0
   -1.2008    3.1041    2.0876 H   0  0  0  0  0  0  0  0  0  0  0  0
    2.0167    1.0712    2.4808 H   0  0  0  0  0  0  0  0  0  0  0  0
    1.3504    2.3071    1.4247 H   0  0  0  0  0  0  0  0  0  0  0  0
    0.8224    0.6179    1.2632 H   0  0  0  0  0  0  0  0  0  0  0  0
   -1.0638    4.4539    8.0997 H   0  0  0  0  0  0  0  0  0  0  0  0
  1  2  1  0
  1 22  1  0
  1 23  1  0
  1 24  1  0
  2  3  1  0
  3 21  1  0
  3  4  1  0
  3 25  1  6
  4  6  1  0
  4  5  1  0
  4 26  1  1
  5  6  1  0
  6  7  1  0
  6 27  1  1
  7 21  1  0
  7  8  1  0
  7 28  1  6
  8  9  1  0
  9 14  1  0
  9 10  1  0
  9 29  1  6
 10 11  1  0
 10 21  1  0
 10 30  1  6
 11 12  1  0
 12 13  2  0
 12 14  1  0
 14 19  1  0
 14 15  1  6
 15 16  1  0
 15 31  1  0
 16 17  1  0
 16 32  1  0
 16 33  1  0
 17 18  1  0
 17 19  1  0
 18 34  1  0
 18 35  1  0
 18 36  1  0
 19 20  2  0
 21 37  1  1
M  END
>  <i_m_ct_stereo_status>  (134) 
1

>  <s_m_source_file>  (134) 
/var/tmp/pbs.5076255.sched01/tmpstc2q6q5/48db17pvb_.sdf

>  <i_m_source_file_index>  (134) 
8

>  <i_lp_mmshare_version>  (134) 
48012

>  <i_f3d_flags>  (134) 
0

>  <s_epik_input>  (134) 
W0NIM11PW0NAQEhdMVtDQEhdKE8yKVtDQEhdMltDQEhdKE8zKVtDQEhdMVtDQEhdKE9DND1PKVtDQEBIXTNbQ0BdNDVbTkhdW0NIMl1OKFtDSDNdKUM1PU8=

>  <s_epik_cmdline>  (134) 
J2VwaWtfcHl0aG9uJywgJy1waHQnLCAnMi4wJywgJy1waCcsICc3LjAnLCAnLXRuJywgJzgnLCAnLW1hJywgJzIwMCcsICctaW1hZScsICc8aW5maWxlLm1hZT4nLCAnLW9tYWUnLCAnPG91dGZpbGUubWFlPic=

>  <r_epik_Ionization_Penalty>  (134) 
0.000369953

>  <r_epik_Ionization_Penalty_Charging>  (134) 
0

>  <r_epik_Ionization_Penalty_Neutral>  (134) 
0.000369953

>  <r_epik_State_Penalty>  (134) 
0.000225552

>  <r_epik_Charging_Adjusted_Penalty>  (134) 
0.000225552

>  <i_epik_Tot_Q>  (134) 
0

>  <i_epik_Tot_abs_Q>  (134) 
0

>  <s_epik_Chemistry_Notes>  (134) 
This compound has an ester and may undergo hydrolysis at high or low pH. This compound contains an acetal/aminal-like group ( X-CH(R)-Y where X, Y are N, S, or O) that may be acid/base labile, releasing an aldehyde.

>  <s_lp_Force_Field>  (134) 
OPLS3e

>  <r_lp_Energy>  (134) 
15.3462

>  <b_lp_Chiralities_Consistent>  (134) 
1

>  <s_lp_Variant>  (134) 
27:0-1

>  <s_i_glide_gridfile>  (134) 
pfpi4k_grid

>  <i_i_glide_lignum>  (134) 
8

>  <i_i_glide_rotatable_bonds>  (134) 
1

>  <r_i_docking_score>  (134) 
-3.57323

>  <r_i_glide_ligand_efficiency>  (134) 
-0.170154

>  <r_i_glide_ligand_efficiency_sa>  (134) 
-0.469441

>  <r_i_glide_ligand_efficiency_ln>  (134) 
-0.883473

>  <r_i_glide_gscore>  (134) 
-3.57323

>  <r_i_glide_lipo>  (134) 
-0.05674

>  <r_i_glide_hbond>  (134) 
-0.400328

>  <r_i_glide_metal>  (134) 
-0

>  <r_i_glide_rewards>  (134) 
-1.38903

>  <r_i_glide_evdw>  (134) 
-18.2769

>  <r_i_glide_ecoul>  (134) 
-4.2885

>  <r_i_glide_erotb>  (134) 
0

>  <r_i_glide_esite>  (134) 
-0.170011

>  <r_i_glide_emodel>  (134) 
-28.0462

>  <r_i_glide_energy>  (134) 
-22.5654

>  <r_i_glide_einternal>  (134) 
1.06045

>  <r_i_glide_intrahb_reward>  (134) 
-0

>  <i_i_glide_confnum>  (134) 
3

>  <i_i_glide_posenum>  (134) 
38

>  <r_i_glide_eff_state_penalty>  (134) 
0

>  <ligand_id>  (134) 
27

>  <original_smiles>  (134) 
COC1C2OC2C2OC3C(OC(=O)C34NCN(C)C4=O)C12

>  <smiles>  (134) 
[H]N1C([H])([H])N(C([H])([H])[H])C(=O)C12C(=O)OC1([H])C2([H])OC2([H])C3([H])OC3([H])C([H])(OC([H])([H])[H])C12[H]

$$$$
27:0:1
     RDKit          3D

 37 41  0  0  1  0  0  0  0  0999 V2000
   -2.9970    2.8750   10.6526 C   0  0  0  0  0  0  0  0  0  0  0  0
   -2.7131    3.0949    9.2818 O   0  0  0  0  0  0  0  0  0  0  0  0
   -1.5405    2.4408    8.8316 C   0  0  2  0  0  0  0  0  0  0  0  0
   -0.2473    2.9190    9.4964 C   0  0  2  0  0  0  0  0  0  0  0  0
    0.2618    4.2123    9.1117 O   0  0  0  0  0  0  0  0  0  0  0  0
    0.8310    3.0670    8.4479 C   0  0  2  0  0  0  0  0  0  0  0  0
    0.1941    2.5119    7.1967 C   0  0  2  0  0  0  0  0  0  0  0  0
    0.3821    2.9759    5.8785 O   0  0  0  0  0  0  0  0  0  0  0  0
   -0.7638    2.5181    5.1065 C   0  0  2  0  0  0  0  0  0  0  0  0
   -1.8758    2.1848    6.1424 C   0  0  1  0  0  0  0  0  0  0  0  0
   -1.9472    0.7682    6.1867 O   0  0  0  0  0  0  0  0  0  0  0  0
   -1.3210    0.1638    5.1815 C   0  0  0  0  0  0  0  0  0  0  0  0
   -1.3925   -1.0351    4.9240 O   0  0  0  0  0  0  0  0  0  0  0  0
   -0.5516    1.1994    4.3432 C   0  0  1  0  0  0  0  0  0  0  0  0
   -1.0678    1.3037    2.9705 N   0  0  0  0  0  0  0  0  0  0  0  0
    0.0860    1.1865    2.0811 C   0  0  0  0  0  0  0  0  0  0  0  0
    1.2410    0.8134    2.8718 N   0  0  0  0  0  0  0  0  0  0  0  0
    2.5398    0.5572    2.2765 C   0  0  0  0  0  0  0  0  0  0  0  0
    0.9187    0.7839    4.1645 C   0  0  0  0  0  0  0  0  0  0  0  0
    1.6694    0.4601    5.0915 O   0  0  0  0  0  0  0  0  0  0  0  0
   -1.2632    2.8052    7.3802 C   0  0  1  0  0  0  0  0  0  0  0  0
   -3.9470    3.3367   10.9230 H   0  0  0  0  0  0  0  0  0  0  0  0
   -2.2265    3.3033   11.2938 H   0  0  0  0  0  0  0  0  0  0  0  0
   -3.0541    1.8088   10.8704 H   0  0  0  0  0  0  0  0  0  0  0  0
   -1.6164    1.3587    8.9597 H   0  0  0  0  0  0  0  0  0  0  0  0
   -0.0022    2.5667   10.4998 H   0  0  0  0  0  0  0  0  0  0  0  0
    1.8624    2.8091    8.6913 H   0  0  0  0  0  0  0  0  0  0  0  0
    0.3797    1.4357    7.2240 H   0  0  0  0  0  0  0  0  0  0  0  0
   -1.0624    3.3268    4.4348 H   0  0  0  0  0  0  0  0  0  0  0  0
   -2.8424    2.6227    5.8967 H   0  0  0  0  0  0  0  0  0  0  0  0
   -1.6779    0.5151    2.8204 H   0  0  0  0  0  0  0  0  0  0  0  0
   -0.0908    0.4429    1.3073 H   0  0  0  0  0  0  0  0  0  0  0  0
    0.2723    2.1254    1.5634 H   0  0  0  0  0  0  0  0  0  0  0  0
    3.2731    0.3093    3.0429 H   0  0  0  0  0  0  0  0  0  0  0  0
    2.9030    1.4379    1.7460 H   0  0  0  0  0  0  0  0  0  0  0  0
    2.4827   -0.2765    1.5768 H   0  0  0  0  0  0  0  0  0  0  0  0
   -1.3893    3.8875    7.2949 H   0  0  0  0  0  0  0  0  0  0  0  0
  1  2  1  0
  1 22  1  0
  1 23  1  0
  1 24  1  0
  2  3  1  0
  3 21  1  0
  3  4  1  0
  3 25  1  6
  4  6  1  0
  4  5  1  0
  4 26  1  1
  5  6  1  0
  6  7  1  0
  6 27  1  1
  7 21  1  0
  7  8  1  0
  7 28  1  6
  8  9  1  0
  9 14  1  0
  9 10  1  0
  9 29  1  6
 10 11  1  0
 10 21  1  0
 10 30  1  6
 11 12  1  0
 12 13  2  0
 12 14  1  0
 14 19  1  0
 14 15  1  6
 15 16  1  0
 15 31  1  0
 16 17  1  0
 16 32  1  0
 16 33  1  0
 17 18  1  0
 17 19  1  0
 18 34  1  0
 18 35  1  0
 18 36  1  0
 19 20  2  0
 21 37  1  1
M  END
>  <i_m_ct_stereo_status>  (135) 
1

>  <s_m_source_file>  (135) 
/var/tmp/pbs.5076255.sched01/tmpstc2q6q5/48db17pvb_.sdf

>  <i_m_source_file_index>  (135) 
8

>  <i_lp_mmshare_version>  (135) 
48012

>  <i_f3d_flags>  (135) 
0

>  <s_epik_input>  (135) 
W0NIM11PW0NAQEhdMVtDQEhdKE8yKVtDQEhdMltDQEhdKE8zKVtDQEhdMVtDQEhdKE9DND1PKVtDQEBIXTNbQ0BdNDVbTkhdW0NIMl1OKFtDSDNdKUM1PU8=

>  <s_epik_cmdline>  (135) 
J2VwaWtfcHl0aG9uJywgJy1waHQnLCAnMi4wJywgJy1waCcsICc3LjAnLCAnLXRuJywgJzgnLCAnLW1hJywgJzIwMCcsICctaW1hZScsICc8aW5maWxlLm1hZT4nLCAnLW9tYWUnLCAnPG91dGZpbGUubWFlPic=

>  <r_epik_Ionization_Penalty>  (135) 
0.000369953

>  <r_epik_Ionization_Penalty_Charging>  (135) 
0

>  <r_epik_Ionization_Penalty_Neutral>  (135) 
0.000369953

>  <r_epik_State_Penalty>  (135) 
0.000225552

>  <r_epik_Charging_Adjusted_Penalty>  (135) 
0.000225552

>  <i_epik_Tot_Q>  (135) 
0

>  <i_epik_Tot_abs_Q>  (135) 
0

>  <s_epik_Chemistry_Notes>  (135) 
This compound has an ester and may undergo hydrolysis at high or low pH. This compound contains an acetal/aminal-like group ( X-CH(R)-Y where X, Y are N, S, or O) that may be acid/base labile, releasing an aldehyde.

>  <s_lp_Force_Field>  (135) 
OPLS3e

>  <r_lp_Energy>  (135) 
15.3462

>  <b_lp_Chiralities_Consistent>  (135) 
1

>  <s_lp_Variant>  (135) 
27:0-1

>  <s_i_glide_gridfile>  (135) 
pfpi4k_grid

>  <i_i_glide_lignum>  (135) 
8

>  <i_i_glide_rotatable_bonds>  (135) 
1

>  <r_i_docking_score>  (135) 
-3.12312

>  <r_i_glide_ligand_efficiency>  (135) 
-0.14872

>  <r_i_glide_ligand_efficiency_sa>  (135) 
-0.410307

>  <r_i_glide_ligand_efficiency_ln>  (135) 
-0.772185

>  <r_i_glide_gscore>  (135) 
-3.12312

>  <r_i_glide_lipo>  (135) 
-0.0147213

>  <r_i_glide_hbond>  (135) 
-0.142861

>  <r_i_glide_metal>  (135) 
-0

>  <r_i_glide_rewards>  (135) 
-1.38903

>  <r_i_glide_evdw>  (135) 
-18.8261

>  <r_i_glide_ecoul>  (135) 
-3.27997

>  <r_i_glide_erotb>  (135) 
0

>  <r_i_glide_esite>  (135) 
-0.143205

>  <r_i_glide_emodel>  (135) 
-27.231

>  <r_i_glide_energy>  (135) 
-22.1061

>  <r_i_glide_einternal>  (135) 
0.138472

>  <r_i_glide_intrahb_reward>  (135) 
-0

>  <i_i_glide_confnum>  (135) 
1

>  <i_i_glide_posenum>  (135) 
20

>  <r_i_glide_eff_state_penalty>  (135) 
0

>  <ligand_id>  (135) 
27

>  <original_smiles>  (135) 
COC1C2OC2C2OC3C(OC(=O)C34NCN(C)C4=O)C12

>  <smiles>  (135) 
[H]N1C([H])([H])N(C([H])([H])[H])C(=O)C12C(=O)OC1([H])C2([H])OC2([H])C3([H])OC3([H])C([H])(OC([H])([H])[H])C12[H]

$$$$
27:0:2
     RDKit          3D

 37 41  0  0  1  0  0  0  0  0999 V2000
   -3.7671    3.1544    9.5910 C   0  0  0  0  0  0  0  0  0  0  0  0
   -3.3877    3.3048    8.2357 O   0  0  0  0  0  0  0  0  0  0  0  0
   -2.0376    2.9687    7.9691 C   0  0  2  0  0  0  0  0  0  0  0  0
   -1.0246    3.9307    8.5887 C   0  0  2  0  0  0  0  0  0  0  0  0
   -0.8798    5.2269    7.9814 O   0  0  0  0  0  0  0  0  0  0  0  0
    0.0659    4.2204    7.5845 C   0  0  2  0  0  0  0  0  0  0  0  0
   -0.2460    3.2935    6.4356 C   0  0  2  0  0  0  0  0  0  0  0  0
   -0.0720    3.5645    5.0560 O   0  0  0  0  0  0  0  0  0  0  0  0
   -0.9330    2.6491    4.3276 C   0  0  2  0  0  0  0  0  0  0  0  0
   -1.9898    2.1861    5.3598 C   0  0  1  0  0  0  0  0  0  0  0  0
   -1.6873    0.8356    5.6688 O   0  0  0  0  0  0  0  0  0  0  0  0
   -0.8003    0.2880    4.8498 C   0  0  0  0  0  0  0  0  0  0  0  0
   -0.4770   -0.9026    4.8478 O   0  0  0  0  0  0  0  0  0  0  0  0
   -0.2808    1.3283    3.8555 C   0  0  1  0  0  0  0  0  0  0  0  0
   -0.6480    0.9885    2.4697 N   0  0  0  0  0  0  0  0  0  0  0  0
    0.5795    0.5361    1.8172 C   0  0  0  0  0  0  0  0  0  0  0  0
    1.6992    0.8806    2.6618 N   0  0  0  0  0  0  0  0  0  0  0  0
    3.0843    0.7186    2.2520 C   0  0  0  0  0  0  0  0  0  0  0  0
    1.2581    1.3156    3.8413 C   0  0  0  0  0  0  0  0  0  0  0  0
    1.9714    1.6347    4.7955 O   0  0  0  0  0  0  0  0  0  0  0  0
   -1.7339    3.1542    6.4853 C   0  0  1  0  0  0  0  0  0  0  0  0
   -4.8379    3.3265    9.6846 H   0  0  0  0  0  0  0  0  0  0  0  0
   -3.2413    3.8585   10.2336 H   0  0  0  0  0  0  0  0  0  0  0  0
   -3.5604    2.1461    9.9465 H   0  0  0  0  0  0  0  0  0  0  0  0
   -1.8142    1.9477    8.2918 H   0  0  0  0  0  0  0  0  0  0  0  0
   -0.8003    3.8584    9.6508 H   0  0  0  0  0  0  0  0  0  0  0  0
    1.0932    4.3432    7.9199 H   0  0  0  0  0  0  0  0  0  0  0  0
    0.2406    2.3429    6.6748 H   0  0  0  0  0  0  0  0  0  0  0  0
   -1.3926    3.2012    3.5047 H   0  0  0  0  0  0  0  0  0  0  0  0
   -2.9838    2.2733    4.9588 H   0  0  0  0  0  0  0  0  0  0  0  0
   -0.9777    1.8247    1.9958 H   0  0  0  0  0  0  0  0  0  0  0  0
    0.5719   -0.5468    1.6861 H   0  0  0  0  0  0  0  0  0  0  0  0
    0.6830    0.9710    0.8233 H   0  0  0  0  0  0  0  0  0  0  0  0
    3.7627    1.0357    3.0438 H   0  0  0  0  0  0  0  0  0  0  0  0
    3.2934    1.3301    1.3741 H   0  0  0  0  0  0  0  0  0  0  0  0
    3.2967   -0.3253    2.0233 H   0  0  0  0  0  0  0  0  0  0  0  0
   -2.1635    4.1085    6.1833 H   0  0  0  0  0  0  0  0  0  0  0  0
  1  2  1  0
  1 22  1  0
  1 23  1  0
  1 24  1  0
  2  3  1  0
  3 21  1  0
  3  4  1  0
  3 25  1  1
  4  6  1  0
  4  5  1  0
  4 26  1  1
  5  6  1  0
  6  7  1  0
  6 27  1  1
  7 21  1  0
  7  8  1  0
  7 28  1  1
  8  9  1  0
  9 14  1  0
  9 10  1  0
  9 29  1  6
 10 11  1  0
 10 21  1  0
 10 30  1  6
 11 12  1  0
 12 13  2  0
 12 14  1  0
 14 19  1  0
 14 15  1  6
 15 16  1  0
 15 31  1  0
 16 17  1  0
 16 32  1  0
 16 33  1  0
 17 18  1  0
 17 19  1  0
 18 34  1  0
 18 35  1  0
 18 36  1  0
 19 20  2  0
 21 37  1  6
M  END
>  <i_m_ct_stereo_status>  (136) 
1

>  <s_m_source_file>  (136) 
/var/tmp/pbs.5076255.sched01/tmpstc2q6q5/48db17pvb_.sdf

>  <i_m_source_file_index>  (136) 
8

>  <i_lp_mmshare_version>  (136) 
48012

>  <i_f3d_flags>  (136) 
0

>  <s_epik_input>  (136) 
W0NIM11PW0NAQEhdMVtDQEhdKE8yKVtDQEhdMltDQEhdKE8zKVtDQEhdMVtDQEhdKE9DND1PKVtDQEBIXTNbQ0BdNDVbTkhdW0NIMl1OKFtDSDNdKUM1PU8=

>  <s_epik_cmdline>  (136) 
J2VwaWtfcHl0aG9uJywgJy1waHQnLCAnMi4wJywgJy1waCcsICc3LjAnLCAnLXRuJywgJzgnLCAnLW1hJywgJzIwMCcsICctaW1hZScsICc8aW5maWxlLm1hZT4nLCAnLW9tYWUnLCAnPG91dGZpbGUubWFlPic=

>  <r_epik_Ionization_Penalty>  (136) 
0.000369953

>  <r_epik_Ionization_Penalty_Charging>  (136) 
0

>  <r_epik_Ionization_Penalty_Neutral>  (136) 
0.000369953

>  <r_epik_State_Penalty>  (136) 
0.000225552

>  <r_epik_Charging_Adjusted_Penalty>  (136) 
0.000225552

>  <i_epik_Tot_Q>  (136) 
0

>  <i_epik_Tot_abs_Q>  (136) 
0

>  <s_epik_Chemistry_Notes>  (136) 
This compound has an ester and may undergo hydrolysis at high or low pH. This compound contains an acetal/aminal-like group ( X-CH(R)-Y where X, Y are N, S, or O) that may be acid/base labile, releasing an aldehyde.

>  <s_lp_Force_Field>  (136) 
OPLS3e

>  <r_lp_Energy>  (136) 
15.3462

>  <b_lp_Chiralities_Consistent>  (136) 
1

>  <s_lp_Variant>  (136) 
27:0-1

>  <s_i_glide_gridfile>  (136) 
pfpi4k_grid

>  <i_i_glide_lignum>  (136) 
8

>  <i_i_glide_rotatable_bonds>  (136) 
1

>  <r_i_docking_score>  (136) 
-3.02425

>  <r_i_glide_ligand_efficiency>  (136) 
-0.144012

>  <r_i_glide_ligand_efficiency_sa>  (136) 
-0.397318

>  <r_i_glide_ligand_efficiency_ln>  (136) 
-0.74774

>  <r_i_glide_gscore>  (136) 
-3.02425

>  <r_i_glide_lipo>  (136) 
-0.16721

>  <r_i_glide_hbond>  (136) 
0

>  <r_i_glide_metal>  (136) 
-0

>  <r_i_glide_rewards>  (136) 
-1.38903

>  <r_i_glide_evdw>  (136) 
-20.6106

>  <r_i_glide_ecoul>  (136) 
-2.0189

>  <r_i_glide_erotb>  (136) 
0

>  <r_i_glide_esite>  (136) 
-0.134647

>  <r_i_glide_emodel>  (136) 
-27.622

>  <r_i_glide_energy>  (136) 
-22.6295

>  <r_i_glide_einternal>  (136) 
0.0417884

>  <r_i_glide_intrahb_reward>  (136) 
-0

>  <i_i_glide_confnum>  (136) 
2

>  <i_i_glide_posenum>  (136) 
3

>  <r_i_glide_eff_state_penalty>  (136) 
0

>  <ligand_id>  (136) 
27

>  <original_smiles>  (136) 
COC1C2OC2C2OC3C(OC(=O)C34NCN(C)C4=O)C12

>  <smiles>  (136) 
[H]N1C([H])([H])N(C([H])([H])[H])C(=O)C12C(=O)OC1([H])C2([H])OC2([H])C3([H])OC3([H])C([H])(OC([H])([H])[H])C12[H]

$$$$
28:0:0
     RDKit          3D

 37 40  0  0  1  0  0  0  0  0999 V2000
    4.8001   -3.8343   -3.3851 O   0  0  0  0  0  0  0  0  0  0  0  0
    4.2578   -2.7601   -2.6358 C   0  0  0  0  0  0  0  0  0  0  0  0
    4.9451   -2.8100   -1.2391 C   0  0  2  0  0  0  0  0  0  0  0  0
    4.6609   -4.1560   -0.5130 C   0  0  0  0  0  0  0  0  0  0  0  0
    5.3246   -4.1782    0.8857 C   0  0  1  0  0  0  0  0  0  0  0  0
    6.8500   -4.0066    0.7307 C   0  0  0  0  0  0  0  0  0  0  0  0
    7.1610   -2.6664    0.0363 C   0  0  2  0  0  0  0  0  0  0  0  0
    6.5877   -1.4995    0.8749 C   0  0  0  0  0  0  0  0  0  0  0  0
    5.0779   -1.6823    1.0459 C   0  0  2  0  0  0  0  0  0  0  0  0
    4.7539   -3.0231    1.7304 C   0  0  0  0  0  0  0  0  0  0  0  0
    4.4110   -1.6432   -0.3417 C   0  0  0  0  0  0  0  0  0  0  0  0
    6.4879   -2.6625   -1.3649 C   0  0  0  0  0  0  0  0  0  0  0  0
    4.2883   -1.4356   -3.4287 C   0  0  0  0  0  0  0  0  0  0  0  0
    2.8351   -1.6517   -3.7626 C   0  0  0  0  0  0  0  0  0  0  0  0
    2.7203   -2.7209   -2.6961 C   0  0  0  0  0  0  0  0  0  0  0  0
    4.3760   -4.6340   -3.0884 H   0  0  0  0  0  0  0  0  0  0  0  0
    3.5928   -4.3303   -0.4237 H   0  0  0  0  0  0  0  0  0  0  0  0
    5.0375   -5.0178   -1.0700 H   0  0  0  0  0  0  0  0  0  0  0  0
    5.1053   -5.1248    1.3817 H   0  0  0  0  0  0  0  0  0  0  0  0
    7.3367   -4.0328    1.7085 H   0  0  0  0  0  0  0  0  0  0  0  0
    7.2583   -4.8353    0.1576 H   0  0  0  0  0  0  0  0  0  0  0  0
    8.2432   -2.5541   -0.0605 H   0  0  0  0  0  0  0  0  0  0  0  0
    7.0204   -1.4341    1.8730 H   0  0  0  0  0  0  0  0  0  0  0  0
    6.7996   -0.5475    0.3879 H   0  0  0  0  0  0  0  0  0  0  0  0
    4.6994   -0.8595    1.6601 H   0  0  0  0  0  0  0  0  0  0  0  0
    3.6737   -3.1198    1.8134 H   0  0  0  0  0  0  0  0  0  0  0  0
    5.1405   -3.0556    2.7534 H   0  0  0  0  0  0  0  0  0  0  0  0
    4.6165   -0.6651   -0.7780 H   0  0  0  0  0  0  0  0  0  0  0  0
    3.3275   -1.6885   -0.1997 H   0  0  0  0  0  0  0  0  0  0  0  0
    6.9181   -3.4672   -1.9657 H   0  0  0  0  0  0  0  0  0  0  0  0
    6.7361   -1.7627   -1.9105 H   0  0  0  0  0  0  0  0  0  0  0  0
    4.4183   -0.5296   -2.8295 H   0  0  0  0  0  0  0  0  0  0  0  0
    4.9042   -1.4503   -4.3299 H   0  0  0  0  0  0  0  0  0  0  0  0
    2.2359   -0.7580   -3.6404 H   0  0  0  0  0  0  0  0  0  0  0  0
    2.7080   -2.0930   -4.7343 H   0  0  0  0  0  0  0  0  0  0  0  0
    2.2553   -3.6462   -3.0607 H   0  0  0  0  0  0  0  0  0  0  0  0
    2.2191   -2.3178   -1.8190 H   0  0  0  0  0  0  0  0  0  0  0  0
  1  2  1  0
  1 16  1  0
  2 15  1  0
  3  2  1  6
  2 13  1  0
  3 11  1  0
  3 12  1  0
  3  4  1  0
  4  5  1  0
  4 17  1  0
  4 18  1  0
  5 10  1  0
  5  6  1  0
  5 19  1  1
  6  7  1  0
  6 20  1  0
  6 21  1  0
  7  8  1  0
  7 12  1  0
  7 22  1  6
  8  9  1  0
  8 23  1  0
  8 24  1  0
  9 10  1  0
  9 11  1  0
  9 25  1  1
 10 26  1  0
 10 27  1  0
 11 28  1  0
 11 29  1  0
 12 30  1  0
 12 31  1  0
 13 14  1  0
 13 32  1  0
 13 33  1  0
 14 15  1  0
 14 34  1  0
 14 35  1  0
 15 36  1  0
 15 37  1  0
M  END
>  <i_m_ct_stereo_status>  (137) 
1

>  <s_m_source_file>  (137) 
/var/tmp/pbs.5076255.sched01/tmpstc2q6q5/48db17pvb_.sdf

>  <i_m_source_file_index>  (137) 
9

>  <i_lp_mmshare_version>  (137) 
48012

>  <i_f3d_flags>  (137) 
0

>  <s_epik_input>  (137) 
W0NIMl0xW0NIMl1bQ0gyXUMxKFtPSF0pQzIzW0NIMl1bQ0BIXTRbQ0gyXVtDQEBIXShbQ0gyXTMpW0NIMl1bQ0BIXShbQ0gyXTQpW0NIMl0y

>  <s_epik_cmdline>  (137) 
J2VwaWtfcHl0aG9uJywgJy1waHQnLCAnMi4wJywgJy1waCcsICc3LjAnLCAnLXRuJywgJzgnLCAnLW1hJywgJzIwMCcsICctaW1hZScsICc8aW5maWxlLm1hZT4nLCAnLW9tYWUnLCAnPG91dGZpbGUubWFlPic=

>  <r_lp_tautomer_probability>  (137) 
1

>  <r_epik_Ionization_Penalty>  (137) 
3.21281e-06

>  <r_epik_Ionization_Penalty_Charging>  (137) 
0

>  <r_epik_Ionization_Penalty_Neutral>  (137) 
3.21281e-06

>  <r_epik_State_Penalty>  (137) 
-0

>  <r_epik_Charging_Adjusted_Penalty>  (137) 
0

>  <i_epik_Tot_Q>  (137) 
0

>  <i_epik_Tot_abs_Q>  (137) 
0

>  <s_lp_Force_Field>  (137) 
OPLS3e

>  <r_lp_Energy>  (137) 
22.7075

>  <b_lp_Chiralities_Consistent>  (137) 
1

>  <s_lp_Variant>  (137) 
28:0-1

>  <s_i_glide_gridfile>  (137) 
pfpi4k_grid

>  <i_i_glide_lignum>  (137) 
9

>  <i_i_glide_rotatable_bonds>  (137) 
2

>  <r_i_docking_score>  (137) 
-4.29008

>  <r_i_glide_ligand_efficiency>  (137) 
-0.286005

>  <r_i_glide_ligand_efficiency_sa>  (137) 
-0.70535

>  <r_i_glide_ligand_efficiency_ln>  (137) 
-1.15696

>  <r_i_glide_gscore>  (137) 
-4.29008

>  <r_i_glide_lipo>  (137) 
-0.702786

>  <r_i_glide_hbond>  (137) 
-0.285921

>  <r_i_glide_metal>  (137) 
-0

>  <r_i_glide_rewards>  (137) 
-2.00234

>  <r_i_glide_evdw>  (137) 
-22.4429

>  <r_i_glide_ecoul>  (137) 
-3.76359

>  <r_i_glide_erotb>  (137) 
0.387646

>  <r_i_glide_esite>  (137) 
0

>  <r_i_glide_emodel>  (137) 
-32.8403

>  <r_i_glide_energy>  (137) 
-26.2065

>  <r_i_glide_einternal>  (137) 
0.873544

>  <r_i_glide_intrahb_reward>  (137) 
-0

>  <i_i_glide_confnum>  (137) 
1

>  <i_i_glide_posenum>  (137) 
36

>  <r_i_glide_eff_state_penalty>  (137) 
0

>  <ligand_id>  (137) 
28

>  <original_smiles>  (137) 
OC1(C23CC4CC(CC(C4)C2)C3)CCC1

>  <smiles>  (137) 
[H]OC1(C23C([H])([H])C4([H])C([H])([H])C([H])(C([H])([H])C([H])(C4([H])[H])C2([H])[H])C3([H])[H])C([H])([H])C([H])([H])C1([H])[H]

$$$$
28:0:1
     RDKit          3D

 37 40  0  0  1  0  0  0  0  0999 V2000
    2.3061   -2.6694   -2.0543 O   0  0  0  0  0  0  0  0  0  0  0  0
    3.5991   -2.1582   -2.2942 C   0  0  0  0  0  0  0  0  0  0  0  0
    4.4063   -2.3585   -0.9673 C   0  0  2  0  0  0  0  0  0  0  0  0
    3.7522   -1.5690    0.2118 C   0  0  0  0  0  0  0  0  0  0  0  0
    4.5621   -1.7489    1.5177 C   0  0  1  0  0  0  0  0  0  0  0  0
    4.6002   -3.2473    1.8899 C   0  0  0  0  0  0  0  0  0  0  0  0
    5.2519   -4.0588    0.7505 C   0  0  2  0  0  0  0  0  0  0  0  0
    6.6906   -3.5645    0.5325 C   0  0  0  0  0  0  0  0  0  0  0  0
    6.6659   -2.0637    0.1861 C   0  0  2  0  0  0  0  0  0  0  0  0
    5.9926   -1.2363    1.2962 C   0  0  0  0  0  0  0  0  0  0  0  0
    5.8759   -1.8688   -1.1252 C   0  0  0  0  0  0  0  0  0  0  0  0
    4.4317   -3.8626   -0.5534 C   0  0  0  0  0  0  0  0  0  0  0  0
    4.1852   -2.6979   -3.6248 C   0  0  0  0  0  0  0  0  0  0  0  0
    3.7556   -1.3906   -4.2965 C   0  0  0  0  0  0  0  0  0  0  0  0
    3.5682   -0.7443   -2.9312 C   0  0  0  0  0  0  0  0  0  0  0  0
    1.7661   -1.9972   -1.6045 H   0  0  0  0  0  0  0  0  0  0  0  0
    3.6722   -0.5094   -0.0224 H   0  0  0  0  0  0  0  0  0  0  0  0
    2.7260   -1.8785    0.4184 H   0  0  0  0  0  0  0  0  0  0  0  0
    4.0959   -1.1764    2.3235 H   0  0  0  0  0  0  0  0  0  0  0  0
    5.1683   -3.3892    2.8123 H   0  0  0  0  0  0  0  0  0  0  0  0
    3.5892   -3.6041    2.0738 H   0  0  0  0  0  0  0  0  0  0  0  0
    5.2697   -5.1168    1.0224 H   0  0  0  0  0  0  0  0  0  0  0  0
    7.3163   -3.7599    1.4104 H   0  0  0  0  0  0  0  0  0  0  0  0
    7.1469   -4.1158   -0.2875 H   0  0  0  0  0  0  0  0  0  0  0  0
    7.6901   -1.7192    0.0534 H   0  0  0  0  0  0  0  0  0  0  0  0
    5.9680   -0.1912    0.9910 H   0  0  0  0  0  0  0  0  0  0  0  0
    6.5738   -1.2668    2.2234 H   0  0  0  0  0  0  0  0  0  0  0  0
    6.3887   -2.4113   -1.9232 H   0  0  0  0  0  0  0  0  0  0  0  0
    5.8921   -0.8098   -1.3963 H   0  0  0  0  0  0  0  0  0  0  0  0
    3.4234   -4.2389   -0.3877 H   0  0  0  0  0  0  0  0  0  0  0  0
    4.8214   -4.4809   -1.3583 H   0  0  0  0  0  0  0  0  0  0  0  0
    5.2719   -2.8461   -3.6528 H   0  0  0  0  0  0  0  0  0  0  0  0
    3.6304   -3.5772   -3.9996 H   0  0  0  0  0  0  0  0  0  0  0  0
    4.5451   -0.9279   -4.8831 H   0  0  0  0  0  0  0  0  0  0  0  0
    2.8156   -1.4436   -4.8301 H   0  0  0  0  0  0  0  0  0  0  0  0
    2.5823   -0.2666   -2.8475 H   0  0  0  0  0  0  0  0  0  0  0  0
    4.3834   -0.0553   -2.6934 H   0  0  0  0  0  0  0  0  0  0  0  0
  1  2  1  0
  1 16  1  0
  2 15  1  0
  3  2  1  6
  2 13  1  0
  3 11  1  0
  3 12  1  0
  3  4  1  0
  4  5  1  0
  4 17  1  0
  4 18  1  0
  5 10  1  0
  5  6  1  0
  5 19  1  1
  6  7  1  0
  6 20  1  0
  6 21  1  0
  7  8  1  0
  7 12  1  0
  7 22  1  1
  8  9  1  0
  8 23  1  0
  8 24  1  0
  9 10  1  0
  9 11  1  0
  9 25  1  6
 10 26  1  0
 10 27  1  0
 11 28  1  0
 11 29  1  0
 12 30  1  0
 12 31  1  0
 13 14  1  0
 13 32  1  0
 13 33  1  0
 14 15  1  0
 14 34  1  0
 14 35  1  0
 15 36  1  0
 15 37  1  0
M  END
>  <i_m_ct_stereo_status>  (138) 
1

>  <s_m_source_file>  (138) 
/var/tmp/pbs.5076255.sched01/tmpstc2q6q5/48db17pvb_.sdf

>  <i_m_source_file_index>  (138) 
9

>  <i_lp_mmshare_version>  (138) 
48012

>  <i_f3d_flags>  (138) 
0

>  <s_epik_input>  (138) 
W0NIMl0xW0NIMl1bQ0gyXUMxKFtPSF0pQzIzW0NIMl1bQ0BIXTRbQ0gyXVtDQEBIXShbQ0gyXTMpW0NIMl1bQ0BIXShbQ0gyXTQpW0NIMl0y

>  <s_epik_cmdline>  (138) 
J2VwaWtfcHl0aG9uJywgJy1waHQnLCAnMi4wJywgJy1waCcsICc3LjAnLCAnLXRuJywgJzgnLCAnLW1hJywgJzIwMCcsICctaW1hZScsICc8aW5maWxlLm1hZT4nLCAnLW9tYWUnLCAnPG91dGZpbGUubWFlPic=

>  <r_lp_tautomer_probability>  (138) 
1

>  <r_epik_Ionization_Penalty>  (138) 
3.21281e-06

>  <r_epik_Ionization_Penalty_Charging>  (138) 
0

>  <r_epik_Ionization_Penalty_Neutral>  (138) 
3.21281e-06

>  <r_epik_State_Penalty>  (138) 
-0

>  <r_epik_Charging_Adjusted_Penalty>  (138) 
0

>  <i_epik_Tot_Q>  (138) 
0

>  <i_epik_Tot_abs_Q>  (138) 
0

>  <s_lp_Force_Field>  (138) 
OPLS3e

>  <r_lp_Energy>  (138) 
22.7075

>  <b_lp_Chiralities_Consistent>  (138) 
1

>  <s_lp_Variant>  (138) 
28:0-1

>  <s_i_glide_gridfile>  (138) 
pfpi4k_grid

>  <i_i_glide_lignum>  (138) 
9

>  <i_i_glide_rotatable_bonds>  (138) 
2

>  <r_i_docking_score>  (138) 
-3.96788

>  <r_i_glide_ligand_efficiency>  (138) 
-0.264525

>  <r_i_glide_ligand_efficiency_sa>  (138) 
-0.652376

>  <r_i_glide_ligand_efficiency_ln>  (138) 
-1.07007

>  <r_i_glide_gscore>  (138) 
-3.96788

>  <r_i_glide_lipo>  (138) 
-0.614368

>  <r_i_glide_hbond>  (138) 
-0.16

>  <r_i_glide_metal>  (138) 
-0

>  <r_i_glide_rewards>  (138) 
-2.00234

>  <r_i_glide_evdw>  (138) 
-21.7958

>  <r_i_glide_ecoul>  (138) 
-3.26022

>  <r_i_glide_erotb>  (138) 
0.387646

>  <r_i_glide_esite>  (138) 
0

>  <r_i_glide_emodel>  (138) 
-31.3971

>  <r_i_glide_energy>  (138) 
-25.056

>  <r_i_glide_einternal>  (138) 
0.902594

>  <r_i_glide_intrahb_reward>  (138) 
-0

>  <i_i_glide_confnum>  (138) 
1

>  <i_i_glide_posenum>  (138) 
29

>  <r_i_glide_eff_state_penalty>  (138) 
0

>  <ligand_id>  (138) 
28

>  <original_smiles>  (138) 
OC1(C23CC4CC(CC(C4)C2)C3)CCC1

>  <smiles>  (138) 
[H]OC1(C23C([H])([H])C4([H])C([H])([H])C([H])(C([H])([H])C([H])(C4([H])[H])C2([H])[H])C3([H])[H])C([H])([H])C([H])([H])C1([H])[H]

$$$$
29:0:0
     RDKit          3D

 42 44  0  0  1  0  0  0  0  0999 V2000
    1.9951   -5.8383    6.2655 C   0  0  0  0  0  0  0  0  0  0  0  0
    1.6309   -4.8723    5.2751 O   0  0  0  0  0  0  0  0  0  0  0  0
    1.4763   -5.3446    3.9961 C   0  0  0  0  0  0  0  0  0  0  0  0
    0.9108   -6.5367    3.7279 C   0  0  0  0  0  0  0  0  0  0  0  0
    0.8156   -7.1570    2.3311 C   0  0  0  0  0  0  0  0  0  0  0  0
    1.7305   -8.4048    2.2585 C   0  0  0  0  0  0  0  0  0  0  0  0
    1.2261   -9.5302    3.1854 C   0  0  0  0  0  0  0  0  0  0  0  0
   -0.2331   -9.9062    2.8805 C   0  0  0  0  0  0  0  0  0  0  0  0
   -1.1560   -8.6805    2.9257 C   0  0  0  0  0  0  0  0  0  0  0  0
   -0.6370   -7.5503    2.0156 C   0  0  0  0  0  0  0  0  0  0  0  0
    1.1799   -6.2126    1.3150 O   0  0  0  0  0  0  0  0  0  0  0  0
    2.2970   -5.3888    1.6224 C   0  0  1  0  0  0  0  0  0  0  0  0
    2.6241   -4.5280    0.4377 C   0  0  0  0  0  0  0  0  0  0  0  0
    2.7927   -3.1877    0.4963 C   0  0  0  0  0  0  0  0  0  0  0  0
    3.0133   -2.3808   -0.5983 O   0  0  0  0  0  0  0  0  0  0  0  0
    2.7938   -2.9673   -1.8780 C   0  0  0  0  0  0  0  0  0  0  0  0
    2.7001   -2.3927    1.8081 C   0  0  1  0  0  0  0  0  0  0  0  0
    1.8187   -1.2886    1.6711 O   0  0  0  0  0  0  0  0  0  0  0  0
    2.2231   -3.2652    2.9642 C   0  0  0  0  0  0  0  0  0  0  0  0
    2.0010   -4.5882    2.8823 C   0  0  0  0  0  0  0  0  0  0  0  0
    1.9148   -5.4018    7.2729 H   0  0  0  0  0  0  0  0  0  0  0  0
    3.0314   -6.1100    6.0953 H   0  0  0  0  0  0  0  0  0  0  0  0
    1.4047   -6.7627    6.2812 H   0  0  0  0  0  0  0  0  0  0  0  0
    0.4712   -7.1310    4.4993 H   0  0  0  0  0  0  0  0  0  0  0  0
    1.7833   -8.7810    1.2388 H   0  0  0  0  0  0  0  0  0  0  0  0
    2.7591   -8.1550    2.5407 H   0  0  0  0  0  0  0  0  0  0  0  0
    1.8667  -10.4177    3.0858 H   0  0  0  0  0  0  0  0  0  0  0  0
    1.3130   -9.2363    4.2358 H   0  0  0  0  0  0  0  0  0  0  0  0
   -0.2858  -10.3660    1.8951 H   0  0  0  0  0  0  0  0  0  0  0  0
   -0.5758  -10.6543    3.5908 H   0  0  0  0  0  0  0  0  0  0  0  0
   -2.1701   -8.9624    2.6280 H   0  0  0  0  0  0  0  0  0  0  0  0
   -1.2593   -8.3399    3.9588 H   0  0  0  0  0  0  0  0  0  0  0  0
   -1.2812   -6.6761    2.1097 H   0  0  0  0  0  0  0  0  0  0  0  0
   -0.7032   -7.8602    0.9731 H   0  0  0  0  0  0  0  0  0  0  0  0
    3.1697   -5.9966    1.8027 H   0  0  0  0  0  0  0  0  0  0  0  0
    2.6965   -5.1010   -0.4752 H   0  0  0  0  0  0  0  0  0  0  0  0
    2.8496   -2.2202   -2.6783 H   0  0  0  0  0  0  0  0  0  0  0  0
    1.7970   -3.4086   -1.9454 H   0  0  0  0  0  0  0  0  0  0  0  0
    3.5390   -3.7366   -2.0964 H   0  0  0  0  0  0  0  0  0  0  0  0
    3.6927   -2.0142    2.0518 H   0  0  0  0  0  0  0  0  0  0  0  0
    1.6039   -1.1660    0.7622 H   0  0  0  0  0  0  0  0  0  0  0  0
    1.9979   -2.7307    3.8849 H   0  0  0  0  0  0  0  0  0  0  0  0
  1  2  1  0
  1 21  1  0
  1 22  1  0
  1 23  1  0
  2  3  1  0
  3 20  1  0
  3  4  2  0
  4  5  1  0
  4 24  1  0
  5 10  1  0
  5  6  1  0
  5 11  1  0
  6  7  1  0
  6 25  1  0
  6 26  1  0
  7  8  1  0
  7 27  1  0
  7 28  1  0
  8  9  1  0
  8 29  1  0
  8 30  1  0
  9 10  1  0
  9 31  1  0
  9 32  1  0
 10 33  1  0
 10 34  1  0
 11 12  1  0
 12 20  1  0
 12 13  1  0
 12 35  1  1
 13 14  2  0
 13 36  1  0
 14 15  1  0
 14 17  1  0
 15 16  1  0
 16 37  1  0
 16 38  1  0
 16 39  1  0
 17 18  1  0
 17 19  1  0
 17 40  1  1
 18 41  1  0
 19 20  2  0
 19 42  1  0
M  END
>  <i_m_ct_stereo_status>  (139) 
1

>  <s_m_source_file>  (139) 
/var/tmp/pbs.5076255.sched01/tmpstc2q6q5/48db17pvb_.sdf

>  <i_m_source_file_index>  (139) 
10

>  <i_lp_mmshare_version>  (139) 
48012

>  <i_f3d_flags>  (139) 
0

>  <s_epik_input>  (139) 
W0NIM11PQyhbQ0BASF0oW09IXSlbQ0hdPTEpPVtDSF1bQ0BIXShPMilDMUMoT1tDSDNdKT1bQ0hdQzIzW0NIMl1bQ0gyXVtDSDJdW0NIMl1bQ0gyXTM=

>  <s_epik_cmdline>  (139) 
J2VwaWtfcHl0aG9uJywgJy1waHQnLCAnMi4wJywgJy1waCcsICc3LjAnLCAnLXRuJywgJzgnLCAnLW1hJywgJzIwMCcsICctaW1hZScsICc8aW5maWxlLm1hZT4nLCAnLW9tYWUnLCAnPG91dGZpbGUubWFlPic=

>  <r_epik_Ionization_Penalty>  (139) 
0.22661

>  <r_epik_Ionization_Penalty_Charging>  (139) 
0

>  <r_epik_Ionization_Penalty_Neutral>  (139) 
0.22661

>  <r_epik_State_Penalty>  (139) 
0.217129

>  <r_epik_Charging_Adjusted_Penalty>  (139) 
0.217129

>  <i_epik_Tot_Q>  (139) 
0

>  <i_epik_Tot_abs_Q>  (139) 
0

>  <s_lp_Force_Field>  (139) 
OPLS3e

>  <r_lp_Energy>  (139) 
32.4471

>  <b_lp_Chiralities_Consistent>  (139) 
1

>  <s_lp_Variant>  (139) 
29:0-1

>  <s_i_glide_gridfile>  (139) 
pfpi4k_grid

>  <i_i_glide_lignum>  (139) 
10

>  <i_i_glide_rotatable_bonds>  (139) 
3

>  <r_i_docking_score>  (139) 
-3.12081

>  <r_i_glide_ligand_efficiency>  (139) 
-0.15604

>  <r_i_glide_ligand_efficiency_sa>  (139) 
-0.423558

>  <r_i_glide_ligand_efficiency_ln>  (139) 
-0.781035

>  <r_i_glide_gscore>  (139) 
-3.12081

>  <r_i_glide_lipo>  (139) 
-0.0096202

>  <r_i_glide_hbond>  (139) 
-0.137131

>  <r_i_glide_metal>  (139) 
-0

>  <r_i_glide_rewards>  (139) 
-1.51129

>  <r_i_glide_evdw>  (139) 
-17.9388

>  <r_i_glide_ecoul>  (139) 
-3.77212

>  <r_i_glide_erotb>  (139) 
0

>  <r_i_glide_esite>  (139) 
0

>  <r_i_glide_emodel>  (139) 
-24.0534

>  <r_i_glide_energy>  (139) 
-21.711

>  <r_i_glide_einternal>  (139) 
3.35998

>  <r_i_glide_intrahb_reward>  (139) 
-0

>  <i_i_glide_confnum>  (139) 
3

>  <i_i_glide_posenum>  (139) 
20

>  <r_i_glide_eff_state_penalty>  (139) 
0

>  <ligand_id>  (139) 
29

>  <original_smiles>  (139) 
COC1=CC2(CCCCC2)OC2C=C(OC)C(O)C=C12

>  <smiles>  (139) 
[H]OC1([H])C([H])=C2C(OC([H])([H])[H])=C([H])C3(OC2([H])C([H])=C1OC([H])([H])[H])C([H])([H])C([H])([H])C([H])([H])C([H])([H])C3([H])[H]

$$$$
29:0:1
     RDKit          3D

 42 44  0  0  1  0  0  0  0  0999 V2000
    0.6170   -5.2018    5.9872 C   0  0  0  0  0  0  0  0  0  0  0  0
    1.3951   -4.5412    4.9781 O   0  0  0  0  0  0  0  0  0  0  0  0
    1.4700   -5.1133    3.7298 C   0  0  0  0  0  0  0  0  0  0  0  0
    0.9036   -6.2981    3.4447 C   0  0  0  0  0  0  0  0  0  0  0  0
    0.8938   -6.9504    2.0621 C   0  0  0  0  0  0  0  0  0  0  0  0
    1.7305   -8.2592    2.1146 C   0  0  0  0  0  0  0  0  0  0  0  0
    1.0886   -9.2960    3.0529 C   0  0  0  0  0  0  0  0  0  0  0  0
   -0.3700   -9.5783    2.6646 C   0  0  0  0  0  0  0  0  0  0  0  0
   -1.2285   -8.3103    2.5846 C   0  0  0  0  0  0  0  0  0  0  0  0
   -0.5653   -7.2768    1.6603 C   0  0  0  0  0  0  0  0  0  0  0  0
    1.3722   -6.0446    1.0514 O   0  0  0  0  0  0  0  0  0  0  0  0
    2.5031   -5.2543    1.4148 C   0  0  1  0  0  0  0  0  0  0  0  0
    2.9575   -4.4053    0.2331 C   0  0  0  0  0  0  0  0  0  0  0  0
    3.2114   -3.0966    0.3132 C   0  0  0  0  0  0  0  0  0  0  0  0
    3.6033   -2.4380   -0.8374 O   0  0  0  0  0  0  0  0  0  0  0  0
    4.4783   -1.3195   -0.7024 C   0  0  0  0  0  0  0  0  0  0  0  0
    3.0402   -2.2803    1.6016 C   0  0  1  0  0  0  0  0  0  0  0  0
    2.2016   -1.1669    1.4141 O   0  0  0  0  0  0  0  0  0  0  0  0
    2.4594   -3.1137    2.7310 C   0  0  0  0  0  0  0  0  0  0  0  0
    2.1780   -4.4319    2.6499 C   0  0  0  0  0  0  0  0  0  0  0  0
    0.6254   -4.6778    6.9366 H   0  0  0  0  0  0  0  0  0  0  0  0
    0.9940   -6.2146    6.1737 H   0  0  0  0  0  0  0  0  0  0  0  0
   -0.4302   -5.2610    5.6698 H   0  0  0  0  0  0  0  0  0  0  0  0
    0.3881   -6.8610    4.2195 H   0  0  0  0  0  0  0  0  0  0  0  0
    1.8297   -8.6828    1.1124 H   0  0  0  0  0  0  0  0  0  0  0  0
    2.7406   -8.0415    2.4669 H   0  0  0  0  0  0  0  0  0  0  0  0
    1.6605  -10.2158    3.0390 H   0  0  0  0  0  0  0  0  0  0  0  0
    1.1161   -8.9806    4.0837 H   0  0  0  0  0  0  0  0  0  0  0  0
   -0.4056  -10.1024    1.7131 H   0  0  0  0  0  0  0  0  0  0  0  0
   -0.8163  -10.2661    3.3830 H   0  0  0  0  0  0  0  0  0  0  0  0
   -2.2181   -8.5555    2.2209 H   0  0  0  0  0  0  0  0  0  0  0  0
   -1.3982   -7.9388    3.5819 H   0  0  0  0  0  0  0  0  0  0  0  0
   -1.1388   -6.3512    1.6631 H   0  0  0  0  0  0  0  0  0  0  0  0
   -0.5875   -7.6416    0.6306 H   0  0  0  0  0  0  0  0  0  0  0  0
    3.3367   -5.9189    1.6477 H   0  0  0  0  0  0  0  0  0  0  0  0
    3.0848   -4.9382   -0.7026 H   0  0  0  0  0  0  0  0  0  0  0  0
    4.8148   -1.0075   -1.6976 H   0  0  0  0  0  0  0  0  0  0  0  0
    5.3695   -1.6006   -0.1400 H   0  0  0  0  0  0  0  0  0  0  0  0
    4.0030   -0.4570   -0.2350 H   0  0  0  0  0  0  0  0  0  0  0  0
    4.0205   -1.9455    1.9413 H   0  0  0  0  0  0  0  0  0  0  0  0
    1.7641   -1.2183    0.5541 H   0  0  0  0  0  0  0  0  0  0  0  0
    2.2031   -2.5670    3.6312 H   0  0  0  0  0  0  0  0  0  0  0  0
  1  2  1  0
  1 21  1  0
  1 22  1  0
  1 23  1  0
  2  3  1  0
  3 20  1  0
  3  4  2  0
  4  5  1  0
  4 24  1  0
  5 10  1  0
  5  6  1  0
  5 11  1  0
  6  7  1  0
  6 25  1  0
  6 26  1  0
  7  8  1  0
  7 27  1  0
  7 28  1  0
  8  9  1  0
  8 29  1  0
  8 30  1  0
  9 10  1  0
  9 31  1  0
  9 32  1  0
 10 33  1  0
 10 34  1  0
 11 12  1  0
 12 20  1  0
 12 13  1  0
 12 35  1  1
 13 14  2  0
 13 36  1  0
 14 15  1  0
 14 17  1  0
 15 16  1  0
 16 37  1  0
 16 38  1  0
 16 39  1  0
 17 18  1  0
 17 19  1  0
 17 40  1  1
 18 41  1  0
 19 20  2  0
 19 42  1  0
M  END
>  <i_m_ct_stereo_status>  (140) 
1

>  <s_m_source_file>  (140) 
/var/tmp/pbs.5076255.sched01/tmpstc2q6q5/48db17pvb_.sdf

>  <i_m_source_file_index>  (140) 
10

>  <i_lp_mmshare_version>  (140) 
48012

>  <i_f3d_flags>  (140) 
0

>  <s_epik_input>  (140) 
W0NIM11PQyhbQ0BASF0oW09IXSlbQ0hdPTEpPVtDSF1bQ0BIXShPMilDMUMoT1tDSDNdKT1bQ0hdQzIzW0NIMl1bQ0gyXVtDSDJdW0NIMl1bQ0gyXTM=

>  <s_epik_cmdline>  (140) 
J2VwaWtfcHl0aG9uJywgJy1waHQnLCAnMi4wJywgJy1waCcsICc3LjAnLCAnLXRuJywgJzgnLCAnLW1hJywgJzIwMCcsICctaW1hZScsICc8aW5maWxlLm1hZT4nLCAnLW9tYWUnLCAnPG91dGZpbGUubWFlPic=

>  <r_epik_Ionization_Penalty>  (140) 
0.22661

>  <r_epik_Ionization_Penalty_Charging>  (140) 
0

>  <r_epik_Ionization_Penalty_Neutral>  (140) 
0.22661

>  <r_epik_State_Penalty>  (140) 
0.217129

>  <r_epik_Charging_Adjusted_Penalty>  (140) 
0.217129

>  <i_epik_Tot_Q>  (140) 
0

>  <i_epik_Tot_abs_Q>  (140) 
0

>  <s_lp_Force_Field>  (140) 
OPLS3e

>  <r_lp_Energy>  (140) 
32.4471

>  <b_lp_Chiralities_Consistent>  (140) 
1

>  <s_lp_Variant>  (140) 
29:0-1

>  <s_i_glide_gridfile>  (140) 
pfpi4k_grid

>  <i_i_glide_lignum>  (140) 
10

>  <i_i_glide_rotatable_bonds>  (140) 
3

>  <r_i_docking_score>  (140) 
-3.08968

>  <r_i_glide_ligand_efficiency>  (140) 
-0.154484

>  <r_i_glide_ligand_efficiency_sa>  (140) 
-0.419334

>  <r_i_glide_ligand_efficiency_ln>  (140) 
-0.773245

>  <r_i_glide_gscore>  (140) 
-3.08968

>  <r_i_glide_lipo>  (140) 
-0.00338581

>  <r_i_glide_hbond>  (140) 
-0.15859

>  <r_i_glide_metal>  (140) 
-0

>  <r_i_glide_rewards>  (140) 
-1.51129

>  <r_i_glide_evdw>  (140) 
-17.316

>  <r_i_glide_ecoul>  (140) 
-3.67075

>  <r_i_glide_erotb>  (140) 
0

>  <r_i_glide_esite>  (140) 
0

>  <r_i_glide_emodel>  (140) 
-22.5748

>  <r_i_glide_energy>  (140) 
-20.9867

>  <r_i_glide_einternal>  (140) 
5.85247

>  <r_i_glide_intrahb_reward>  (140) 
-0

>  <i_i_glide_confnum>  (140) 
3

>  <i_i_glide_posenum>  (140) 
2

>  <r_i_glide_eff_state_penalty>  (140) 
0

>  <ligand_id>  (140) 
29

>  <original_smiles>  (140) 
COC1=CC2(CCCCC2)OC2C=C(OC)C(O)C=C12

>  <smiles>  (140) 
[H]OC1([H])C([H])=C2C(OC([H])([H])[H])=C([H])C3(OC2([H])C([H])=C1OC([H])([H])[H])C([H])([H])C([H])([H])C([H])([H])C([H])([H])C3([H])[H]

$$$$
29:0:2
     RDKit          3D

 42 44  0  0  1  0  0  0  0  0999 V2000
    2.2590   -6.0393    6.3009 C   0  0  0  0  0  0  0  0  0  0  0  0
    1.8459   -5.1039    5.3034 O   0  0  0  0  0  0  0  0  0  0  0  0
    1.6807   -5.5957    4.0261 C   0  0  0  0  0  0  0  0  0  0  0  0
    1.1463   -6.7995    3.7828 C   0  0  0  0  0  0  0  0  0  0  0  0
    1.0269   -7.4287    2.3971 C   0  0  0  0  0  0  0  0  0  0  0  0
    1.9881   -8.6474    2.3088 C   0  0  0  0  0  0  0  0  0  0  0  0
    1.5545   -9.7848    3.2595 C   0  0  0  0  0  0  0  0  0  0  0  0
    0.1053  -10.2131    2.9934 C   0  0  0  0  0  0  0  0  0  0  0  0
   -0.8712   -9.0260    3.0681 C   0  0  0  0  0  0  0  0  0  0  0  0
   -0.4270   -7.8795    2.1371 C   0  0  0  0  0  0  0  0  0  0  0  0
    1.3187   -6.4760    1.3552 O   0  0  0  0  0  0  0  0  0  0  0  0
    2.4076   -5.5928    1.6140 C   0  0  1  0  0  0  0  0  0  0  0  0
    2.6862   -4.6925    0.4254 C   0  0  0  0  0  0  0  0  0  0  0  0
    2.8569   -3.3630    0.5160 C   0  0  0  0  0  0  0  0  0  0  0  0
    3.0605   -2.6549   -0.6496 O   0  0  0  0  0  0  0  0  0  0  0  0
    3.8210   -1.4543   -0.5653 C   0  0  0  0  0  0  0  0  0  0  0  0
    2.7286   -2.5873    1.8252 C   0  0  1  0  0  0  0  0  0  0  0  0
    1.7690   -1.5512    1.6848 O   0  0  0  0  0  0  0  0  0  0  0  0
    2.3095   -3.4856    2.9825 C   0  0  0  0  0  0  0  0  0  0  0  0
    2.1386   -4.8181    2.8942 C   0  0  0  0  0  0  0  0  0  0  0  0
    2.1968   -5.5874    7.2978 H   0  0  0  0  0  0  0  0  0  0  0  0
    3.3077   -6.2825    6.1103 H   0  0  0  0  0  0  0  0  0  0  0  0
    1.6922   -6.9715    6.3285 H   0  0  0  0  0  0  0  0  0  0  0  0
    0.7572   -7.3965    4.5812 H   0  0  0  0  0  0  0  0  0  0  0  0
    2.0220   -9.0353    1.2913 H   0  0  0  0  0  0  0  0  0  0  0  0
    3.0121   -8.3637    2.5622 H   0  0  0  0  0  0  0  0  0  0  0  0
    2.2140  -10.6469    3.1526 H   0  0  0  0  0  0  0  0  0  0  0  0
    1.6499   -9.4799    4.3064 H   0  0  0  0  0  0  0  0  0  0  0  0
    0.0405  -10.6710    2.0080 H   0  0  0  0  0  0  0  0  0  0  0  0
   -0.1707  -10.9795    3.7222 H   0  0  0  0  0  0  0  0  0  0  0  0
   -1.8741   -9.3467    2.7923 H   0  0  0  0  0  0  0  0  0  0  0  0
   -0.9616   -8.6841    4.1019 H   0  0  0  0  0  0  0  0  0  0  0  0
   -1.0943   -7.0262    2.2458 H   0  0  0  0  0  0  0  0  0  0  0  0
   -0.5187   -8.2067    1.1049 H   0  0  0  0  0  0  0  0  0  0  0  0
    3.3170   -6.1760    1.7671 H   0  0  0  0  0  0  0  0  0  0  0  0
    2.7628   -5.1864   -0.5298 H   0  0  0  0  0  0  0  0  0  0  0  0
    4.0195   -1.0870   -1.5740 H   0  0  0  0  0  0  0  0  0  0  0  0
    4.7847   -1.6409   -0.0907 H   0  0  0  0  0  0  0  0  0  0  0  0
    3.3117   -0.6509   -0.0365 H   0  0  0  0  0  0  0  0  0  0  0  0
    3.6990   -2.1641    2.0899 H   0  0  0  0  0  0  0  0  0  0  0  0
    1.5938   -1.4092    0.7547 H   0  0  0  0  0  0  0  0  0  0  0  0
    2.1026   -2.9783    3.9161 H   0  0  0  0  0  0  0  0  0  0  0  0
  1  2  1  0
  1 21  1  0
  1 22  1  0
  1 23  1  0
  2  3  1  0
  3 20  1  0
  3  4  2  0
  4  5  1  0
  4 24  1  0
  5 10  1  0
  5  6  1  0
  5 11  1  0
  6  7  1  0
  6 25  1  0
  6 26  1  0
  7  8  1  0
  7 27  1  0
  7 28  1  0
  8  9  1  0
  8 29  1  0
  8 30  1  0
  9 10  1  0
  9 31  1  0
  9 32  1  0
 10 33  1  0
 10 34  1  0
 11 12  1  0
 12 20  1  0
 12 13  1  0
 12 35  1  1
 13 14  2  0
 13 36  1  0
 14 15  1  0
 14 17  1  0
 15 16  1  0
 16 37  1  0
 16 38  1  0
 16 39  1  0
 17 18  1  0
 17 19  1  0
 17 40  1  1
 18 41  1  0
 19 20  2  0
 19 42  1  0
M  END
>  <i_m_ct_stereo_status>  (141) 
1

>  <s_m_source_file>  (141) 
/var/tmp/pbs.5076255.sched01/tmpstc2q6q5/48db17pvb_.sdf

>  <i_m_source_file_index>  (141) 
10

>  <i_lp_mmshare_version>  (141) 
48012

>  <i_f3d_flags>  (141) 
0

>  <s_epik_input>  (141) 
W0NIM11PQyhbQ0BASF0oW09IXSlbQ0hdPTEpPVtDSF1bQ0BIXShPMilDMUMoT1tDSDNdKT1bQ0hdQzIzW0NIMl1bQ0gyXVtDSDJdW0NIMl1bQ0gyXTM=

>  <s_epik_cmdline>  (141) 
J2VwaWtfcHl0aG9uJywgJy1waHQnLCAnMi4wJywgJy1waCcsICc3LjAnLCAnLXRuJywgJzgnLCAnLW1hJywgJzIwMCcsICctaW1hZScsICc8aW5maWxlLm1hZT4nLCAnLW9tYWUnLCAnPG91dGZpbGUubWFlPic=

>  <r_epik_Ionization_Penalty>  (141) 
0.22661

>  <r_epik_Ionization_Penalty_Charging>  (141) 
0

>  <r_epik_Ionization_Penalty_Neutral>  (141) 
0.22661

>  <r_epik_State_Penalty>  (141) 
0.217129

>  <r_epik_Charging_Adjusted_Penalty>  (141) 
0.217129

>  <i_epik_Tot_Q>  (141) 
0

>  <i_epik_Tot_abs_Q>  (141) 
0

>  <s_lp_Force_Field>  (141) 
OPLS3e

>  <r_lp_Energy>  (141) 
32.4471

>  <b_lp_Chiralities_Consistent>  (141) 
1

>  <s_lp_Variant>  (141) 
29:0-1

>  <s_i_glide_gridfile>  (141) 
pfpi4k_grid

>  <i_i_glide_lignum>  (141) 
10

>  <i_i_glide_rotatable_bonds>  (141) 
3

>  <r_i_docking_score>  (141) 
-2.85347

>  <r_i_glide_ligand_efficiency>  (141) 
-0.142674

>  <r_i_glide_ligand_efficiency_sa>  (141) 
-0.387276

>  <r_i_glide_ligand_efficiency_ln>  (141) 
-0.71413

>  <r_i_glide_gscore>  (141) 
-2.85347

>  <r_i_glide_lipo>  (141) 
-0.0322164

>  <r_i_glide_hbond>  (141) 
-0.0198953

>  <r_i_glide_metal>  (141) 
-0

>  <r_i_glide_rewards>  (141) 
-1.51129

>  <r_i_glide_evdw>  (141) 
-17.5762

>  <r_i_glide_ecoul>  (141) 
-2.74169

>  <r_i_glide_erotb>  (141) 
0

>  <r_i_glide_esite>  (141) 
0

>  <r_i_glide_emodel>  (141) 
-20.1078

>  <r_i_glide_energy>  (141) 
-20.3179

>  <r_i_glide_einternal>  (141) 
8.28739

>  <r_i_glide_intrahb_reward>  (141) 
-0

>  <i_i_glide_confnum>  (141) 
3

>  <i_i_glide_posenum>  (141) 
22

>  <r_i_glide_eff_state_penalty>  (141) 
0

>  <ligand_id>  (141) 
29

>  <original_smiles>  (141) 
COC1=CC2(CCCCC2)OC2C=C(OC)C(O)C=C12

>  <smiles>  (141) 
[H]OC1([H])C([H])=C2C(OC([H])([H])[H])=C([H])C3(OC2([H])C([H])=C1OC([H])([H])[H])C([H])([H])C([H])([H])C([H])([H])C([H])([H])C3([H])[H]

$$$$
29:1:0
     RDKit          3D

 41 43  0  0  1  0  0  0  0  0999 V2000
    4.3580   -8.5156    0.9237 C   0  0  0  0  0  0  0  0  0  0  0  0
    4.3569   -7.3670    0.0802 O   0  0  0  0  0  0  0  0  0  0  0  0
    4.2306   -6.1304    0.6606 C   0  0  0  0  0  0  0  0  0  0  0  0
    5.0748   -5.1819    0.2250 C   0  0  0  0  0  0  0  0  0  0  0  0
    5.1576   -3.7648    0.7944 C   0  0  0  0  0  0  0  0  0  0  0  0
    5.1091   -2.7182   -0.3470 C   0  0  0  0  0  0  0  0  0  0  0  0
    6.3528   -2.7510   -1.2616 C   0  0  0  0  0  0  0  0  0  0  0  0
    7.6487   -2.5905   -0.4501 C   0  0  0  0  0  0  0  0  0  0  0  0
    7.7314   -3.6308    0.6783 C   0  0  0  0  0  0  0  0  0  0  0  0
    6.4793   -3.5815    1.5822 C   0  0  0  0  0  0  0  0  0  0  0  0
    4.0270   -3.4846    1.6439 O   0  0  0  0  0  0  0  0  0  0  0  0
    3.6144   -4.5410    2.5180 C   0  0  1  0  0  0  0  0  0  0  0  0
    2.4093   -4.1404    3.3659 C   0  0  0  0  0  0  0  0  0  0  0  0
    1.2928   -4.8847    3.5390 C   0  0  0  0  0  0  0  0  0  0  0  0
    0.2409   -4.5274    4.3685 O   0  0  0  0  0  0  0  0  0  0  0  0
    0.2885   -3.2528    4.9980 C   0  0  0  0  0  0  0  0  0  0  0  0
    1.0549   -6.2565    2.8736 C   0  0  1  0  0  0  0  0  0  0  0  0
   -0.0496   -6.2535    2.1738 O   0  0  0  0  0  0  0  0  0  0  0  0
    2.1719   -6.5206    1.8916 C   0  0  0  0  0  0  0  0  0  0  0  0
    3.3002   -5.8023    1.7190 C   0  0  0  0  0  0  0  0  0  0  0  0
    4.2791   -9.4085    0.2954 H   0  0  0  0  0  0  0  0  0  0  0  0
    3.5703   -8.6038    1.6766 H   0  0  0  0  0  0  0  0  0  0  0  0
    5.3124   -8.5353    1.4536 H   0  0  0  0  0  0  0  0  0  0  0  0
    5.7572   -5.4507   -0.5666 H   0  0  0  0  0  0  0  0  0  0  0  0
    4.2058   -2.8617   -0.9416 H   0  0  0  0  0  0  0  0  0  0  0  0
    5.0223   -1.7214    0.0871 H   0  0  0  0  0  0  0  0  0  0  0  0
    6.3812   -3.6851   -1.8201 H   0  0  0  0  0  0  0  0  0  0  0  0
    6.2772   -1.9686   -2.0161 H   0  0  0  0  0  0  0  0  0  0  0  0
    8.5167   -2.6838   -1.1062 H   0  0  0  0  0  0  0  0  0  0  0  0
    7.6890   -1.5920   -0.0132 H   0  0  0  0  0  0  0  0  0  0  0  0
    7.8435   -4.6292    0.2551 H   0  0  0  0  0  0  0  0  0  0  0  0
    8.6290   -3.4621    1.2759 H   0  0  0  0  0  0  0  0  0  0  0  0
    6.4558   -2.6203    2.0933 H   0  0  0  0  0  0  0  0  0  0  0  0
    6.5717   -4.3429    2.3561 H   0  0  0  0  0  0  0  0  0  0  0  0
    4.4301   -4.7568    3.1986 H   0  0  0  0  0  0  0  0  0  0  0  0
    2.5464   -3.1789    3.8580 H   0  0  0  0  0  0  0  0  0  0  0  0
   -0.6314   -3.1315    5.5643 H   0  0  0  0  0  0  0  0  0  0  0  0
    0.3410   -2.4397    4.2788 H   0  0  0  0  0  0  0  0  0  0  0  0
    1.1186   -3.1861    5.6964 H   0  0  0  0  0  0  0  0  0  0  0  0
    1.2351   -6.9602    3.6795 H   0  0  0  0  0  0  0  0  0  0  0  0
    1.9462   -7.3375    1.2249 H   0  0  0  0  0  0  0  0  0  0  0  0
  1  2  1  0
  1 21  1  0
  1 22  1  0
  1 23  1  0
  2  3  1  0
  3 20  1  0
  3  4  2  0
  4  5  1  0
  4 24  1  0
  5 10  1  0
  5  6  1  0
  5 11  1  0
  6  7  1  0
  6 25  1  0
  6 26  1  0
  7  8  1  0
  7 27  1  0
  7 28  1  0
  8  9  1  0
  8 29  1  0
  8 30  1  0
  9 10  1  0
  9 31  1  0
  9 32  1  0
 10 33  1  0
 10 34  1  0
 11 12  1  0
 12 20  1  0
 12 13  1  0
 12 35  1  1
 13 14  2  0
 13 36  1  0
 14 15  1  0
 14 17  1  0
 15 16  1  0
 16 37  1  0
 16 38  1  0
 16 39  1  0
 17 18  1  0
 17 19  1  0
 17 40  1  1
 19 20  2  0
 19 41  1  0
M  CHG  1  18  -1
M  END
>  <i_m_ct_stereo_status>  (142) 
1

>  <s_m_source_file>  (142) 
/var/tmp/pbs.5076255.sched01/tmpstc2q6q5/48db17pvb_.sdf

>  <i_m_source_file_index>  (142) 
11

>  <i_lp_mmshare_version>  (142) 
48012

>  <i_f3d_flags>  (142) 
0

>  <s_epik_input>  (142) 
W0NIM11PQyhbQ0BASF0oW09IXSlbQ0hdPTEpPVtDSF1bQ0BIXShPMilDMUMoT1tDSDNdKT1bQ0hdQzIzW0NIMl1bQ0gyXVtDSDJdW0NIMl1bQ0gyXTM=

>  <s_epik_cmdline>  (142) 
J2VwaWtfcHl0aG9uJywgJy1waHQnLCAnMi4wJywgJy1waCcsICc3LjAnLCAnLXRuJywgJzgnLCAnLW1hJywgJzIwMCcsICctaW1hZScsICc8aW5maWxlLm1hZT4nLCAnLW9tYWUnLCAnPG91dGZpbGUubWFlPic=

>  <r_epik_Ionization_Penalty>  (142) 
0.679135

>  <r_epik_Ionization_Penalty_Charging>  (142) 
0.679135

>  <r_epik_Ionization_Penalty_Neutral>  (142) 
8.68285e-15

>  <r_epik_State_Penalty>  (142) 
0.70001

>  <r_epik_Charging_Adjusted_Penalty>  (142) 
1.37915

>  <i_epik_Tot_Q>  (142) 
-1

>  <i_epik_Tot_abs_Q>  (142) 
1

>  <s_lp_Force_Field>  (142) 
OPLS3e

>  <r_lp_Energy>  (142) 
27.6009

>  <b_lp_Chiralities_Consistent>  (142) 
1

>  <s_lp_Variant>  (142) 
29:0-2

>  <s_i_glide_gridfile>  (142) 
pfpi4k_grid

>  <i_i_glide_lignum>  (142) 
11

>  <i_i_glide_rotatable_bonds>  (142) 
2

>  <r_i_docking_score>  (142) 
-3.37512

>  <r_i_glide_ligand_efficiency>  (142) 
-0.168756

>  <r_i_glide_ligand_efficiency_sa>  (142) 
-0.458074

>  <r_i_glide_ligand_efficiency_ln>  (142) 
-0.844681

>  <r_i_glide_gscore>  (142) 
-3.37512

>  <r_i_glide_lipo>  (142) 
-0.446971

>  <r_i_glide_hbond>  (142) 
-0.295469

>  <r_i_glide_metal>  (142) 
-0

>  <r_i_glide_rewards>  (142) 
-1.51817

>  <r_i_glide_evdw>  (142) 
-17.4395

>  <r_i_glide_ecoul>  (142) 
-1.6169

>  <r_i_glide_erotb>  (142) 
0

>  <r_i_glide_esite>  (142) 
0

>  <r_i_glide_emodel>  (142) 
-21.6795

>  <r_i_glide_energy>  (142) 
-19.0564

>  <r_i_glide_einternal>  (142) 
9.47575

>  <r_i_glide_intrahb_reward>  (142) 
-0

>  <i_i_glide_confnum>  (142) 
3

>  <i_i_glide_posenum>  (142) 
3

>  <r_i_glide_eff_state_penalty>  (142) 
0

>  <ligand_id>  (142) 
29

>  <original_smiles>  (142) 
COC1=CC2(CCCCC2)OC2C=C(OC)C(O)C=C12

>  <smiles>  (142) 
[H]C1=C2C(OC([H])([H])[H])=C([H])C3(OC2([H])C([H])=C(OC([H])([H])[H])C1([H])[O-])C([H])([H])C([H])([H])C([H])([H])C([H])([H])C3([H])[H]

$$$$
29:1:1
     RDKit          3D

 41 43  0  0  1  0  0  0  0  0999 V2000
    0.9236   -9.3724    8.1276 C   0  0  0  0  0  0  0  0  0  0  0  0
    0.8326   -7.9509    8.1895 O   0  0  0  0  0  0  0  0  0  0  0  0
    0.6714   -7.2452    7.0151 C   0  0  0  0  0  0  0  0  0  0  0  0
    0.5642   -7.8344    5.8054 C   0  0  0  0  0  0  0  0  0  0  0  0
    0.3514   -7.0803    4.4907 C   0  0  0  0  0  0  0  0  0  0  0  0
   -0.8756   -7.6428    3.7329 C   0  0  0  0  0  0  0  0  0  0  0  0
   -0.6681   -9.0888    3.2390 C   0  0  0  0  0  0  0  0  0  0  0  0
    0.6025   -9.2059    2.3876 C   0  0  0  0  0  0  0  0  0  0  0  0
    1.8355   -8.6624    3.1212 C   0  0  0  0  0  0  0  0  0  0  0  0
    1.6086   -7.2120    3.5965 C   0  0  0  0  0  0  0  0  0  0  0  0
    0.0421   -5.6927    4.7142 O   0  0  0  0  0  0  0  0  0  0  0  0
    0.7950   -5.0502    5.7472 C   0  0  1  0  0  0  0  0  0  0  0  0
    0.4377   -3.5778    5.8846 C   0  0  0  0  0  0  0  0  0  0  0  0
    0.1746   -2.9602    7.0669 C   0  0  0  0  0  0  0  0  0  0  0  0
   -0.1511   -1.6259    7.1978 O   0  0  0  0  0  0  0  0  0  0  0  0
   -0.1817   -0.8140    6.0340 C   0  0  0  0  0  0  0  0  0  0  0  0
    0.1820   -3.6729    8.4171 C   0  0  1  0  0  0  0  0  0  0  0  0
   -0.9868   -3.4838    8.9640 O   0  0  0  0  0  0  0  0  0  0  0  0
    0.3876   -5.1705    8.2362 C   0  0  0  0  0  0  0  0  0  0  0  0
    0.6230   -5.8029    7.0646 C   0  0  0  0  0  0  0  0  0  0  0  0
    1.0682   -9.7595    9.1352 H   0  0  0  0  0  0  0  0  0  0  0  0
    1.7706   -9.7089    7.5282 H   0  0  0  0  0  0  0  0  0  0  0  0
    0.0096   -9.8174    7.7337 H   0  0  0  0  0  0  0  0  0  0  0  0
    0.5899   -8.9043    5.7131 H   0  0  0  0  0  0  0  0  0  0  0  0
   -1.7653   -7.5922    4.3633 H   0  0  0  0  0  0  0  0  0  0  0  0
   -1.0908   -7.0179    2.8640 H   0  0  0  0  0  0  0  0  0  0  0  0
   -0.5894   -9.7768    4.0800 H   0  0  0  0  0  0  0  0  0  0  0  0
   -1.5380   -9.4239    2.6684 H   0  0  0  0  0  0  0  0  0  0  0  0
    0.7609  -10.2440    2.0971 H   0  0  0  0  0  0  0  0  0  0  0  0
    0.4726   -8.6327    1.4711 H   0  0  0  0  0  0  0  0  0  0  0  0
    2.0706   -9.3088    3.9682 H   0  0  0  0  0  0  0  0  0  0  0  0
    2.7061   -8.7109    2.4632 H   0  0  0  0  0  0  0  0  0  0  0  0
    1.5129   -6.5628    2.7238 H   0  0  0  0  0  0  0  0  0  0  0  0
    2.4973   -6.8748    4.1306 H   0  0  0  0  0  0  0  0  0  0  0  0
    1.8484   -5.0760    5.4742 H   0  0  0  0  0  0  0  0  0  0  0  0
    0.4159   -3.0355    4.9567 H   0  0  0  0  0  0  0  0  0  0  0  0
   -0.4509    0.1988    6.3245 H   0  0  0  0  0  0  0  0  0  0  0  0
   -0.9246   -1.1661    5.3207 H   0  0  0  0  0  0  0  0  0  0  0  0
    0.7964   -0.7757    5.5596 H   0  0  0  0  0  0  0  0  0  0  0  0
    1.1097   -3.3420    8.8849 H   0  0  0  0  0  0  0  0  0  0  0  0
    0.2765   -5.7501    9.1349 H   0  0  0  0  0  0  0  0  0  0  0  0
  1  2  1  0
  1 21  1  0
  1 22  1  0
  1 23  1  0
  2  3  1  0
  3 20  1  0
  3  4  2  0
  4  5  1  0
  4 24  1  0
  5 10  1  0
  5  6  1  0
  5 11  1  0
  6  7  1  0
  6 25  1  0
  6 26  1  0
  7  8  1  0
  7 27  1  0
  7 28  1  0
  8  9  1  0
  8 29  1  0
  8 30  1  0
  9 10  1  0
  9 31  1  0
  9 32  1  0
 10 33  1  0
 10 34  1  0
 11 12  1  0
 12 20  1  0
 12 13  1  0
 12 35  1  6
 13 14  2  0
 13 36  1  0
 14 15  1  0
 14 17  1  0
 15 16  1  0
 16 37  1  0
 16 38  1  0
 16 39  1  0
 17 18  1  0
 17 19  1  0
 17 40  1  1
 19 20  2  0
 19 41  1  0
M  CHG  1  18  -1
M  END
>  <i_m_ct_stereo_status>  (143) 
1

>  <s_m_source_file>  (143) 
/var/tmp/pbs.5076255.sched01/tmpstc2q6q5/48db17pvb_.sdf

>  <i_m_source_file_index>  (143) 
11

>  <i_lp_mmshare_version>  (143) 
48012

>  <i_f3d_flags>  (143) 
0

>  <s_epik_input>  (143) 
W0NIM11PQyhbQ0BASF0oW09IXSlbQ0hdPTEpPVtDSF1bQ0BIXShPMilDMUMoT1tDSDNdKT1bQ0hdQzIzW0NIMl1bQ0gyXVtDSDJdW0NIMl1bQ0gyXTM=

>  <s_epik_cmdline>  (143) 
J2VwaWtfcHl0aG9uJywgJy1waHQnLCAnMi4wJywgJy1waCcsICc3LjAnLCAnLXRuJywgJzgnLCAnLW1hJywgJzIwMCcsICctaW1hZScsICc8aW5maWxlLm1hZT4nLCAnLW9tYWUnLCAnPG91dGZpbGUubWFlPic=

>  <r_epik_Ionization_Penalty>  (143) 
0.679135

>  <r_epik_Ionization_Penalty_Charging>  (143) 
0.679135

>  <r_epik_Ionization_Penalty_Neutral>  (143) 
8.68285e-15

>  <r_epik_State_Penalty>  (143) 
0.70001

>  <r_epik_Charging_Adjusted_Penalty>  (143) 
1.37915

>  <i_epik_Tot_Q>  (143) 
-1

>  <i_epik_Tot_abs_Q>  (143) 
1

>  <s_lp_Force_Field>  (143) 
OPLS3e

>  <r_lp_Energy>  (143) 
27.6009

>  <b_lp_Chiralities_Consistent>  (143) 
1

>  <s_lp_Variant>  (143) 
29:0-2

>  <s_i_glide_gridfile>  (143) 
pfpi4k_grid

>  <i_i_glide_lignum>  (143) 
11

>  <i_i_glide_rotatable_bonds>  (143) 
2

>  <r_i_docking_score>  (143) 
-3.2333

>  <r_i_glide_ligand_efficiency>  (143) 
-0.161665

>  <r_i_glide_ligand_efficiency_sa>  (143) 
-0.438827

>  <r_i_glide_ligand_efficiency_ln>  (143) 
-0.809189

>  <r_i_glide_gscore>  (143) 
-3.2333

>  <r_i_glide_lipo>  (143) 
0

>  <r_i_glide_hbond>  (143) 
-0.176954

>  <r_i_glide_metal>  (143) 
-0

>  <r_i_glide_rewards>  (143) 
-1.51817

>  <r_i_glide_evdw>  (143) 
-15.5044

>  <r_i_glide_ecoul>  (143) 
-5.08641

>  <r_i_glide_erotb>  (143) 
0

>  <r_i_glide_esite>  (143) 
0

>  <r_i_glide_emodel>  (143) 
-27.7898

>  <r_i_glide_energy>  (143) 
-20.5908

>  <r_i_glide_einternal>  (143) 
0.0169079

>  <r_i_glide_intrahb_reward>  (143) 
-0

>  <i_i_glide_confnum>  (143) 
1

>  <i_i_glide_posenum>  (143) 
34

>  <r_i_glide_eff_state_penalty>  (143) 
0

>  <ligand_id>  (143) 
29

>  <original_smiles>  (143) 
COC1=CC2(CCCCC2)OC2C=C(OC)C(O)C=C12

>  <smiles>  (143) 
[H]C1=C2C(OC([H])([H])[H])=C([H])C3(OC2([H])C([H])=C(OC([H])([H])[H])C1([H])[O-])C([H])([H])C([H])([H])C([H])([H])C([H])([H])C3([H])[H]

$$$$
29:1:2
     RDKit          3D

 41 43  0  0  1  0  0  0  0  0999 V2000
    2.3061   -6.9971    8.7619 C   0  0  0  0  0  0  0  0  0  0  0  0
    1.1127   -7.4118    8.0908 O   0  0  0  0  0  0  0  0  0  0  0  0
    0.7480   -6.6956    6.9717 C   0  0  0  0  0  0  0  0  0  0  0  0
    0.4366   -7.4018    5.8814 C   0  0  0  0  0  0  0  0  0  0  0  0
    0.0568   -6.7878    4.5258 C   0  0  0  0  0  0  0  0  0  0  0  0
   -1.2690   -7.3894    4.0007 C   0  0  0  0  0  0  0  0  0  0  0  0
   -1.1460   -8.8790    3.6305 C   0  0  0  0  0  0  0  0  0  0  0  0
   -0.0146   -9.1203    2.6223 C   0  0  0  0  0  0  0  0  0  0  0  0
    1.3160   -8.5359    3.1193 C   0  0  0  0  0  0  0  0  0  0  0  0
    1.1740   -7.0436    3.4807 C   0  0  0  0  0  0  0  0  0  0  0  0
   -0.1830   -5.3776    4.6472 O   0  0  0  0  0  0  0  0  0  0  0  0
    0.7134   -4.6447    5.4840 C   0  0  1  0  0  0  0  0  0  0  0  0
    0.3684   -3.1591    5.5248 C   0  0  0  0  0  0  0  0  0  0  0  0
    0.2695   -2.4185    6.6684 C   0  0  0  0  0  0  0  0  0  0  0  0
   -0.0325   -1.0725    6.7046 O   0  0  0  0  0  0  0  0  0  0  0  0
   -0.2287   -0.3946    5.4758 C   0  0  0  0  0  0  0  0  0  0  0  0
    0.4793   -2.9872    8.0665 C   0  0  1  0  0  0  0  0  0  0  0  0
   -0.5699   -2.7565    8.7912 O   0  0  0  0  0  0  0  0  0  0  0  0
    0.6165   -4.4899    7.9988 C   0  0  0  0  0  0  0  0  0  0  0  0
    0.7340   -5.2464    6.8863 C   0  0  0  0  0  0  0  0  0  0  0  0
    2.3936   -7.5545    9.6966 H   0  0  0  0  0  0  0  0  0  0  0  0
    2.4122   -5.9488    9.0344 H   0  0  0  0  0  0  0  0  0  0  0  0
    3.1620   -7.2286    8.1290 H   0  0  0  0  0  0  0  0  0  0  0  0
    0.4637   -8.4768    5.9512 H   0  0  0  0  0  0  0  0  0  0  0  0
   -2.0586   -7.2589    4.7405 H   0  0  0  0  0  0  0  0  0  0  0  0
   -1.6010   -6.8508    3.1138 H   0  0  0  0  0  0  0  0  0  0  0  0
   -0.9488   -9.4484    4.5300 H   0  0  0  0  0  0  0  0  0  0  0  0
   -2.0909   -9.2634    3.2390 H   0  0  0  0  0  0  0  0  0  0  0  0
    0.0946  -10.1885    2.4300 H   0  0  0  0  0  0  0  0  0  0  0  0
   -0.2830   -8.6549    1.6786 H   0  0  0  0  0  0  0  0  0  0  0  0
    1.6611   -9.0974    3.9888 H   0  0  0  0  0  0  0  0  0  0  0  0
    2.0870   -8.6681    2.3591 H   0  0  0  0  0  0  0  0  0  0  0  0
    0.9601   -6.4810    2.5710 H   0  0  0  0  0  0  0  0  0  0  0  0
    2.1317   -6.6743    3.8463 H   0  0  0  0  0  0  0  0  0  0  0  0
    1.7137   -4.7238    5.0586 H   0  0  0  0  0  0  0  0  0  0  0  0
    0.2159   -2.7230    4.5561 H   0  0  0  0  0  0  0  0  0  0  0  0
   -0.4422    0.6476    5.7001 H   0  0  0  0  0  0  0  0  0  0  0  0
   -1.0794   -0.8015    4.9302 H   0  0  0  0  0  0  0  0  0  0  0  0
    0.6620   -0.4239    4.8479 H   0  0  0  0  0  0  0  0  0  0  0  0
    1.4757   -2.6442    8.3520 H   0  0  0  0  0  0  0  0  0  0  0  0
    0.5195   -4.9605    8.9605 H   0  0  0  0  0  0  0  0  0  0  0  0
  1  2  1  0
  1 21  1  0
  1 22  1  0
  1 23  1  0
  2  3  1  0
  3 20  1  0
  3  4  2  0
  4  5  1  0
  4 24  1  0
  5 10  1  0
  5  6  1  0
  5 11  1  0
  6  7  1  0
  6 25  1  0
  6 26  1  0
  7  8  1  0
  7 27  1  0
  7 28  1  0
  8  9  1  0
  8 29  1  0
  8 30  1  0
  9 10  1  0
  9 31  1  0
  9 32  1  0
 10 33  1  0
 10 34  1  0
 11 12  1  0
 12 20  1  0
 12 13  1  0
 12 35  1  6
 13 14  2  0
 13 36  1  0
 14 15  1  0
 14 17  1  0
 15 16  1  0
 16 37  1  0
 16 38  1  0
 16 39  1  0
 17 18  1  0
 17 19  1  0
 17 40  1  1
 19 20  2  0
 19 41  1  0
M  CHG  1  18  -1
M  END
>  <i_m_ct_stereo_status>  (144) 
1

>  <s_m_source_file>  (144) 
/var/tmp/pbs.5076255.sched01/tmpstc2q6q5/48db17pvb_.sdf

>  <i_m_source_file_index>  (144) 
11

>  <i_lp_mmshare_version>  (144) 
48012

>  <i_f3d_flags>  (144) 
0

>  <s_epik_input>  (144) 
W0NIM11PQyhbQ0BASF0oW09IXSlbQ0hdPTEpPVtDSF1bQ0BIXShPMilDMUMoT1tDSDNdKT1bQ0hdQzIzW0NIMl1bQ0gyXVtDSDJdW0NIMl1bQ0gyXTM=

>  <s_epik_cmdline>  (144) 
J2VwaWtfcHl0aG9uJywgJy1waHQnLCAnMi4wJywgJy1waCcsICc3LjAnLCAnLXRuJywgJzgnLCAnLW1hJywgJzIwMCcsICctaW1hZScsICc8aW5maWxlLm1hZT4nLCAnLW9tYWUnLCAnPG91dGZpbGUubWFlPic=

>  <r_epik_Ionization_Penalty>  (144) 
0.679135

>  <r_epik_Ionization_Penalty_Charging>  (144) 
0.679135

>  <r_epik_Ionization_Penalty_Neutral>  (144) 
8.68285e-15

>  <r_epik_State_Penalty>  (144) 
0.70001

>  <r_epik_Charging_Adjusted_Penalty>  (144) 
1.37915

>  <i_epik_Tot_Q>  (144) 
-1

>  <i_epik_Tot_abs_Q>  (144) 
1

>  <s_lp_Force_Field>  (144) 
OPLS3e

>  <r_lp_Energy>  (144) 
27.6009

>  <b_lp_Chiralities_Consistent>  (144) 
1

>  <s_lp_Variant>  (144) 
29:0-2

>  <s_i_glide_gridfile>  (144) 
pfpi4k_grid

>  <i_i_glide_lignum>  (144) 
11

>  <i_i_glide_rotatable_bonds>  (144) 
2

>  <r_i_docking_score>  (144) 
-3.22746

>  <r_i_glide_ligand_efficiency>  (144) 
-0.161373

>  <r_i_glide_ligand_efficiency_sa>  (144) 
-0.438034

>  <r_i_glide_ligand_efficiency_ln>  (144) 
-0.807727

>  <r_i_glide_gscore>  (144) 
-3.22746

>  <r_i_glide_lipo>  (144) 
0

>  <r_i_glide_hbond>  (144) 
-0.2

>  <r_i_glide_metal>  (144) 
-0

>  <r_i_glide_rewards>  (144) 
-1.51817

>  <r_i_glide_evdw>  (144) 
-13.0665

>  <r_i_glide_ecoul>  (144) 
-5.70645

>  <r_i_glide_erotb>  (144) 
0

>  <r_i_glide_esite>  (144) 
0

>  <r_i_glide_emodel>  (144) 
-21.1072

>  <r_i_glide_energy>  (144) 
-18.7729

>  <r_i_glide_einternal>  (144) 
9.49196

>  <r_i_glide_intrahb_reward>  (144) 
-0

>  <i_i_glide_confnum>  (144) 
1

>  <i_i_glide_posenum>  (144) 
1

>  <r_i_glide_eff_state_penalty>  (144) 
0

>  <ligand_id>  (144) 
29

>  <original_smiles>  (144) 
COC1=CC2(CCCCC2)OC2C=C(OC)C(O)C=C12

>  <smiles>  (144) 
[H]C1=C2C(OC([H])([H])[H])=C([H])C3(OC2([H])C([H])=C(OC([H])([H])[H])C1([H])[O-])C([H])([H])C([H])([H])C([H])([H])C([H])([H])C3([H])[H]

$$$$
30:0:0
     RDKit          3D

 34 37  0  0  1  0  0  0  0  0999 V2000
    2.9077   -6.8391    2.6043 C   0  0  0  0  0  0  0  0  0  0  0  0
    2.6895   -5.9704    1.4287 C   0  0  0  0  0  0  0  0  0  0  0  0
    1.5580   -6.0325    0.7392 N   0  0  0  0  0  0  0  0  0  0  0  0
    1.7771   -5.1106   -0.2930 O   0  0  0  0  0  0  0  0  0  0  0  0
    3.0023   -4.5723   -0.0723 C   0  0  0  0  0  0  0  0  0  0  0  0
    3.4973   -3.4950   -0.9918 C   0  0  1  0  0  0  0  0  0  0  0  0
    2.5134   -3.2554   -2.1861 C   0  0  0  0  0  0  0  0  0  0  0  0
    3.0601   -2.1783   -3.1325 C   0  0  2  0  0  0  0  0  0  0  0  0
    4.4316   -2.6078   -3.6691 C   0  0  0  0  0  0  0  0  0  0  0  0
    5.4167   -2.7867   -2.4962 C   0  0  1  0  0  0  0  0  0  0  0  0
    5.5437   -1.4758   -1.6946 C   0  0  0  0  0  0  0  0  0  0  0  0
    4.1648   -1.0534   -1.1739 C   0  0  1  0  0  0  0  0  0  0  0  0
    3.2201   -0.8475   -2.3827 C   0  0  0  0  0  0  0  0  0  0  0  0
    3.6266   -2.1487   -0.2279 C   0  0  0  0  0  0  0  0  0  0  0  0
    4.8915   -3.8890   -1.5566 C   0  0  0  0  0  0  0  0  0  0  0  0
    3.6133   -5.0721    1.0011 N   0  0  0  0  0  0  0  0  0  0  0  0
    2.0440   -7.4849    2.7792 H   0  0  0  0  0  0  0  0  0  0  0  0
    3.0639   -6.2187    3.4920 H   0  0  0  0  0  0  0  0  0  0  0  0
    3.7845   -7.4721    2.4415 H   0  0  0  0  0  0  0  0  0  0  0  0
    2.3352   -4.1562   -2.7764 H   0  0  0  0  0  0  0  0  0  0  0  0
    1.5306   -2.9588   -1.8194 H   0  0  0  0  0  0  0  0  0  0  0  0
    2.3665   -2.0437   -3.9611 H   0  0  0  0  0  0  0  0  0  0  0  0
    4.3441   -3.5332   -4.2415 H   0  0  0  0  0  0  0  0  0  0  0  0
    4.7837   -1.8232   -4.3355 H   0  0  0  0  0  0  0  0  0  0  0  0
    6.3929   -3.0774   -2.8911 H   0  0  0  0  0  0  0  0  0  0  0  0
    6.2489   -1.6001   -0.8722 H   0  0  0  0  0  0  0  0  0  0  0  0
    5.8965   -0.6680   -2.3234 H   0  0  0  0  0  0  0  0  0  0  0  0
    4.2665   -0.1263   -0.6161 H   0  0  0  0  0  0  0  0  0  0  0  0
    3.6048   -0.0695   -3.0483 H   0  0  0  0  0  0  0  0  0  0  0  0
    2.2387   -0.5049   -2.0836 H   0  0  0  0  0  0  0  0  0  0  0  0
    2.6643   -1.8428    0.1825 H   0  0  0  0  0  0  0  0  0  0  0  0
    4.3034   -2.2529    0.6241 H   0  0  0  0  0  0  0  0  0  0  0  0
    5.6065   -4.0406   -0.7468 H   0  0  0  0  0  0  0  0  0  0  0  0
    4.8393   -4.8347   -2.0971 H   0  0  0  0  0  0  0  0  0  0  0  0
  1  2  1  0
  1 17  1  0
  1 18  1  0
  1 19  1  0
  2 16  1  0
  2  3  2  0
  3  4  1  0
  4  5  1  0
  6  5  1  1
  5 16  2  0
  6 14  1  0
  6 15  1  0
  6  7  1  0
  7  8  1  0
  7 20  1  0
  7 21  1  0
  8 13  1  0
  8  9  1  0
  8 22  1  6
  9 10  1  0
  9 23  1  0
  9 24  1  0
 10 11  1  0
 10 15  1  0
 10 25  1  6
 11 12  1  0
 11 26  1  0
 11 27  1  0
 12 13  1  0
 12 14  1  0
 12 28  1  1
 13 29  1  0
 13 30  1  0
 14 31  1  0
 14 32  1  0
 15 33  1  0
 15 34  1  0
M  END
>  <i_m_ct_stereo_status>  (145) 
1

>  <s_m_source_file>  (145) 
/var/tmp/pbs.5076255.sched01/tmpstc2q6q5/48db17pvb_.sdf

>  <i_m_source_file_index>  (145) 
12

>  <i_lp_mmshare_version>  (145) 
48012

>  <i_f3d_flags>  (145) 
0

>  <s_epik_input>  (145) 
W0NIM11jMW5vYyhuMSlDMjNbQ0gyXVtDQEhdNFtDSDJdW0NAQEhdKFtDSDJdMylbQ0gyXVtDQEhdKFtDSDJdNClbQ0gyXTI=

>  <s_epik_cmdline>  (145) 
J2VwaWtfcHl0aG9uJywgJy1waHQnLCAnMi4wJywgJy1waCcsICc3LjAnLCAnLXRuJywgJzgnLCAnLW1hJywgJzIwMCcsICctaW1hZScsICc8aW5maWxlLm1hZT4nLCAnLW9tYWUnLCAnPG91dGZpbGUubWFlPic=

>  <r_lp_tautomer_probability>  (145) 
1

>  <r_epik_Ionization_Penalty>  (145) 
2.90446e-10

>  <r_epik_Ionization_Penalty_Charging>  (145) 
0

>  <r_epik_Ionization_Penalty_Neutral>  (145) 
2.90446e-10

>  <r_epik_State_Penalty>  (145) 
-0

>  <r_epik_Charging_Adjusted_Penalty>  (145) 
0

>  <i_epik_Tot_Q>  (145) 
0

>  <i_epik_Tot_abs_Q>  (145) 
0

>  <s_lp_Force_Field>  (145) 
OPLS3e

>  <r_lp_Energy>  (145) 
-1.36945

>  <b_lp_Chiralities_Consistent>  (145) 
1

>  <s_lp_Variant>  (145) 
30:0-1

>  <s_i_glide_gridfile>  (145) 
pfpi4k_grid

>  <i_i_glide_lignum>  (145) 
12

>  <i_i_glide_rotatable_bonds>  (145) 
1

>  <r_i_docking_score>  (145) 
-3.49552

>  <r_i_glide_ligand_efficiency>  (145) 
-0.21847

>  <r_i_glide_ligand_efficiency_sa>  (145) 
-0.55051

>  <r_i_glide_ligand_efficiency_ln>  (145) 
-0.926557

>  <r_i_glide_gscore>  (145) 
-3.49552

>  <r_i_glide_lipo>  (145) 
-0.465496

>  <r_i_glide_hbond>  (145) 
0

>  <r_i_glide_metal>  (145) 
-0

>  <r_i_glide_rewards>  (145) 
-1.92072

>  <r_i_glide_evdw>  (145) 
-13.5899

>  <r_i_glide_ecoul>  (145) 
-3.95659

>  <r_i_glide_erotb>  (145) 
0.352609

>  <r_i_glide_esite>  (145) 
-0.188929

>  <r_i_glide_emodel>  (145) 
-21.4361

>  <r_i_glide_energy>  (145) 
-17.5465

>  <r_i_glide_einternal>  (145) 
1.49298

>  <r_i_glide_intrahb_reward>  (145) 
-0

>  <i_i_glide_confnum>  (145) 
5

>  <i_i_glide_posenum>  (145) 
5

>  <r_i_glide_eff_state_penalty>  (145) 
0

>  <ligand_id>  (145) 
30

>  <original_smiles>  (145) 
Cc1noc(C23CC4CC(CC(C4)C2)C3)n1

>  <smiles>  (145) 
[H]C([H])([H])c1noc(C23C([H])([H])C4([H])C([H])([H])C([H])(C([H])([H])C([H])(C4([H])[H])C2([H])[H])C3([H])[H])n1

$$$$
30:0:1
     RDKit          3D

 34 37  0  0  1  0  0  0  0  0999 V2000
    2.6472   -7.8337    1.8264 C   0  0  0  0  0  0  0  0  0  0  0  0
    2.7435   -6.5208    1.1442 C   0  0  0  0  0  0  0  0  0  0  0  0
    1.6730   -5.8929    0.6752 N   0  0  0  0  0  0  0  0  0  0  0  0
    2.2157   -4.7413    0.0863 O   0  0  0  0  0  0  0  0  0  0  0  0
    3.5533   -4.8025    0.3021 C   0  0  0  0  0  0  0  0  0  0  0  0
    4.4233   -3.6798   -0.1967 C   0  0  1  0  0  0  0  0  0  0  0  0
    4.3356   -3.5697   -1.7404 C   0  0  0  0  0  0  0  0  0  0  0  0
    5.2354   -2.4215   -2.2455 C   0  0  2  0  0  0  0  0  0  0  0  0
    6.6976   -2.7085   -1.8523 C   0  0  0  0  0  0  0  0  0  0  0  0
    6.8050   -2.7869   -0.3145 C   0  0  1  0  0  0  0  0  0  0  0  0
    6.3402   -1.4677    0.3398 C   0  0  0  0  0  0  0  0  0  0  0  0
    4.8827   -1.1842   -0.0786 C   0  0  1  0  0  0  0  0  0  0  0  0
    4.7791   -1.0881   -1.6163 C   0  0  0  0  0  0  0  0  0  0  0  0
    3.9792   -2.3294    0.4274 C   0  0  0  0  0  0  0  0  0  0  0  0
    5.9085   -3.9324    0.1912 C   0  0  0  0  0  0  0  0  0  0  0  0
    3.9377   -5.9025    0.9477 N   0  0  0  0  0  0  0  0  0  0  0  0
    1.6148   -8.1748    1.8772 H   0  0  0  0  0  0  0  0  0  0  0  0
    3.0365   -7.7459    2.8399 H   0  0  0  0  0  0  0  0  0  0  0  0
    3.2285   -8.5763    1.2800 H   0  0  0  0  0  0  0  0  0  0  0  0
    4.6349   -4.5122   -2.2018 H   0  0  0  0  0  0  0  0  0  0  0  0
    3.3037   -3.3908   -2.0502 H   0  0  0  0  0  0  0  0  0  0  0  0
    5.1581   -2.3583   -3.3307 H   0  0  0  0  0  0  0  0  0  0  0  0
    7.0253   -3.6454   -2.3024 H   0  0  0  0  0  0  0  0  0  0  0  0
    7.3629   -1.9460   -2.2495 H   0  0  0  0  0  0  0  0  0  0  0  0
    7.8381   -2.9884   -0.0323 H   0  0  0  0  0  0  0  0  0  0  0  0
    6.4043   -1.5480    1.4260 H   0  0  0  0  0  0  0  0  0  0  0  0
    6.9930   -0.6385    0.0749 H   0  0  0  0  0  0  0  0  0  0  0  0
    4.5522   -0.2441    0.3631 H   0  0  0  0  0  0  0  0  0  0  0  0
    5.3871   -0.2629   -1.9876 H   0  0  0  0  0  0  0  0  0  0  0  0
    3.7511   -0.8687   -1.9095 H   0  0  0  0  0  0  0  0  0  0  0  0
    2.9405   -2.1120    0.1687 H   0  0  0  0  0  0  0  0  0  0  0  0
    4.0186   -2.3845    1.5166 H   0  0  0  0  0  0  0  0  0  0  0  0
    6.0068   -4.0244    1.2743 H   0  0  0  0  0  0  0  0  0  0  0  0
    6.2507   -4.8797   -0.2279 H   0  0  0  0  0  0  0  0  0  0  0  0
  1  2  1  0
  1 17  1  0
  1 18  1  0
  1 19  1  0
  2 16  1  0
  2  3  2  0
  3  4  1  0
  4  5  1  0
  6  5  1  1
  5 16  2  0
  6 14  1  0
  6 15  1  0
  6  7  1  0
  7  8  1  0
  7 20  1  0
  7 21  1  0
  8 13  1  0
  8  9  1  0
  8 22  1  6
  9 10  1  0
  9 23  1  0
  9 24  1  0
 10 11  1  0
 10 15  1  0
 10 25  1  6
 11 12  1  0
 11 26  1  0
 11 27  1  0
 12 13  1  0
 12 14  1  0
 12 28  1  1
 13 29  1  0
 13 30  1  0
 14 31  1  0
 14 32  1  0
 15 33  1  0
 15 34  1  0
M  END
>  <i_m_ct_stereo_status>  (146) 
1

>  <s_m_source_file>  (146) 
/var/tmp/pbs.5076255.sched01/tmpstc2q6q5/48db17pvb_.sdf

>  <i_m_source_file_index>  (146) 
12

>  <i_lp_mmshare_version>  (146) 
48012

>  <i_f3d_flags>  (146) 
0

>  <s_epik_input>  (146) 
W0NIM11jMW5vYyhuMSlDMjNbQ0gyXVtDQEhdNFtDSDJdW0NAQEhdKFtDSDJdMylbQ0gyXVtDQEhdKFtDSDJdNClbQ0gyXTI=

>  <s_epik_cmdline>  (146) 
J2VwaWtfcHl0aG9uJywgJy1waHQnLCAnMi4wJywgJy1waCcsICc3LjAnLCAnLXRuJywgJzgnLCAnLW1hJywgJzIwMCcsICctaW1hZScsICc8aW5maWxlLm1hZT4nLCAnLW9tYWUnLCAnPG91dGZpbGUubWFlPic=

>  <r_lp_tautomer_probability>  (146) 
1

>  <r_epik_Ionization_Penalty>  (146) 
2.90446e-10

>  <r_epik_Ionization_Penalty_Charging>  (146) 
0

>  <r_epik_Ionization_Penalty_Neutral>  (146) 
2.90446e-10

>  <r_epik_State_Penalty>  (146) 
-0

>  <r_epik_Charging_Adjusted_Penalty>  (146) 
0

>  <i_epik_Tot_Q>  (146) 
0

>  <i_epik_Tot_abs_Q>  (146) 
0

>  <s_lp_Force_Field>  (146) 
OPLS3e

>  <r_lp_Energy>  (146) 
-1.36945

>  <b_lp_Chiralities_Consistent>  (146) 
1

>  <s_lp_Variant>  (146) 
30:0-1

>  <s_i_glide_gridfile>  (146) 
pfpi4k_grid

>  <i_i_glide_lignum>  (146) 
12

>  <i_i_glide_rotatable_bonds>  (146) 
1

>  <r_i_docking_score>  (146) 
-3.20556

>  <r_i_glide_ligand_efficiency>  (146) 
-0.200348

>  <r_i_glide_ligand_efficiency_sa>  (146) 
-0.504844

>  <r_i_glide_ligand_efficiency_ln>  (146) 
-0.849698

>  <r_i_glide_gscore>  (146) 
-3.20556

>  <r_i_glide_lipo>  (146) 
-0.223948

>  <r_i_glide_hbond>  (146) 
0

>  <r_i_glide_metal>  (146) 
-0

>  <r_i_glide_rewards>  (146) 
-1.92072

>  <r_i_glide_evdw>  (146) 
-17.5848

>  <r_i_glide_ecoul>  (146) 
-2.56457

>  <r_i_glide_erotb>  (146) 
0.352609

>  <r_i_glide_esite>  (146) 
-0.149581

>  <r_i_glide_emodel>  (146) 
-24.4616

>  <r_i_glide_energy>  (146) 
-20.1494

>  <r_i_glide_einternal>  (146) 
0.0178823

>  <r_i_glide_intrahb_reward>  (146) 
-0

>  <i_i_glide_confnum>  (146) 
4

>  <i_i_glide_posenum>  (146) 
1

>  <r_i_glide_eff_state_penalty>  (146) 
0

>  <ligand_id>  (146) 
30

>  <original_smiles>  (146) 
Cc1noc(C23CC4CC(CC(C4)C2)C3)n1

>  <smiles>  (146) 
[H]C([H])([H])c1noc(C23C([H])([H])C4([H])C([H])([H])C([H])(C([H])([H])C([H])(C4([H])[H])C2([H])[H])C3([H])[H])n1

$$$$
30:0:2
     RDKit          3D

 34 37  0  0  1  0  0  0  0  0999 V2000
    3.9056   -5.5183    3.1934 C   0  0  0  0  0  0  0  0  0  0  0  0
    3.4157   -5.0853    1.8690 C   0  0  0  0  0  0  0  0  0  0  0  0
    2.2955   -5.5832    1.3508 N   0  0  0  0  0  0  0  0  0  0  0  0
    2.2189   -4.9630    0.1009 O   0  0  0  0  0  0  0  0  0  0  0  0
    3.2723   -4.0939    0.0550 C   0  0  0  0  0  0  0  0  0  0  0  0
    3.4875   -3.2520   -1.1666 C   0  0  1  0  0  0  0  0  0  0  0  0
    2.2286   -3.2397   -2.0816 C   0  0  0  0  0  0  0  0  0  0  0  0
    2.4303   -2.3409   -3.3108 C   0  0  2  0  0  0  0  0  0  0  0  0
    3.6090   -2.9099   -4.1037 C   0  0  0  0  0  0  0  0  0  0  0  0
    4.8806   -2.8900   -3.2243 C   0  0  1  0  0  0  0  0  0  0  0  0
    5.1430   -1.4610   -2.7421 C   0  0  0  0  0  0  0  0  0  0  0  0
    3.9874   -0.8990   -1.9697 C   0  0  1  0  0  0  0  0  0  0  0  0
    2.7756   -0.8872   -2.9057 C   0  0  0  0  0  0  0  0  0  0  0  0
    3.7587   -1.7756   -0.7323 C   0  0  0  0  0  0  0  0  0  0  0  0
    4.7141   -3.7640   -1.9793 C   0  0  0  0  0  0  0  0  0  0  0  0
    4.0677   -4.1638    1.1122 N   0  0  0  0  0  0  0  0  0  0  0  0
    3.2264   -6.2514    3.6236 H   0  0  0  0  0  0  0  0  0  0  0  0
    3.9570   -4.6561    3.8585 H   0  0  0  0  0  0  0  0  0  0  0  0
    4.8891   -5.9761    3.0827 H   0  0  0  0  0  0  0  0  0  0  0  0
    1.9612   -4.2420   -2.4231 H   0  0  0  0  0  0  0  0  0  0  0  0
    1.3535   -2.9313   -1.5330 H   0  0  0  0  0  0  0  0  0  0  0  0
    1.5407   -2.3793   -3.9425 H   0  0  0  0  0  0  0  0  0  0  0  0
    3.4063   -3.9353   -4.4190 H   0  0  0  0  0  0  0  0  0  0  0  0
    3.7236   -2.2899   -4.9927 H   0  0  0  0  0  0  0  0  0  0  0  0
    5.7263   -3.2585   -3.8041 H   0  0  0  0  0  0  0  0  0  0  0  0
    6.0702   -1.4133   -2.1605 H   0  0  0  0  0  0  0  0  0  0  0  0
    5.1156   -0.7980   -3.5981 H   0  0  0  0  0  0  0  0  0  0  0  0
    4.2554    0.1220   -1.6947 H   0  0  0  0  0  0  0  0  0  0  0  0
    2.9325   -0.2814   -3.7988 H   0  0  0  0  0  0  0  0  0  0  0  0
    2.0058   -0.3671   -2.3768 H   0  0  0  0  0  0  0  0  0  0  0  0
    2.9441   -1.3597   -0.1374 H   0  0  0  0  0  0  0  0  0  0  0  0
    4.6530   -1.7148   -0.1073 H   0  0  0  0  0  0  0  0  0  0  0  0
    5.6255   -3.7032   -1.3761 H   0  0  0  0  0  0  0  0  0  0  0  0
    4.6165   -4.7984   -2.3020 H   0  0  0  0  0  0  0  0  0  0  0  0
  1  2  1  0
  1 17  1  0
  1 18  1  0
  1 19  1  0
  2 16  1  0
  2  3  2  0
  3  4  1  0
  4  5  1  0
  6  5  1  1
  5 16  2  0
  6 14  1  0
  6 15  1  0
  6  7  1  0
  7  8  1  0
  7 20  1  0
  7 21  1  0
  8 13  1  0
  8  9  1  0
  8 22  1  6
  9 10  1  0
  9 23  1  0
  9 24  1  0
 10 11  1  0
 10 15  1  0
 10 25  1  6
 11 12  1  0
 11 26  1  0
 11 27  1  0
 12 13  1  0
 12 14  1  0
 12 28  1  1
 13 29  1  0
 13 30  1  0
 14 31  1  0
 14 32  1  0
 15 33  1  0
 15 34  1  0
M  END
>  <i_m_ct_stereo_status>  (147) 
1

>  <s_m_source_file>  (147) 
/var/tmp/pbs.5076255.sched01/tmpstc2q6q5/48db17pvb_.sdf

>  <i_m_source_file_index>  (147) 
12

>  <i_lp_mmshare_version>  (147) 
48012

>  <i_f3d_flags>  (147) 
0

>  <s_epik_input>  (147) 
W0NIM11jMW5vYyhuMSlDMjNbQ0gyXVtDQEhdNFtDSDJdW0NAQEhdKFtDSDJdMylbQ0gyXVtDQEhdKFtDSDJdNClbQ0gyXTI=

>  <s_epik_cmdline>  (147) 
J2VwaWtfcHl0aG9uJywgJy1waHQnLCAnMi4wJywgJy1waCcsICc3LjAnLCAnLXRuJywgJzgnLCAnLW1hJywgJzIwMCcsICctaW1hZScsICc8aW5maWxlLm1hZT4nLCAnLW9tYWUnLCAnPG91dGZpbGUubWFlPic=

>  <r_lp_tautomer_probability>  (147) 
1

>  <r_epik_Ionization_Penalty>  (147) 
2.90446e-10

>  <r_epik_Ionization_Penalty_Charging>  (147) 
0

>  <r_epik_Ionization_Penalty_Neutral>  (147) 
2.90446e-10

>  <r_epik_State_Penalty>  (147) 
-0

>  <r_epik_Charging_Adjusted_Penalty>  (147) 
0

>  <i_epik_Tot_Q>  (147) 
0

>  <i_epik_Tot_abs_Q>  (147) 
0

>  <s_lp_Force_Field>  (147) 
OPLS3e

>  <r_lp_Energy>  (147) 
-1.36945

>  <b_lp_Chiralities_Consistent>  (147) 
1

>  <s_lp_Variant>  (147) 
30:0-1

>  <s_i_glide_gridfile>  (147) 
pfpi4k_grid

>  <i_i_glide_lignum>  (147) 
12

>  <i_i_glide_rotatable_bonds>  (147) 
1

>  <r_i_docking_score>  (147) 
-2.82984

>  <r_i_glide_ligand_efficiency>  (147) 
-0.176865

>  <r_i_glide_ligand_efficiency_sa>  (147) 
-0.445672

>  <r_i_glide_ligand_efficiency_ln>  (147) 
-0.750105

>  <r_i_glide_gscore>  (147) 
-2.82984

>  <r_i_glide_lipo>  (147) 
-0.47487

>  <r_i_glide_hbond>  (147) 
0

>  <r_i_glide_metal>  (147) 
-0

>  <r_i_glide_rewards>  (147) 
-1.92666

>  <r_i_glide_evdw>  (147) 
-9.40236

>  <r_i_glide_ecoul>  (147) 
-1.41257

>  <r_i_glide_erotb>  (147) 
0.352609

>  <r_i_glide_esite>  (147) 
-0.0989179

>  <r_i_glide_emodel>  (147) 
-12.8193

>  <r_i_glide_energy>  (147) 
-10.8149

>  <r_i_glide_einternal>  (147) 
1.3678

>  <r_i_glide_intrahb_reward>  (147) 
-0

>  <i_i_glide_confnum>  (147) 
2

>  <i_i_glide_posenum>  (147) 
26

>  <r_i_glide_eff_state_penalty>  (147) 
0

>  <ligand_id>  (147) 
30

>  <original_smiles>  (147) 
Cc1noc(C23CC4CC(CC(C4)C2)C3)n1

>  <smiles>  (147) 
[H]C([H])([H])c1noc(C23C([H])([H])C4([H])C([H])([H])C([H])(C([H])([H])C([H])(C4([H])[H])C2([H])[H])C3([H])[H])n1

$$$$
32:0:0
     RDKit          3D

 59 64  0  0  1  0  0  0  0  0999 V2000
   -1.8009    2.4864    8.3121 C   0  0  0  0  0  0  0  0  0  0  0  0
   -1.2097    2.2051    6.8970 C   0  0  1  0  0  0  0  0  0  0  0  0
   -1.6875    3.4093    5.9727 C   0  0  0  0  0  0  0  0  0  0  0  0
   -2.5462    3.0635    4.7719 N   0  0  0  0  0  0  0  0  0  0  0  0
   -2.0213    2.9712    3.3643 C   0  0  1  0  0  0  0  0  0  0  0  0
   -1.4054    4.2239    3.2132 O   0  0  0  0  0  0  0  0  0  0  0  0
   -1.1240    1.7369    2.9868 C   0  0  1  0  0  0  0  0  0  0  0  0
   -1.7182    1.1285    1.8777 O   0  0  0  0  0  0  0  0  0  0  0  0
    0.4083    1.9101    2.7940 C   0  0  2  0  0  0  0  0  0  0  0  0
    1.2525    0.8923    2.0033 C   0  0  0  0  0  0  0  0  0  0  0  0
    2.6393    0.6945    2.6455 C   0  0  0  0  0  0  0  0  0  0  0  0
    2.6467    0.4661    4.1930 C   0  0  2  0  0  0  0  0  0  0  0  0
    4.0201    0.5174    4.5362 O   0  0  0  0  0  0  0  0  0  0  0  0
    2.2318   -0.9735    4.5561 C   0  0  0  0  0  0  0  0  0  0  0  0
    2.2712   -1.2381    6.0612 C   0  0  0  0  0  0  0  0  0  0  0  0
    1.4375   -0.2410    6.8637 C   0  0  0  0  0  0  0  0  0  0  0  0
    0.8159   -0.6267    7.8502 O   0  0  0  0  0  0  0  0  0  0  0  0
    1.5687    1.2684    6.5375 C   0  0  2  0  0  0  0  0  0  0  0  0
    2.8403    1.6419    7.3635 C   0  0  0  0  0  0  0  0  0  0  0  0
    0.3823    2.1457    7.1832 C   0  0  0  0  0  0  0  0  0  0  0  0
    1.8168    1.5540    4.9905 C   0  0  1  0  0  0  0  0  0  0  0  0
    2.5585    2.9264    4.8295 C   0  0  0  0  0  0  0  0  0  0  0  0
    0.4672    1.7591    4.2995 C   0  0  2  0  0  0  0  0  0  0  0  0
   -0.7144    0.7495    4.0944 C   0  0  1  0  0  0  0  0  0  0  0  0
   -1.7517    0.3220    5.1118 C   0  0  1  0  0  0  0  0  0  0  0  0
   -1.3016   -0.3167    6.3012 O   0  0  0  0  0  0  0  0  0  0  0  0
   -1.9536    0.9450    6.4517 C   0  0  1  0  0  0  0  0  0  0  0  0
   -2.8842    2.6166    8.3024 H   0  0  0  0  0  0  0  0  0  0  0  0
   -1.3758    3.3868    8.7586 H   0  0  0  0  0  0  0  0  0  0  0  0
   -1.6031    1.6652    9.0052 H   0  0  0  0  0  0  0  0  0  0  0  0
   -2.3767    4.0012    6.5700 H   0  0  0  0  0  0  0  0  0  0  0  0
   -0.8992    4.1308    5.7642 H   0  0  0  0  0  0  0  0  0  0  0  0
   -2.9993    2.1874    4.9596 H   0  0  0  0  0  0  0  0  0  0  0  0
   -2.9005    2.9670    2.7152 H   0  0  0  0  0  0  0  0  0  0  0  0
   -0.9178    4.2011    2.3872 H   0  0  0  0  0  0  0  0  0  0  0  0
   -2.6277    0.9167    2.0966 H   0  0  0  0  0  0  0  0  0  0  0  0
    0.6644    2.9284    2.5188 H   0  0  0  0  0  0  0  0  0  0  0  0
    0.7648   -0.0764    1.9111 H   0  0  0  0  0  0  0  0  0  0  0  0
    1.3540    1.2163    0.9713 H   0  0  0  0  0  0  0  0  0  0  0  0
    3.1486   -0.1295    2.1423 H   0  0  0  0  0  0  0  0  0  0  0  0
    3.2322    1.5769    2.4030 H   0  0  0  0  0  0  0  0  0  0  0  0
    4.3658    1.3535    4.2541 H   0  0  0  0  0  0  0  0  0  0  0  0
    1.2409   -1.2153    4.1944 H   0  0  0  0  0  0  0  0  0  0  0  0
    2.8928   -1.6810    4.0539 H   0  0  0  0  0  0  0  0  0  0  0  0
    1.9163   -2.2458    6.2695 H   0  0  0  0  0  0  0  0  0  0  0  0
    3.2965   -1.1896    6.4239 H   0  0  0  0  0  0  0  0  0  0  0  0
    3.0294    2.7140    7.4030 H   0  0  0  0  0  0  0  0  0  0  0  0
    3.7392    1.1731    6.9699 H   0  0  0  0  0  0  0  0  0  0  0  0
    2.7698    1.3173    8.4015 H   0  0  0  0  0  0  0  0  0  0  0  0
    0.7124    3.1851    7.1489 H   0  0  0  0  0  0  0  0  0  0  0  0
    0.4854    1.9255    8.2465 H   0  0  0  0  0  0  0  0  0  0  0  0
    2.0637    3.7273    5.3794 H   0  0  0  0  0  0  0  0  0  0  0  0
    2.6035    3.2577    3.7926 H   0  0  0  0  0  0  0  0  0  0  0  0
    3.5887    2.9072    5.1802 H   0  0  0  0  0  0  0  0  0  0  0  0
    0.1457    2.7245    4.6512 H   0  0  0  0  0  0  0  0  0  0  0  0
   -0.3876   -0.1793    3.6363 H   0  0  0  0  0  0  0  0  0  0  0  0
   -2.6098   -0.1652    4.6629 H   0  0  0  0  0  0  0  0  0  0  0  0
   -2.9629    0.8523    6.8515 H   0  0  0  0  0  0  0  0  0  0  0  0
   -3.2540    3.7772    4.7235 H   0  0  0  0  0  0  0  0  0  0  0  0
  2  1  1  1
  1 28  1  0
  1 29  1  0
  1 30  1  0
  2 20  1  0
  2 27  1  0
  2  3  1  0
  3  4  1  0
  3 31  1  0
  3 32  1  0
  4  5  1  0
  4 33  1  0
  4 59  1  0
  5  6  1  0
  5  7  1  0
  5 34  1  6
  6 35  1  0
  7 24  1  0
  7  8  1  6
  7  9  1  0
  8 36  1  0
  9 23  1  0
  9 10  1  0
  9 37  1  1
 10 11  1  0
 10 38  1  0
 10 39  1  0
 11 12  1  0
 11 40  1  0
 11 41  1  0
 12 21  1  0
 12 13  1  1
 12 14  1  0
 13 42  1  0
 14 15  1  0
 14 43  1  0
 14 44  1  0
 15 16  1  0
 15 45  1  0
 15 46  1  0
 16 17  2  0
 16 18  1  0
 18 19  1  1
 18 20  1  0
 18 21  1  0
 19 47  1  0
 19 48  1  0
 19 49  1  0
 20 50  1  0
 20 51  1  0
 21 22  1  1
 21 23  1  0
 22 52  1  0
 22 53  1  0
 22 54  1  0
 23 24  1  0
 23 55  1  1
 24 25  1  0
 24 56  1  6
 25 27  1  0
 25 26  1  0
 25 57  1  6
 26 27  1  0
 27 58  1  1
M  CHG  1   4   1
M  END
>  <i_m_ct_stereo_status>  (148) 
1

>  <s_m_source_file>  (148) 
/var/tmp/pbs.5076255.sched01/tmpstc2q6q5/48db17pvb_.sdf

>  <i_m_source_file_index>  (148) 
14

>  <i_lp_mmshare_version>  (148) 
48012

>  <i_f3d_flags>  (148) 
0

>  <s_epik_input>  (148) 
W0NIM11bQ0BAXTEyW0NASF0zW0NASF0oTzMpW0NASF00W0NAQF0oW09IXSkoW0NASF0oW09IXSlbTkhdW0NIMl0xKVtDQEhdNVtDQEBIXTRbQ0BdNihbQ0gzXSlbQ0BdKFtPSF0pKFtDSDJdW0NIMl01KVtDSDJdW0NIMl1DKD1PKVtDQF02KFtDSDNdKVtDSDJdMg==

>  <s_epik_cmdline>  (148) 
J2VwaWtfcHl0aG9uJywgJy1waHQnLCAnMi4wJywgJy1waCcsICc3LjAnLCAnLXRuJywgJzgnLCAnLW1hJywgJzIwMCcsICctaW1hZScsICc8aW5maWxlLm1hZT4nLCAnLW9tYWUnLCAnPG91dGZpbGUubWFlPic=

>  <r_lp_tautomer_probability>  (148) 
0.99995

>  <r_epik_Ionization_Penalty>  (148) 
0.254801

>  <r_epik_Ionization_Penalty_Charging>  (148) 
0.197062

>  <r_epik_Ionization_Penalty_Neutral>  (148) 
0.0577389

>  <r_epik_State_Penalty>  (148) 
0.22364

>  <r_epik_Charging_Adjusted_Penalty>  (148) 
0.420702

>  <i_epik_Tot_Q>  (148) 
1

>  <i_epik_Tot_abs_Q>  (148) 
1

>  <s_epik_Chemistry_Notes>  (148) 
This compound contains an acetal/aminal-like group ( X-CH(R)-Y where X, Y are N, S, or O) that may be acid/base labile, releasing an aldehyde.

>  <s_lp_Force_Field>  (148) 
OPLS3e

>  <r_lp_Energy>  (148) 
126.487

>  <b_lp_Chiralities_Consistent>  (148) 
1

>  <s_lp_Variant>  (148) 
32:0-1

>  <s_i_glide_gridfile>  (148) 
pfpi4k_grid

>  <i_i_glide_lignum>  (148) 
14

>  <i_i_glide_rotatable_bonds>  (148) 
3

>  <r_i_docking_score>  (148) 
-3.77007

>  <r_i_glide_ligand_efficiency>  (148) 
-0.139632

>  <r_i_glide_ligand_efficiency_sa>  (148) 
-0.418896

>  <r_i_glide_ligand_efficiency_ln>  (148) 
-0.87761

>  <r_i_glide_gscore>  (148) 
-3.77007

>  <r_i_glide_lipo>  (148) 
-0.0315051

>  <r_i_glide_hbond>  (148) 
-0.116101

>  <r_i_glide_metal>  (148) 
-0

>  <r_i_glide_rewards>  (148) 
-0.828529

>  <r_i_glide_evdw>  (148) 
-19.7986

>  <r_i_glide_ecoul>  (148) 
-11.5338

>  <r_i_glide_erotb>  (148) 
0

>  <r_i_glide_esite>  (148) 
-0.0739334

>  <r_i_glide_emodel>  (148) 
-40.0111

>  <r_i_glide_energy>  (148) 
-31.3324

>  <r_i_glide_einternal>  (148) 
1.39336

>  <r_i_glide_intrahb_reward>  (148) 
-0

>  <i_i_glide_confnum>  (148) 
1

>  <i_i_glide_posenum>  (148) 
15

>  <r_i_glide_eff_state_penalty>  (148) 
0

>  <ligand_id>  (148) 
32

>  <original_smiles>  (148) 
CC12CNC(O)C3(O)C4CCC5(O)CCC(=O)C(C)(C1)C5(C)C4C3C1OC12

>  <smiles>  (148) 
[H]OC12C([H])([H])C([H])([H])C(=O)C3(C([H])([H])[H])C([H])([H])C4(C([H])([H])[H])C5([H])OC5([H])C5([H])C([H])(C([H])(C([H])([H])C1([H])[H])C5(O[H])C([H])(O[H])[N+]([H])([H])C4([H])[H])C23C([H])([H])[H]

$$$$
32:0:1
     RDKit          3D

 59 64  0  0  1  0  0  0  0  0999 V2000
   -1.3416    2.0786    8.3677 C   0  0  0  0  0  0  0  0  0  0  0  0
   -0.7805    1.7469    6.9476 C   0  0  1  0  0  0  0  0  0  0  0  0
   -0.8974    3.0908    6.1020 C   0  0  0  0  0  0  0  0  0  0  0  0
   -1.7634    3.0605    4.8569 N   0  0  0  0  0  0  0  0  0  0  0  0
   -1.2480    2.9042    3.4561 C   0  0  1  0  0  0  0  0  0  0  0  0
   -0.3923    4.0041    3.3194 O   0  0  0  0  0  0  0  0  0  0  0  0
   -0.6620    1.5137    3.0288 C   0  0  1  0  0  0  0  0  0  0  0  0
   -1.3849    1.1139    1.9115 O   0  0  0  0  0  0  0  0  0  0  0  0
    0.8759    1.3100    2.8787 C   0  0  2  0  0  0  0  0  0  0  0  0
    1.4918    0.1677    2.0522 C   0  0  0  0  0  0  0  0  0  0  0  0
    2.7524   -0.4150    2.7261 C   0  0  0  0  0  0  0  0  0  0  0  0
    2.6254   -0.7375    4.2488 C   0  0  2  0  0  0  0  0  0  0  0  0
    3.9537   -1.0370    4.6350 O   0  0  0  0  0  0  0  0  0  0  0  0
    1.8575   -2.0523    4.4952 C   0  0  0  0  0  0  0  0  0  0  0  0
    1.7629   -2.4079    5.9790 C   0  0  0  0  0  0  0  0  0  0  0  0
    1.1645   -1.2823    6.8233 C   0  0  0  0  0  0  0  0  0  0  0  0
    0.4256   -1.5553    7.7661 O   0  0  0  0  0  0  0  0  0  0  0  0
    1.6835    0.1645    6.6103 C   0  0  2  0  0  0  0  0  0  0  0  0
    2.9692    0.1555    7.4992 C   0  0  0  0  0  0  0  0  0  0  0  0
    0.7302    1.2715    7.2823 C   0  0  0  0  0  0  0  0  0  0  0  0
    2.0605    0.4762    5.0940 C   0  0  1  0  0  0  0  0  0  0  0  0
    3.1303    1.6201    5.0573 C   0  0  0  0  0  0  0  0  0  0  0  0
    0.8426    1.0601    4.3747 C   0  0  2  0  0  0  0  0  0  0  0  0
   -0.5403    0.3993    4.0734 C   0  0  1  0  0  0  0  0  0  0  0  0
   -1.6876    0.1835    5.0163 C   0  0  1  0  0  0  0  0  0  0  0  0
   -1.4505   -0.6337    6.1448 O   0  0  0  0  0  0  0  0  0  0  0  0
   -1.7856    0.7356    6.3912 C   0  0  1  0  0  0  0  0  0  0  0  0
   -2.3608    2.4752    8.3434 H   0  0  0  0  0  0  0  0  0  0  0  0
   -0.7267    2.8154    8.8915 H   0  0  0  0  0  0  0  0  0  0  0  0
   -1.3771    1.1941    9.0128 H   0  0  0  0  0  0  0  0  0  0  0  0
   -1.4350    3.7957    6.7311 H   0  0  0  0  0  0  0  0  0  0  0  0
    0.0523    3.5990    5.9703 H   0  0  0  0  0  0  0  0  0  0  0  0
   -2.4316    2.3195    4.9855 H   0  0  0  0  0  0  0  0  0  0  0  0
   -2.0857    3.1450    2.7966 H   0  0  0  0  0  0  0  0  0  0  0  0
   -0.1803    4.1137    2.3851 H   0  0  0  0  0  0  0  0  0  0  0  0
   -2.2999    0.9735    2.1633 H   0  0  0  0  0  0  0  0  0  0  0  0
    1.3759    2.2521    2.6854 H   0  0  0  0  0  0  0  0  0  0  0  0
    0.7857   -0.6424    1.8692 H   0  0  0  0  0  0  0  0  0  0  0  0
    1.7337    0.5254    1.0520 H   0  0  0  0  0  0  0  0  0  0  0  0
    3.0721   -1.3014    2.1783 H   0  0  0  0  0  0  0  0  0  0  0  0
    3.5614    0.2988    2.5749 H   0  0  0  0  0  0  0  0  0  0  0  0
    4.2562   -1.7775    4.1323 H   0  0  0  0  0  0  0  0  0  0  0  0
    0.8545   -2.0131    4.0905 H   0  0  0  0  0  0  0  0  0  0  0  0
    2.3450   -2.8739    3.9672 H   0  0  0  0  0  0  0  0  0  0  0  0
    1.1597   -3.3040    6.1068 H   0  0  0  0  0  0  0  0  0  0  0  0
    2.7497   -2.6410    6.3740 H   0  0  0  0  0  0  0  0  0  0  0  0
    3.4169    1.1402    7.6254 H   0  0  0  0  0  0  0  0  0  0  0  0
    3.7411   -0.4977    7.0994 H   0  0  0  0  0  0  0  0  0  0  0  0
    2.7715   -0.2088    8.5064 H   0  0  0  0  0  0  0  0  0  0  0  0
    1.3132    2.1914    7.3400 H   0  0  0  0  0  0  0  0  0  0  0  0
    0.7223    0.9613    8.3285 H   0  0  0  0  0  0  0  0  0  0  0  0
    2.8325    2.4816    5.6526 H   0  0  0  0  0  0  0  0  0  0  0  0
    3.3057    1.9947    4.0504 H   0  0  0  0  0  0  0  0  0  0  0  0
    4.1061    1.3124    5.4302 H   0  0  0  0  0  0  0  0  0  0  0  0
    0.7560    2.0531    4.7724 H   0  0  0  0  0  0  0  0  0  0  0  0
   -0.4307   -0.5482    3.5569 H   0  0  0  0  0  0  0  0  0  0  0  0
   -2.6198   -0.0465    4.5129 H   0  0  0  0  0  0  0  0  0  0  0  0
   -2.8005    0.8641    6.7623 H   0  0  0  0  0  0  0  0  0  0  0  0
   -2.2571    3.9391    4.8513 H   0  0  0  0  0  0  0  0  0  0  0  0
  2  1  1  1
  1 28  1  0
  1 29  1  0
  1 30  1  0
  2 20  1  0
  2 27  1  0
  2  3  1  0
  3  4  1  0
  3 31  1  0
  3 32  1  0
  4  5  1  0
  4 33  1  0
  4 59  1  0
  5  6  1  0
  5  7  1  0
  5 34  1  6
  6 35  1  0
  7 24  1  0
  7  8  1  6
  7  9  1  0
  8 36  1  0
  9 23  1  0
  9 10  1  0
  9 37  1  1
 10 11  1  0
 10 38  1  0
 10 39  1  0
 11 12  1  0
 11 40  1  0
 11 41  1  0
 12 21  1  0
 12 13  1  1
 12 14  1  0
 13 42  1  0
 14 15  1  0
 14 43  1  0
 14 44  1  0
 15 16  1  0
 15 45  1  0
 15 46  1  0
 16 17  2  0
 16 18  1  0
 18 19  1  1
 18 20  1  0
 18 21  1  0
 19 47  1  0
 19 48  1  0
 19 49  1  0
 20 50  1  0
 20 51  1  0
 21 22  1  1
 21 23  1  0
 22 52  1  0
 22 53  1  0
 22 54  1  0
 23 24  1  0
 23 55  1  1
 24 25  1  0
 24 56  1  6
 25 27  1  0
 25 26  1  0
 25 57  1  6
 26 27  1  0
 27 58  1  1
M  CHG  1   4   1
M  END
>  <i_m_ct_stereo_status>  (149) 
1

>  <s_m_source_file>  (149) 
/var/tmp/pbs.5076255.sched01/tmpstc2q6q5/48db17pvb_.sdf

>  <i_m_source_file_index>  (149) 
14

>  <i_lp_mmshare_version>  (149) 
48012

>  <i_f3d_flags>  (149) 
0

>  <s_epik_input>  (149) 
W0NIM11bQ0BAXTEyW0NASF0zW0NASF0oTzMpW0NASF00W0NAQF0oW09IXSkoW0NASF0oW09IXSlbTkhdW0NIMl0xKVtDQEhdNVtDQEBIXTRbQ0BdNihbQ0gzXSlbQ0BdKFtPSF0pKFtDSDJdW0NIMl01KVtDSDJdW0NIMl1DKD1PKVtDQF02KFtDSDNdKVtDSDJdMg==

>  <s_epik_cmdline>  (149) 
J2VwaWtfcHl0aG9uJywgJy1waHQnLCAnMi4wJywgJy1waCcsICc3LjAnLCAnLXRuJywgJzgnLCAnLW1hJywgJzIwMCcsICctaW1hZScsICc8aW5maWxlLm1hZT4nLCAnLW9tYWUnLCAnPG91dGZpbGUubWFlPic=

>  <r_lp_tautomer_probability>  (149) 
0.99995

>  <r_epik_Ionization_Penalty>  (149) 
0.254801

>  <r_epik_Ionization_Penalty_Charging>  (149) 
0.197062

>  <r_epik_Ionization_Penalty_Neutral>  (149) 
0.0577389

>  <r_epik_State_Penalty>  (149) 
0.22364

>  <r_epik_Charging_Adjusted_Penalty>  (149) 
0.420702

>  <i_epik_Tot_Q>  (149) 
1

>  <i_epik_Tot_abs_Q>  (149) 
1

>  <s_epik_Chemistry_Notes>  (149) 
This compound contains an acetal/aminal-like group ( X-CH(R)-Y where X, Y are N, S, or O) that may be acid/base labile, releasing an aldehyde.

>  <s_lp_Force_Field>  (149) 
OPLS3e

>  <r_lp_Energy>  (149) 
126.487

>  <b_lp_Chiralities_Consistent>  (149) 
1

>  <s_lp_Variant>  (149) 
32:0-1

>  <s_i_glide_gridfile>  (149) 
pfpi4k_grid

>  <i_i_glide_lignum>  (149) 
14

>  <i_i_glide_rotatable_bonds>  (149) 
3

>  <r_i_docking_score>  (149) 
-3.68251

>  <r_i_glide_ligand_efficiency>  (149) 
-0.136389

>  <r_i_glide_ligand_efficiency_sa>  (149) 
-0.409168

>  <r_i_glide_ligand_efficiency_ln>  (149) 
-0.857229

>  <r_i_glide_gscore>  (149) 
-3.68251

>  <r_i_glide_lipo>  (149) 
0

>  <r_i_glide_hbond>  (149) 
-0.0971214

>  <r_i_glide_metal>  (149) 
-0

>  <r_i_glide_rewards>  (149) 
-0.828529

>  <r_i_glide_evdw>  (149) 
-19.6903

>  <r_i_glide_ecoul>  (149) 
-11.293

>  <r_i_glide_erotb>  (149) 
0

>  <r_i_glide_esite>  (149) 
-0.0783947

>  <r_i_glide_emodel>  (149) 
-39.6324

>  <r_i_glide_energy>  (149) 
-30.9833

>  <r_i_glide_einternal>  (149) 
0.803571

>  <r_i_glide_intrahb_reward>  (149) 
-0

>  <i_i_glide_confnum>  (149) 
2

>  <i_i_glide_posenum>  (149) 
20

>  <r_i_glide_eff_state_penalty>  (149) 
0

>  <ligand_id>  (149) 
32

>  <original_smiles>  (149) 
CC12CNC(O)C3(O)C4CCC5(O)CCC(=O)C(C)(C1)C5(C)C4C3C1OC12

>  <smiles>  (149) 
[H]OC12C([H])([H])C([H])([H])C(=O)C3(C([H])([H])[H])C([H])([H])C4(C([H])([H])[H])C5([H])OC5([H])C5([H])C([H])(C([H])(C([H])([H])C1([H])[H])C5(O[H])C([H])(O[H])[N+]([H])([H])C4([H])[H])C23C([H])([H])[H]

$$$$
32:0:2
     RDKit          3D

 59 64  0  0  1  0  0  0  0  0999 V2000
   -1.9064    2.9781    5.7313 C   0  0  0  0  0  0  0  0  0  0  0  0
   -0.6693    2.2173    5.1688 C   0  0  1  0  0  0  0  0  0  0  0  0
    0.3715    3.3409    4.7342 C   0  0  0  0  0  0  0  0  0  0  0  0
    0.7728    3.3918    3.2742 N   0  0  0  0  0  0  0  0  0  0  0  0
    2.0457    2.8162    2.7348 C   0  0  1  0  0  0  0  0  0  0  0  0
    2.9905    3.4801    3.5301 O   0  0  0  0  0  0  0  0  0  0  0  0
    2.2169    1.2489    2.6597 C   0  0  1  0  0  0  0  0  0  0  0  0
    2.5394    0.9292    1.3390 O   0  0  0  0  0  0  0  0  0  0  0  0
    3.1251    0.4966    3.6817 C   0  0  2  0  0  0  0  0  0  0  0  0
    3.6864   -0.9120    3.4246 C   0  0  0  0  0  0  0  0  0  0  0  0
    3.7007   -1.7594    4.7142 C   0  0  0  0  0  0  0  0  0  0  0  0
    2.3932   -1.7392    5.5674 C   0  0  2  0  0  0  0  0  0  0  0  0
    2.7468   -2.4240    6.7569 O   0  0  0  0  0  0  0  0  0  0  0  0
    1.3034   -2.6375    4.9506 C   0  0  0  0  0  0  0  0  0  0  0  0
    0.0295   -2.6643    5.7920 C   0  0  0  0  0  0  0  0  0  0  0  0
   -0.5217   -1.2663    6.0457 C   0  0  0  0  0  0  0  0  0  0  0  0
   -1.7397   -1.0986    6.0351 O   0  0  0  0  0  0  0  0  0  0  0  0
    0.4380   -0.1531    6.5317 C   0  0  2  0  0  0  0  0  0  0  0  0
    0.5174   -0.4480    8.0703 C   0  0  0  0  0  0  0  0  0  0  0  0
   -0.2086    1.3166    6.4344 C   0  0  0  0  0  0  0  0  0  0  0  0
    1.8829   -0.2714    5.8756 C   0  0  1  0  0  0  0  0  0  0  0  0
    2.9306    0.4042    6.8260 C   0  0  0  0  0  0  0  0  0  0  0  0
    1.9163    0.5514    4.5909 C   0  0  2  0  0  0  0  0  0  0  0  0
    1.1035    0.3693    3.2618 C   0  0  1  0  0  0  0  0  0  0  0  0
   -0.3299    0.7544    2.9931 C   0  0  1  0  0  0  0  0  0  0  0  0
   -1.3199    0.1295    3.7886 O   0  0  0  0  0  0  0  0  0  0  0  0
   -1.1997    1.5437    3.9027 C   0  0  1  0  0  0  0  0  0  0  0  0
   -2.3245    3.6899    5.0164 H   0  0  0  0  0  0  0  0  0  0  0  0
   -1.6729    3.5326    6.6420 H   0  0  0  0  0  0  0  0  0  0  0  0
   -2.7189    2.2948    5.9825 H   0  0  0  0  0  0  0  0  0  0  0  0
   -0.1363    4.2963    4.8468 H   0  0  0  0  0  0  0  0  0  0  0  0
    1.1983    3.4583    5.4301 H   0  0  0  0  0  0  0  0  0  0  0  0
    0.0510    2.9864    2.7064 H   0  0  0  0  0  0  0  0  0  0  0  0
    2.1627    3.2209    1.7222 H   0  0  0  0  0  0  0  0  0  0  0  0
    3.8180    3.3735    3.0756 H   0  0  0  0  0  0  0  0  0  0  0  0
    1.7973    0.4753    0.9556 H   0  0  0  0  0  0  0  0  0  0  0  0
    3.8970    1.1587    4.0699 H   0  0  0  0  0  0  0  0  0  0  0  0
    3.1161   -1.4494    2.6630 H   0  0  0  0  0  0  0  0  0  0  0  0
    4.6925   -0.8524    3.0053 H   0  0  0  0  0  0  0  0  0  0  0  0
    3.9613   -2.7874    4.4692 H   0  0  0  0  0  0  0  0  0  0  0  0
    4.5379   -1.4179    5.3223 H   0  0  0  0  0  0  0  0  0  0  0  0
    3.4633   -1.9653    7.1703 H   0  0  0  0  0  0  0  0  0  0  0  0
    1.0349   -2.3217    3.9513 H   0  0  0  0  0  0  0  0  0  0  0  0
    1.6766   -3.6581    4.8551 H   0  0  0  0  0  0  0  0  0  0  0  0
   -0.7312   -3.2573    5.2912 H   0  0  0  0  0  0  0  0  0  0  0  0
    0.2139   -3.1454    6.7524 H   0  0  0  0  0  0  0  0  0  0  0  0
    1.0381    0.3225    8.6370 H   0  0  0  0  0  0  0  0  0  0  0  0
    1.0128   -1.3930    8.2876 H   0  0  0  0  0  0  0  0  0  0  0  0
   -0.4641   -0.5238    8.5346 H   0  0  0  0  0  0  0  0  0  0  0  0
    0.4140    1.9706    7.0443 H   0  0  0  0  0  0  0  0  0  0  0  0
   -1.0927    1.2264    7.0663 H   0  0  0  0  0  0  0  0  0  0  0  0
    2.6332    1.4098    7.1232 H   0  0  0  0  0  0  0  0  0  0  0  0
    3.9077    0.5074    6.3578 H   0  0  0  0  0  0  0  0  0  0  0  0
    3.1031   -0.1440    7.7546 H   0  0  0  0  0  0  0  0  0  0  0  0
    1.9338    1.5672    4.9308 H   0  0  0  0  0  0  0  0  0  0  0  0
    1.2142   -0.6286    2.8660 H   0  0  0  0  0  0  0  0  0  0  0  0
   -0.5884    0.7970    1.9364 H   0  0  0  0  0  0  0  0  0  0  0  0
   -2.0203    2.0651    3.4091 H   0  0  0  0  0  0  0  0  0  0  0  0
    0.8324    4.3634    2.9992 H   0  0  0  0  0  0  0  0  0  0  0  0
  2  1  1  1
  1 28  1  0
  1 29  1  0
  1 30  1  0
  2 20  1  0
  2 27  1  0
  2  3  1  0
  3  4  1  0
  3 31  1  0
  3 32  1  0
  4  5  1  0
  4 33  1  0
  4 59  1  0
  5  6  1  0
  5  7  1  0
  5 34  1  6
  6 35  1  0
  7 24  1  0
  7  8  1  6
  7  9  1  0
  8 36  1  0
  9 23  1  0
  9 10  1  0
  9 37  1  1
 10 11  1  0
 10 38  1  0
 10 39  1  0
 11 12  1  0
 11 40  1  0
 11 41  1  0
 12 21  1  0
 12 13  1  1
 12 14  1  0
 13 42  1  0
 14 15  1  0
 14 43  1  0
 14 44  1  0
 15 16  1  0
 15 45  1  0
 15 46  1  0
 16 17  2  0
 16 18  1  0
 18 19  1  1
 18 20  1  0
 18 21  1  0
 19 47  1  0
 19 48  1  0
 19 49  1  0
 20 50  1  0
 20 51  1  0
 21 22  1  1
 21 23  1  0
 22 52  1  0
 22 53  1  0
 22 54  1  0
 23 24  1  0
 23 55  1  1
 24 25  1  0
 24 56  1  6
 25 27  1  0
 25 26  1  0
 25 57  1  6
 26 27  1  0
 27 58  1  6
M  CHG  1   4   1
M  END
>  <i_m_ct_stereo_status>  (150) 
1

>  <s_m_source_file>  (150) 
/var/tmp/pbs.5076255.sched01/tmpstc2q6q5/48db17pvb_.sdf

>  <i_m_source_file_index>  (150) 
14

>  <i_lp_mmshare_version>  (150) 
48012

>  <i_f3d_flags>  (150) 
0

>  <s_epik_input>  (150) 
W0NIM11bQ0BAXTEyW0NASF0zW0NASF0oTzMpW0NASF00W0NAQF0oW09IXSkoW0NASF0oW09IXSlbTkhdW0NIMl0xKVtDQEhdNVtDQEBIXTRbQ0BdNihbQ0gzXSlbQ0BdKFtPSF0pKFtDSDJdW0NIMl01KVtDSDJdW0NIMl1DKD1PKVtDQF02KFtDSDNdKVtDSDJdMg==

>  <s_epik_cmdline>  (150) 
J2VwaWtfcHl0aG9uJywgJy1waHQnLCAnMi4wJywgJy1waCcsICc3LjAnLCAnLXRuJywgJzgnLCAnLW1hJywgJzIwMCcsICctaW1hZScsICc8aW5maWxlLm1hZT4nLCAnLW9tYWUnLCAnPG91dGZpbGUubWFlPic=

>  <r_lp_tautomer_probability>  (150) 
0.99995

>  <r_epik_Ionization_Penalty>  (150) 
0.254801

>  <r_epik_Ionization_Penalty_Charging>  (150) 
0.197062

>  <r_epik_Ionization_Penalty_Neutral>  (150) 
0.0577389

>  <r_epik_State_Penalty>  (150) 
0.22364

>  <r_epik_Charging_Adjusted_Penalty>  (150) 
0.420702

>  <i_epik_Tot_Q>  (150) 
1

>  <i_epik_Tot_abs_Q>  (150) 
1

>  <s_epik_Chemistry_Notes>  (150) 
This compound contains an acetal/aminal-like group ( X-CH(R)-Y where X, Y are N, S, or O) that may be acid/base labile, releasing an aldehyde.

>  <s_lp_Force_Field>  (150) 
OPLS3e

>  <r_lp_Energy>  (150) 
126.487

>  <b_lp_Chiralities_Consistent>  (150) 
1

>  <s_lp_Variant>  (150) 
32:0-1

>  <s_i_glide_gridfile>  (150) 
pfpi4k_grid

>  <i_i_glide_lignum>  (150) 
14

>  <i_i_glide_rotatable_bonds>  (150) 
3

>  <r_i_docking_score>  (150) 
-3.577

>  <r_i_glide_ligand_efficiency>  (150) 
-0.132481

>  <r_i_glide_ligand_efficiency_sa>  (150) 
-0.397444

>  <r_i_glide_ligand_efficiency_ln>  (150) 
-0.832666

>  <r_i_glide_gscore>  (150) 
-3.577

>  <r_i_glide_lipo>  (150) 
-0.062433

>  <r_i_glide_hbond>  (150) 
-0.0720522

>  <r_i_glide_metal>  (150) 
-0

>  <r_i_glide_rewards>  (150) 
-0.828529

>  <r_i_glide_evdw>  (150) 
-19.5953

>  <r_i_glide_ecoul>  (150) 
-9.60819

>  <r_i_glide_erotb>  (150) 
0

>  <r_i_glide_esite>  (150) 
-0.19299

>  <r_i_glide_emodel>  (150) 
-37.3916

>  <r_i_glide_energy>  (150) 
-29.2035

>  <r_i_glide_einternal>  (150) 
1.24458

>  <r_i_glide_intrahb_reward>  (150) 
-0

>  <i_i_glide_confnum>  (150) 
2

>  <i_i_glide_posenum>  (150) 
1

>  <r_i_glide_eff_state_penalty>  (150) 
0

>  <ligand_id>  (150) 
32

>  <original_smiles>  (150) 
CC12CNC(O)C3(O)C4CCC5(O)CCC(=O)C(C)(C1)C5(C)C4C3C1OC12

>  <smiles>  (150) 
[H]OC12C([H])([H])C([H])([H])C(=O)C3(C([H])([H])[H])C([H])([H])C4(C([H])([H])[H])C5([H])OC5([H])C5([H])C([H])(C([H])(C([H])([H])C1([H])[H])C5(O[H])C([H])(O[H])[N+]([H])([H])C4([H])[H])C23C([H])([H])[H]

$$$$
32:1:0
     RDKit          3D

 58 63  0  0  1  0  0  0  0  0999 V2000
   -1.4617    2.2373    8.4239 C   0  0  0  0  0  0  0  0  0  0  0  0
   -0.8240    1.8978    7.0427 C   0  0  1  0  0  0  0  0  0  0  0  0
   -0.9533    3.2470    6.2099 C   0  0  0  0  0  0  0  0  0  0  0  0
   -1.7880    3.2079    4.9563 N   0  0  0  0  0  0  0  0  0  0  0  0
   -1.2204    3.0875    3.5696 C   0  0  1  0  0  0  0  0  0  0  0  0
   -0.3750    4.1714    3.2863 O   0  0  0  0  0  0  0  0  0  0  0  0
   -0.5736    1.7125    3.1531 C   0  0  1  0  0  0  0  0  0  0  0  0
   -1.2521    1.3223    2.0006 O   0  0  0  0  0  0  0  0  0  0  0  0
    0.9740    1.5354    3.0328 C   0  0  2  0  0  0  0  0  0  0  0  0
    1.6375    0.4153    2.2061 C   0  0  0  0  0  0  0  0  0  0  0  0
    2.8787   -0.1639    2.9265 C   0  0  0  0  0  0  0  0  0  0  0  0
    2.7189   -0.4921    4.4502 C   0  0  2  0  0  0  0  0  0  0  0  0
    4.0393   -0.7918    4.8681 O   0  0  0  0  0  0  0  0  0  0  0  0
    1.9652   -1.8167    4.6740 C   0  0  0  0  0  0  0  0  0  0  0  0
    1.8403   -2.1760    6.1578 C   0  0  0  0  0  0  0  0  0  0  0  0
    1.2118   -1.0619    6.9772 C   0  0  0  0  0  0  0  0  0  0  0  0
    0.4456   -1.3640    7.9207 O   0  0  0  0  0  0  0  0  0  0  0  0
    1.6851    0.3897    6.7855 C   0  0  2  0  0  0  0  0  0  0  0  0
    2.9456    0.4233    7.7129 C   0  0  0  0  0  0  0  0  0  0  0  0
    0.6826    1.4707    7.4261 C   0  0  0  0  0  0  0  0  0  0  0  0
    2.1118    0.7070    5.2788 C   0  0  1  0  0  0  0  0  0  0  0  0
    3.1647    1.8684    5.2694 C   0  0  0  0  0  0  0  0  0  0  0  0
    0.8998    1.2656    4.5233 C   0  0  2  0  0  0  0  0  0  0  0  0
   -0.4573    0.5790    4.1759 C   0  0  1  0  0  0  0  0  0  0  0  0
   -1.6317    0.3194    5.0735 C   0  0  1  0  0  0  0  0  0  0  0  0
   -1.4025   -0.4958    6.2197 O   0  0  0  0  0  0  0  0  0  0  0  0
   -1.7858    0.8747    6.4468 C   0  0  1  0  0  0  0  0  0  0  0  0
   -2.4774    2.6202    8.3231 H   0  0  0  0  0  0  0  0  0  0  0  0
   -0.8903    3.0013    8.9544 H   0  0  0  0  0  0  0  0  0  0  0  0
   -1.5222    1.3632    9.0731 H   0  0  0  0  0  0  0  0  0  0  0  0
   -1.4388    3.9667    6.8712 H   0  0  0  0  0  0  0  0  0  0  0  0
    0.0076    3.7324    6.0537 H   0  0  0  0  0  0  0  0  0  0  0  0
   -2.4148    3.9946    4.9619 H   0  0  0  0  0  0  0  0  0  0  0  0
   -2.0561    3.2640    2.8785 H   0  0  0  0  0  0  0  0  0  0  0  0
   -0.1899    4.1890    2.3341 H   0  0  0  0  0  0  0  0  0  0  0  0
   -0.7336    1.5913    1.2591 H   0  0  0  0  0  0  0  0  0  0  0  0
    1.4647    2.4842    2.8704 H   0  0  0  0  0  0  0  0  0  0  0  0
    0.9491   -0.3964    1.9894 H   0  0  0  0  0  0  0  0  0  0  0  0
    1.9129    0.7890    1.2223 H   0  0  0  0  0  0  0  0  0  0  0  0
    3.2199   -1.0491    2.3902 H   0  0  0  0  0  0  0  0  0  0  0  0
    3.6895    0.5490    2.7872 H   0  0  0  0  0  0  0  0  0  0  0  0
    4.5814   -0.0255    4.7462 H   0  0  0  0  0  0  0  0  0  0  0  0
    0.9685   -1.7893    4.2489 H   0  0  0  0  0  0  0  0  0  0  0  0
    2.4870   -2.6277    4.1593 H   0  0  0  0  0  0  0  0  0  0  0  0
    1.2556   -3.0848    6.2694 H   0  0  0  0  0  0  0  0  0  0  0  0
    2.8229   -2.3934    6.5766 H   0  0  0  0  0  0  0  0  0  0  0  0
    3.3636    1.4234    7.8476 H   0  0  0  0  0  0  0  0  0  0  0  0
    3.7468   -0.2140    7.3451 H   0  0  0  0  0  0  0  0  0  0  0  0
    2.7275    0.0572    8.7175 H   0  0  0  0  0  0  0  0  0  0  0  0
    1.2323    2.4094    7.4843 H   0  0  0  0  0  0  0  0  0  0  0  0
    0.6480    1.1729    8.4750 H   0  0  0  0  0  0  0  0  0  0  0  0
    2.8301    2.7262    5.8526 H   0  0  0  0  0  0  0  0  0  0  0  0
    3.3604    2.2451    4.2671 H   0  0  0  0  0  0  0  0  0  0  0  0
    4.1324    1.5871    5.6791 H   0  0  0  0  0  0  0  0  0  0  0  0
    0.7679    2.2529    4.9188 H   0  0  0  0  0  0  0  0  0  0  0  0
   -0.3084   -0.3460    3.6363 H   0  0  0  0  0  0  0  0  0  0  0  0
   -2.5511    0.0836    4.5531 H   0  0  0  0  0  0  0  0  0  0  0  0
   -2.8109    0.9670    6.7758 H   0  0  0  0  0  0  0  0  0  0  0  0
  2  1  1  1
  1 28  1  0
  1 29  1  0
  1 30  1  0
  2 20  1  0
  2 27  1  0
  2  3  1  0
  3  4  1  0
  3 31  1  0
  3 32  1  0
  4  5  1  0
  4 33  1  0
  5  6  1  0
  5  7  1  0
  5 34  1  6
  6 35  1  0
  7 24  1  0
  7  8  1  6
  7  9  1  0
  8 36  1  0
  9 23  1  0
  9 10  1  0
  9 37  1  1
 10 11  1  0
 10 38  1  0
 10 39  1  0
 11 12  1  0
 11 40  1  0
 11 41  1  0
 12 21  1  0
 12 13  1  1
 12 14  1  0
 13 42  1  0
 14 15  1  0
 14 43  1  0
 14 44  1  0
 15 16  1  0
 15 45  1  0
 15 46  1  0
 16 17  2  0
 16 18  1  0
 18 19  1  1
 18 20  1  0
 18 21  1  0
 19 47  1  0
 19 48  1  0
 19 49  1  0
 20 50  1  0
 20 51  1  0
 21 22  1  1
 21 23  1  0
 22 52  1  0
 22 53  1  0
 22 54  1  0
 23 24  1  0
 23 55  1  1
 24 25  1  0
 24 56  1  6
 25 27  1  0
 25 26  1  0
 25 57  1  6
 26 27  1  0
 27 58  1  1
M  END
>  <i_m_ct_stereo_status>  (151) 
1

>  <s_m_source_file>  (151) 
/var/tmp/pbs.5076255.sched01/tmpstc2q6q5/48db17pvb_.sdf

>  <i_m_source_file_index>  (151) 
15

>  <i_lp_mmshare_version>  (151) 
48012

>  <i_f3d_flags>  (151) 
0

>  <s_epik_input>  (151) 
W0NIM11bQ0BAXTEyW0NASF0zW0NASF0oTzMpW0NASF00W0NAQF0oW09IXSkoW0NASF0oW09IXSlbTkhdW0NIMl0xKVtDQEhdNVtDQEBIXTRbQ0BdNihbQ0gzXSlbQ0BdKFtPSF0pKFtDSDJdW0NIMl01KVtDSDJdW0NIMl1DKD1PKVtDQF02KFtDSDNdKVtDSDJdMg==

>  <s_epik_cmdline>  (151) 
J2VwaWtfcHl0aG9uJywgJy1waHQnLCAnMi4wJywgJy1waCcsICc3LjAnLCAnLXRuJywgJzgnLCAnLW1hJywgJzIwMCcsICctaW1hZScsICc8aW5maWxlLm1hZT4nLCAnLW9tYWUnLCAnPG91dGZpbGUubWFlPic=

>  <r_lp_tautomer_probability>  (151) 
0.99995

>  <r_epik_Ionization_Penalty>  (151) 
0.748031

>  <r_epik_Ionization_Penalty_Charging>  (151) 
0

>  <r_epik_Ionization_Penalty_Neutral>  (151) 
0.748031

>  <r_epik_State_Penalty>  (151) 
0.811552

>  <r_epik_Charging_Adjusted_Penalty>  (151) 
0.811552

>  <i_epik_Tot_Q>  (151) 
0

>  <i_epik_Tot_abs_Q>  (151) 
0

>  <s_epik_Chemistry_Notes>  (151) 
This compound contains an acetal/aminal-like group ( X-CH(R)-Y where X, Y are N, S, or O) that may be acid/base labile, releasing an aldehyde.

>  <s_lp_Force_Field>  (151) 
OPLS3e

>  <r_lp_Energy>  (151) 
124.577

>  <b_lp_Chiralities_Consistent>  (151) 
1

>  <s_lp_Variant>  (151) 
32:0-2

>  <s_i_glide_gridfile>  (151) 
pfpi4k_grid

>  <i_i_glide_lignum>  (151) 
15

>  <i_i_glide_rotatable_bonds>  (151) 
3

>  <r_i_docking_score>  (151) 
-3.38117

>  <r_i_glide_ligand_efficiency>  (151) 
-0.125228

>  <r_i_glide_ligand_efficiency_sa>  (151) 
-0.375685

>  <r_i_glide_ligand_efficiency_ln>  (151) 
-0.78708

>  <r_i_glide_gscore>  (151) 
-3.38117

>  <r_i_glide_lipo>  (151) 
0

>  <r_i_glide_hbond>  (151) 
-0.111784

>  <r_i_glide_metal>  (151) 
-0

>  <r_i_glide_rewards>  (151) 
-0.835401

>  <r_i_glide_evdw>  (151) 
-21.1614

>  <r_i_glide_ecoul>  (151) 
-8.73334

>  <r_i_glide_erotb>  (151) 
0

>  <r_i_glide_esite>  (151) 
-0.065913

>  <r_i_glide_emodel>  (151) 
-36.8763

>  <r_i_glide_energy>  (151) 
-29.8947

>  <r_i_glide_einternal>  (151) 
1.3224

>  <r_i_glide_intrahb_reward>  (151) 
-0

>  <i_i_glide_confnum>  (151) 
2

>  <i_i_glide_posenum>  (151) 
8

>  <r_i_glide_eff_state_penalty>  (151) 
0

>  <ligand_id>  (151) 
32

>  <original_smiles>  (151) 
CC12CNC(O)C3(O)C4CCC5(O)CCC(=O)C(C)(C1)C5(C)C4C3C1OC12

>  <smiles>  (151) 
[H]OC1([H])N([H])C([H])([H])C2(C([H])([H])[H])C([H])([H])C3(C([H])([H])[H])C(=O)C([H])([H])C([H])([H])C4(O[H])C([H])([H])C([H])([H])C5([H])C([H])(C([H])(C6([H])OC62[H])C15O[H])C43C([H])([H])[H]

$$$$
32:1:1
     RDKit          3D

 58 63  0  0  1  0  0  0  0  0999 V2000
   -2.1157    2.5569    8.4700 C   0  0  0  0  0  0  0  0  0  0  0  0
   -1.3231    2.2491    7.1641 C   0  0  1  0  0  0  0  0  0  0  0  0
   -1.6257    3.4934    6.2173 C   0  0  0  0  0  0  0  0  0  0  0  0
   -2.3365    3.2263    4.9208 N   0  0  0  0  0  0  0  0  0  0  0  0
   -1.6527    3.1275    3.5927 C   0  0  1  0  0  0  0  0  0  0  0  0
   -0.9905    4.3408    3.2876 O   0  0  0  0  0  0  0  0  0  0  0  0
   -0.7478    1.8625    3.2984 C   0  0  1  0  0  0  0  0  0  0  0  0
   -1.2420    1.2845    2.1124 O   0  0  0  0  0  0  0  0  0  0  0  0
    0.8088    1.9879    3.3046 C   0  0  2  0  0  0  0  0  0  0  0  0
    1.7317    0.9580    2.6221 C   0  0  0  0  0  0  0  0  0  0  0  0
    3.0056    0.6631    3.4550 C   0  0  0  0  0  0  0  0  0  0  0  0
    2.7932    0.4091    4.9867 C   0  0  2  0  0  0  0  0  0  0  0  0
    4.1079    0.3908    5.5197 O   0  0  0  0  0  0  0  0  0  0  0  0
    2.2751   -1.0150    5.2694 C   0  0  0  0  0  0  0  0  0  0  0  0
    2.1056   -1.3002    6.7643 C   0  0  0  0  0  0  0  0  0  0  0  0
    1.2176   -0.2786    7.4717 C   0  0  0  0  0  0  0  0  0  0  0  0
    0.4540   -0.6555    8.3616 O   0  0  0  0  0  0  0  0  0  0  0  0
    1.4372    1.2288    7.1827 C   0  0  2  0  0  0  0  0  0  0  0  0
    2.5931    1.5504    8.1842 C   0  0  0  0  0  0  0  0  0  0  0  0
    0.2060    2.1375    7.6770 C   0  0  0  0  0  0  0  0  0  0  0  0
    1.9042    1.5244    5.6802 C   0  0  1  0  0  0  0  0  0  0  0  0
    2.7284    2.8586    5.6563 C   0  0  0  0  0  0  0  0  0  0  0  0
    0.6697    1.8038    4.8085 C   0  0  2  0  0  0  0  0  0  0  0  0
   -0.5061    0.8379    4.4200 C   0  0  1  0  0  0  0  0  0  0  0  0
   -1.6781    0.4336    5.2702 C   0  0  1  0  0  0  0  0  0  0  0  0
   -1.3812   -0.2550    6.4859 O   0  0  0  0  0  0  0  0  0  0  0  0
   -2.0280    1.0200    6.5941 C   0  0  1  0  0  0  0  0  0  0  0  0
   -3.1759    2.7281    8.2763 H   0  0  0  0  0  0  0  0  0  0  0  0
   -1.7380    3.4445    8.9751 H   0  0  0  0  0  0  0  0  0  0  0  0
   -2.0654    1.7371    9.1857 H   0  0  0  0  0  0  0  0  0  0  0  0
   -2.2922    4.1469    6.7817 H   0  0  0  0  0  0  0  0  0  0  0  0
   -0.7612    4.1456    6.0950 H   0  0  0  0  0  0  0  0  0  0  0  0
   -3.1214    3.8597    4.8278 H   0  0  0  0  0  0  0  0  0  0  0  0
   -2.4547    3.0972    2.8522 H   0  0  0  0  0  0  0  0  0  0  0  0
   -0.6305    4.2799    2.3966 H   0  0  0  0  0  0  0  0  0  0  0  0
   -0.7861    1.7017    1.3950 H   0  0  0  0  0  0  0  0  0  0  0  0
    1.1474    3.0023    3.1001 H   0  0  0  0  0  0  0  0  0  0  0  0
    1.2242    0.0132    2.4199 H   0  0  0  0  0  0  0  0  0  0  0  0
    2.0155    1.3157    1.6343 H   0  0  0  0  0  0  0  0  0  0  0  0
    3.5367   -0.1827    3.0124 H   0  0  0  0  0  0  0  0  0  0  0  0
    3.6765    1.5144    3.3246 H   0  0  0  0  0  0  0  0  0  0  0  0
    4.5123    1.2263    5.3448 H   0  0  0  0  0  0  0  0  0  0  0  0
    1.3314   -1.2097    4.7763 H   0  0  0  0  0  0  0  0  0  0  0  0
    2.9669   -1.7449    4.8477 H   0  0  0  0  0  0  0  0  0  0  0  0
    1.6845   -2.2946    6.9042 H   0  0  0  0  0  0  0  0  0  0  0  0
    3.0756   -1.2995    7.2580 H   0  0  0  0  0  0  0  0  0  0  0  0
    2.8054    2.6158    8.2680 H   0  0  0  0  0  0  0  0  0  0  0  0
    3.5253    1.0570    7.9132 H   0  0  0  0  0  0  0  0  0  0  0  0
    2.3654    1.2194    9.1985 H   0  0  0  0  0  0  0  0  0  0  0  0
    0.5680    3.1645    7.6956 H   0  0  0  0  0  0  0  0  0  0  0  0
    0.1441    1.9040    8.7391 H   0  0  0  0  0  0  0  0  0  0  0  0
    2.1971    3.6733    6.1496 H   0  0  0  0  0  0  0  0  0  0  0  0
    2.9294    3.2016    4.6427 H   0  0  0  0  0  0  0  0  0  0  0  0
    3.6983    2.7885    6.1461 H   0  0  0  0  0  0  0  0  0  0  0  0
    0.3375    2.7727    5.1391 H   0  0  0  0  0  0  0  0  0  0  0  0
   -0.1471   -0.0887    3.9823 H   0  0  0  0  0  0  0  0  0  0  0  0
   -2.4924   -0.0151    4.7112 H   0  0  0  0  0  0  0  0  0  0  0  0
   -3.0765    0.9405    6.8750 H   0  0  0  0  0  0  0  0  0  0  0  0
  2  1  1  1
  1 28  1  0
  1 29  1  0
  1 30  1  0
  2 20  1  0
  2 27  1  0
  2  3  1  0
  3  4  1  0
  3 31  1  0
  3 32  1  0
  4  5  1  0
  4 33  1  0
  5  6  1  0
  5  7  1  0
  5 34  1  6
  6 35  1  0
  7 24  1  0
  7  8  1  6
  7  9  1  0
  8 36  1  0
  9 23  1  0
  9 10  1  0
  9 37  1  1
 10 11  1  0
 10 38  1  0
 10 39  1  0
 11 12  1  0
 11 40  1  0
 11 41  1  0
 12 21  1  0
 12 13  1  1
 12 14  1  0
 13 42  1  0
 14 15  1  0
 14 43  1  0
 14 44  1  0
 15 16  1  0
 15 45  1  0
 15 46  1  0
 16 17  2  0
 16 18  1  0
 18 19  1  1
 18 20  1  0
 18 21  1  0
 19 47  1  0
 19 48  1  0
 19 49  1  0
 20 50  1  0
 20 51  1  0
 21 22  1  1
 21 23  1  0
 22 52  1  0
 22 53  1  0
 22 54  1  0
 23 24  1  0
 23 55  1  1
 24 25  1  0
 24 56  1  6
 25 27  1  0
 25 26  1  0
 25 57  1  6
 26 27  1  0
 27 58  1  6
M  END
>  <i_m_ct_stereo_status>  (152) 
1

>  <s_m_source_file>  (152) 
/var/tmp/pbs.5076255.sched01/tmpstc2q6q5/48db17pvb_.sdf

>  <i_m_source_file_index>  (152) 
15

>  <i_lp_mmshare_version>  (152) 
48012

>  <i_f3d_flags>  (152) 
0

>  <s_epik_input>  (152) 
W0NIM11bQ0BAXTEyW0NASF0zW0NASF0oTzMpW0NASF00W0NAQF0oW09IXSkoW0NASF0oW09IXSlbTkhdW0NIMl0xKVtDQEhdNVtDQEBIXTRbQ0BdNihbQ0gzXSlbQ0BdKFtPSF0pKFtDSDJdW0NIMl01KVtDSDJdW0NIMl1DKD1PKVtDQF02KFtDSDNdKVtDSDJdMg==

>  <s_epik_cmdline>  (152) 
J2VwaWtfcHl0aG9uJywgJy1waHQnLCAnMi4wJywgJy1waCcsICc3LjAnLCAnLXRuJywgJzgnLCAnLW1hJywgJzIwMCcsICctaW1hZScsICc8aW5maWxlLm1hZT4nLCAnLW9tYWUnLCAnPG91dGZpbGUubWFlPic=

>  <r_lp_tautomer_probability>  (152) 
0.99995

>  <r_epik_Ionization_Penalty>  (152) 
0.748031

>  <r_epik_Ionization_Penalty_Charging>  (152) 
0

>  <r_epik_Ionization_Penalty_Neutral>  (152) 
0.748031

>  <r_epik_State_Penalty>  (152) 
0.811552

>  <r_epik_Charging_Adjusted_Penalty>  (152) 
0.811552

>  <i_epik_Tot_Q>  (152) 
0

>  <i_epik_Tot_abs_Q>  (152) 
0

>  <s_epik_Chemistry_Notes>  (152) 
This compound contains an acetal/aminal-like group ( X-CH(R)-Y where X, Y are N, S, or O) that may be acid/base labile, releasing an aldehyde.

>  <s_lp_Force_Field>  (152) 
OPLS3e

>  <r_lp_Energy>  (152) 
124.577

>  <b_lp_Chiralities_Consistent>  (152) 
1

>  <s_lp_Variant>  (152) 
32:0-2

>  <s_i_glide_gridfile>  (152) 
pfpi4k_grid

>  <i_i_glide_lignum>  (152) 
15

>  <i_i_glide_rotatable_bonds>  (152) 
3

>  <r_i_docking_score>  (152) 
-3.28923

>  <r_i_glide_ligand_efficiency>  (152) 
-0.121823

>  <r_i_glide_ligand_efficiency_sa>  (152) 
-0.36547

>  <r_i_glide_ligand_efficiency_ln>  (152) 
-0.765679

>  <r_i_glide_gscore>  (152) 
-3.28923

>  <r_i_glide_lipo>  (152) 
-0.0349074

>  <r_i_glide_hbond>  (152) 
-0.12782

>  <r_i_glide_metal>  (152) 
-0

>  <r_i_glide_rewards>  (152) 
-0.835401

>  <r_i_glide_evdw>  (152) 
-22.655

>  <r_i_glide_ecoul>  (152) 
-7.34175

>  <r_i_glide_erotb>  (152) 
0

>  <r_i_glide_esite>  (152) 
-0.0570905

>  <r_i_glide_emodel>  (152) 
-36.7914

>  <r_i_glide_energy>  (152) 
-29.9967

>  <r_i_glide_einternal>  (152) 
1.42348

>  <r_i_glide_intrahb_reward>  (152) 
-0

>  <i_i_glide_confnum>  (152) 
1

>  <i_i_glide_posenum>  (152) 
11

>  <r_i_glide_eff_state_penalty>  (152) 
0

>  <ligand_id>  (152) 
32

>  <original_smiles>  (152) 
CC12CNC(O)C3(O)C4CCC5(O)CCC(=O)C(C)(C1)C5(C)C4C3C1OC12

>  <smiles>  (152) 
[H]OC1([H])N([H])C([H])([H])C2(C([H])([H])[H])C([H])([H])C3(C([H])([H])[H])C(=O)C([H])([H])C([H])([H])C4(O[H])C([H])([H])C([H])([H])C5([H])C([H])(C([H])(C6([H])OC62[H])C15O[H])C43C([H])([H])[H]

$$$$
32:1:2
     RDKit          3D

 58 63  0  0  1  0  0  0  0  0999 V2000
   -1.7245    2.7101    8.8519 C   0  0  0  0  0  0  0  0  0  0  0  0
   -0.8795    2.8463    7.5532 C   0  0  1  0  0  0  0  0  0  0  0  0
   -0.0198    4.1670    7.7815 C   0  0  0  0  0  0  0  0  0  0  0  0
   -0.2431    5.3109    6.8344 N   0  0  0  0  0  0  0  0  0  0  0  0
    0.6683    5.6007    5.6852 C   0  0  1  0  0  0  0  0  0  0  0  0
    1.9705    5.8691    6.1474 O   0  0  0  0  0  0  0  0  0  0  0  0
    0.6711    4.6378    4.4270 C   0  0  1  0  0  0  0  0  0  0  0  0
    0.3873    5.4691    3.3219 O   0  0  0  0  0  0  0  0  0  0  0  0
    1.8734    3.6629    4.1931 C   0  0  2  0  0  0  0  0  0  0  0  0
    2.1711    3.0125    2.8284 C   0  0  0  0  0  0  0  0  0  0  0  0
    2.6110    1.5347    2.9533 C   0  0  0  0  0  0  0  0  0  0  0  0
    1.7566    0.6421    3.9108 C   0  0  2  0  0  0  0  0  0  0  0  0
    2.5048   -0.5598    4.0097 O   0  0  0  0  0  0  0  0  0  0  0  0
    0.4347    0.1893    3.2566 C   0  0  0  0  0  0  0  0  0  0  0  0
   -0.3836   -0.7280    4.1681 C   0  0  0  0  0  0  0  0  0  0  0  0
   -0.6645   -0.1238    5.5388 C   0  0  0  0  0  0  0  0  0  0  0  0
   -1.7470   -0.3514    6.0813 O   0  0  0  0  0  0  0  0  0  0  0  0
    0.4938    0.5621    6.3053 C   0  0  2  0  0  0  0  0  0  0  0  0
    1.1634   -0.6740    6.9906 C   0  0  0  0  0  0  0  0  0  0  0  0
   -0.0232    1.4758    7.5229 C   0  0  0  0  0  0  0  0  0  0  0  0
    1.5383    1.2957    5.3384 C   0  0  1  0  0  0  0  0  0  0  0  0
    2.9381    1.3459    6.0452 C   0  0  0  0  0  0  0  0  0  0  0  0
    1.1252    2.7612    5.1616 C   0  0  2  0  0  0  0  0  0  0  0  0
   -0.1632    3.3474    4.4844 C   0  0  1  0  0  0  0  0  0  0  0  0
   -1.5545    3.4193    5.0582 C   0  0  1  0  0  0  0  0  0  0  0  0
   -2.1811    2.1956    5.4128 O   0  0  0  0  0  0  0  0  0  0  0  0
   -1.9277    3.1200    6.4696 C   0  0  1  0  0  0  0  0  0  0  0  0
   -2.3085    3.6085    9.0543 H   0  0  0  0  0  0  0  0  0  0  0  0
   -1.0999    2.5365    9.7303 H   0  0  0  0  0  0  0  0  0  0  0  0
   -2.4386    1.8885    8.7874 H   0  0  0  0  0  0  0  0  0  0  0  0
   -0.2912    4.5527    8.7625 H   0  0  0  0  0  0  0  0  0  0  0  0
    1.0397    3.9607    7.9401 H   0  0  0  0  0  0  0  0  0  0  0  0
   -0.3055    6.1615    7.3848 H   0  0  0  0  0  0  0  0  0  0  0  0
    0.3534    6.5787    5.3139 H   0  0  0  0  0  0  0  0  0  0  0  0
    2.3448    6.5277    5.5794 H   0  0  0  0  0  0  0  0  0  0  0  0
    0.3667    4.9309    2.5373 H   0  0  0  0  0  0  0  0  0  0  0  0
    2.7920    4.0119    4.6602 H   0  0  0  0  0  0  0  0  0  0  0  0
    1.3153    3.0368    2.1560 H   0  0  0  0  0  0  0  0  0  0  0  0
    2.9350    3.5854    2.3054 H   0  0  0  0  0  0  0  0  0  0  0  0
    2.6416    1.0911    1.9543 H   0  0  0  0  0  0  0  0  0  0  0  0
    3.6465    1.5329    3.2971 H   0  0  0  0  0  0  0  0  0  0  0  0
    2.6079   -0.9183    3.1407 H   0  0  0  0  0  0  0  0  0  0  0  0
   -0.1880    1.0259    2.9735 H   0  0  0  0  0  0  0  0  0  0  0  0
    0.6340   -0.3276    2.3195 H   0  0  0  0  0  0  0  0  0  0  0  0
   -1.3328   -0.9574    3.6945 H   0  0  0  0  0  0  0  0  0  0  0  0
    0.1360   -1.6730    4.3165 H   0  0  0  0  0  0  0  0  0  0  0  0
    1.9237   -0.4001    7.7196 H   0  0  0  0  0  0  0  0  0  0  0  0
    1.6359   -1.3400    6.2707 H   0  0  0  0  0  0  0  0  0  0  0  0
    0.4440   -1.2853    7.5359 H   0  0  0  0  0  0  0  0  0  0  0  0
    0.8474    1.6740    8.1496 H   0  0  0  0  0  0  0  0  0  0  0  0
   -0.5781    0.7676    8.1374 H   0  0  0  0  0  0  0  0  0  0  0  0
    2.8719    1.7478    7.0541 H   0  0  0  0  0  0  0  0  0  0  0  0
    3.6480    1.9740    5.5123 H   0  0  0  0  0  0  0  0  0  0  0  0
    3.4193    0.3704    6.1341 H   0  0  0  0  0  0  0  0  0  0  0  0
    1.3486    3.2009    6.1173 H   0  0  0  0  0  0  0  0  0  0  0  0
   -0.3033    2.9760    3.4758 H   0  0  0  0  0  0  0  0  0  0  0  0
   -2.2028    4.1203    4.5374 H   0  0  0  0  0  0  0  0  0  0  0  0
   -2.8176    3.6407    6.8164 H   0  0  0  0  0  0  0  0  0  0  0  0
  2  1  1  1
  1 28  1  0
  1 29  1  0
  1 30  1  0
  2 20  1  0
  2 27  1  0
  2  3  1  0
  3  4  1  0
  3 31  1  0
  3 32  1  0
  4  5  1  0
  4 33  1  0
  5  6  1  0
  5  7  1  0
  5 34  1  6
  6 35  1  0
  7 24  1  0
  7  8  1  6
  7  9  1  0
  8 36  1  0
  9 23  1  0
  9 10  1  0
  9 37  1  1
 10 11  1  0
 10 38  1  0
 10 39  1  0
 11 12  1  0
 11 40  1  0
 11 41  1  0
 12 21  1  0
 12 13  1  1
 12 14  1  0
 13 42  1  0
 14 15  1  0
 14 43  1  0
 14 44  1  0
 15 16  1  0
 15 45  1  0
 15 46  1  0
 16 17  2  0
 16 18  1  0
 18 19  1  1
 18 20  1  0
 18 21  1  0
 19 47  1  0
 19 48  1  0
 19 49  1  0
 20 50  1  0
 20 51  1  0
 21 22  1  1
 21 23  1  0
 22 52  1  0
 22 53  1  0
 22 54  1  0
 23 24  1  0
 23 55  1  1
 24 25  1  0
 24 56  1  6
 25 27  1  0
 25 26  1  0
 25 57  1  6
 26 27  1  0
 27 58  1  1
M  END
>  <i_m_ct_stereo_status>  (153) 
1

>  <s_m_source_file>  (153) 
/var/tmp/pbs.5076255.sched01/tmpstc2q6q5/48db17pvb_.sdf

>  <i_m_source_file_index>  (153) 
15

>  <i_lp_mmshare_version>  (153) 
48012

>  <i_f3d_flags>  (153) 
0

>  <s_epik_input>  (153) 
W0NIM11bQ0BAXTEyW0NASF0zW0NASF0oTzMpW0NASF00W0NAQF0oW09IXSkoW0NASF0oW09IXSlbTkhdW0NIMl0xKVtDQEhdNVtDQEBIXTRbQ0BdNihbQ0gzXSlbQ0BdKFtPSF0pKFtDSDJdW0NIMl01KVtDSDJdW0NIMl1DKD1PKVtDQF02KFtDSDNdKVtDSDJdMg==

>  <s_epik_cmdline>  (153) 
J2VwaWtfcHl0aG9uJywgJy1waHQnLCAnMi4wJywgJy1waCcsICc3LjAnLCAnLXRuJywgJzgnLCAnLW1hJywgJzIwMCcsICctaW1hZScsICc8aW5maWxlLm1hZT4nLCAnLW9tYWUnLCAnPG91dGZpbGUubWFlPic=

>  <r_lp_tautomer_probability>  (153) 
0.99995

>  <r_epik_Ionization_Penalty>  (153) 
0.748031

>  <r_epik_Ionization_Penalty_Charging>  (153) 
0

>  <r_epik_Ionization_Penalty_Neutral>  (153) 
0.748031

>  <r_epik_State_Penalty>  (153) 
0.811552

>  <r_epik_Charging_Adjusted_Penalty>  (153) 
0.811552

>  <i_epik_Tot_Q>  (153) 
0

>  <i_epik_Tot_abs_Q>  (153) 
0

>  <s_epik_Chemistry_Notes>  (153) 
This compound contains an acetal/aminal-like group ( X-CH(R)-Y where X, Y are N, S, or O) that may be acid/base labile, releasing an aldehyde.

>  <s_lp_Force_Field>  (153) 
OPLS3e

>  <r_lp_Energy>  (153) 
124.577

>  <b_lp_Chiralities_Consistent>  (153) 
1

>  <s_lp_Variant>  (153) 
32:0-2

>  <s_i_glide_gridfile>  (153) 
pfpi4k_grid

>  <i_i_glide_lignum>  (153) 
15

>  <i_i_glide_rotatable_bonds>  (153) 
3

>  <r_i_docking_score>  (153) 
-3.24708

>  <r_i_glide_ligand_efficiency>  (153) 
-0.120262

>  <r_i_glide_ligand_efficiency_sa>  (153) 
-0.360787

>  <r_i_glide_ligand_efficiency_ln>  (153) 
-0.755866

>  <r_i_glide_gscore>  (153) 
-3.24708

>  <r_i_glide_lipo>  (153) 
-0.072042

>  <r_i_glide_hbond>  (153) 
-0.133514

>  <r_i_glide_metal>  (153) 
-0

>  <r_i_glide_rewards>  (153) 
-0.835401

>  <r_i_glide_evdw>  (153) 
-22.4481

>  <r_i_glide_ecoul>  (153) 
-6.92445

>  <r_i_glide_erotb>  (153) 
0

>  <r_i_glide_esite>  (153) 
-0.0450508

>  <r_i_glide_emodel>  (153) 
-36.9222

>  <r_i_glide_energy>  (153) 
-29.3725

>  <r_i_glide_einternal>  (153) 
0.016405

>  <r_i_glide_intrahb_reward>  (153) 
-0

>  <i_i_glide_confnum>  (153) 
1

>  <i_i_glide_posenum>  (153) 
18

>  <r_i_glide_eff_state_penalty>  (153) 
0

>  <ligand_id>  (153) 
32

>  <original_smiles>  (153) 
CC12CNC(O)C3(O)C4CCC5(O)CCC(=O)C(C)(C1)C5(C)C4C3C1OC12

>  <smiles>  (153) 
[H]OC1([H])N([H])C([H])([H])C2(C([H])([H])[H])C([H])([H])C3(C([H])([H])[H])C(=O)C([H])([H])C([H])([H])C4(O[H])C([H])([H])C([H])([H])C5([H])C([H])(C([H])(C6([H])OC62[H])C15O[H])C43C([H])([H])[H]

$$$$
32:2:0
     RDKit          3D

 58 63  0  0  1  0  0  0  0  0999 V2000
    3.7554   -4.6291    6.0277 C   0  0  0  0  0  0  0  0  0  0  0  0
    3.8407   -3.7796    4.7348 C   0  0  1  0  0  0  0  0  0  0  0  0
    4.7891   -2.5600    5.1108 C   0  0  0  0  0  0  0  0  0  0  0  0
    4.1833   -1.1746    5.0448 N   0  0  0  0  0  0  0  0  0  0  0  0
    4.3934   -0.2298    3.9130 C   0  0  1  0  0  0  0  0  0  0  0  0
    5.7053   -0.0964    3.8519 O   0  0  0  0  0  0  0  0  0  0  0  0
    3.7705   -0.5461    2.5119 C   0  0  1  0  0  0  0  0  0  0  0  0
    3.0441    0.6079    2.1442 O   0  0  0  0  0  0  0  0  0  0  0  0
    4.6422   -1.1101    1.3378 C   0  0  2  0  0  0  0  0  0  0  0  0
    4.2005   -1.0179   -0.1302 C   0  0  0  0  0  0  0  0  0  0  0  0
    4.5300   -2.2949   -0.9409 C   0  0  0  0  0  0  0  0  0  0  0  0
    4.1597   -3.6442   -0.2592 C   0  0  2  0  0  0  0  0  0  0  0  0
    4.7640   -4.6270   -1.0887 O   0  0  0  0  0  0  0  0  0  0  0  0
    2.6559   -3.9539   -0.3624 C   0  0  0  0  0  0  0  0  0  0  0  0
    2.2972   -5.3089    0.2565 C   0  0  0  0  0  0  0  0  0  0  0  0
    2.7688   -5.4532    1.6997 C   0  0  0  0  0  0  0  0  0  0  0  0
    2.0696   -6.0831    2.4894 O   0  0  0  0  0  0  0  0  0  0  0  0
    4.2093   -5.0020    2.0732 C   0  0  2  0  0  0  0  0  0  0  0  0
    5.0109   -6.2948    1.6852 C   0  0  0  0  0  0  0  0  0  0  0  0
    4.4319   -4.8345    3.6583 C   0  0  0  0  0  0  0  0  0  0  0  0
    4.7110   -3.7489    1.2202 C   0  0  1  0  0  0  0  0  0  0  0  0
    6.2714   -3.8023    1.1205 C   0  0  0  0  0  0  0  0  0  0  0  0
    4.3831   -2.4543    1.9788 C   0  0  2  0  0  0  0  0  0  0  0  0
    2.9872   -1.8515    2.3468 C   0  0  1  0  0  0  0  0  0  0  0  0
    2.0628   -2.2919    3.4626 C   0  0  1  0  0  0  0  0  0  0  0  0
    1.6043   -3.6237    3.4459 O   0  0  0  0  0  0  0  0  0  0  0  0
    2.4159   -3.2457    4.5413 C   0  0  1  0  0  0  0  0  0  0  0  0
    3.4252   -4.0478    6.8950 H   0  0  0  0  0  0  0  0  0  0  0  0
    4.7198   -5.0733    6.2930 H   0  0  0  0  0  0  0  0  0  0  0  0
    3.0398   -5.4494    5.9270 H   0  0  0  0  0  0  0  0  0  0  0  0
    5.0356   -2.6367    6.1731 H   0  0  0  0  0  0  0  0  0  0  0  0
    5.7801   -2.6102    4.6702 H   0  0  0  0  0  0  0  0  0  0  0  0
    3.1819   -1.2443    5.1673 H   0  0  0  0  0  0  0  0  0  0  0  0
    3.8014    0.6045    4.3060 H   0  0  0  0  0  0  0  0  0  0  0  0
    3.6865    1.3068    2.0966 H   0  0  0  0  0  0  0  0  0  0  0  0
    5.6961   -0.8569    1.4554 H   0  0  0  0  0  0  0  0  0  0  0  0
    3.1307   -0.8279   -0.2197 H   0  0  0  0  0  0  0  0  0  0  0  0
    4.6595   -0.1498   -0.6094 H   0  0  0  0  0  0  0  0  0  0  0  0
    4.0580   -2.2263   -1.9233 H   0  0  0  0  0  0  0  0  0  0  0  0
    5.5960   -2.2816   -1.1562 H   0  0  0  0  0  0  0  0  0  0  0  0
    4.1346   -4.9176   -1.7350 H   0  0  0  0  0  0  0  0  0  0  0  0
    2.0569   -3.1816    0.0987 H   0  0  0  0  0  0  0  0  0  0  0  0
    2.3496   -3.9596   -1.4095 H   0  0  0  0  0  0  0  0  0  0  0  0
    1.2218   -5.4692    0.2131 H   0  0  0  0  0  0  0  0  0  0  0  0
    2.7405   -6.1196   -0.3210 H   0  0  0  0  0  0  0  0  0  0  0  0
    6.0526   -6.2698    1.9973 H   0  0  0  0  0  0  0  0  0  0  0  0
    5.0061   -6.4844    0.6122 H   0  0  0  0  0  0  0  0  0  0  0  0
    4.5929   -7.1969    2.1358 H   0  0  0  0  0  0  0  0  0  0  0  0
    5.5119   -4.8339    3.8170 H   0  0  0  0  0  0  0  0  0  0  0  0
    4.1579   -5.8209    4.0322 H   0  0  0  0  0  0  0  0  0  0  0  0
    6.7379   -3.9417    2.0894 H   0  0  0  0  0  0  0  0  0  0  0  0
    6.6931   -2.8896    0.7077 H   0  0  0  0  0  0  0  0  0  0  0  0
    6.6451   -4.6146    0.4945 H   0  0  0  0  0  0  0  0  0  0  0  0
    5.0896   -2.4262    2.7871 H   0  0  0  0  0  0  0  0  0  0  0  0
    2.3562   -1.7466    1.4798 H   0  0  0  0  0  0  0  0  0  0  0  0
    1.2784   -1.5639    3.6884 H   0  0  0  0  0  0  0  0  0  0  0  0
    1.8542   -3.1095    5.4760 H   0  0  0  0  0  0  0  0  0  0  0  0
    4.5775   -0.6678    5.8247 H   0  0  0  0  0  0  0  0  0  0  0  0
  2  1  1  1
  1 28  1  0
  1 29  1  0
  1 30  1  0
  2 20  1  0
  2 27  1  0
  2  3  1  0
  3  4  1  0
  3 31  1  0
  3 32  1  0
  4  5  1  0
  4 33  1  0
  4 58  1  0
  5  6  1  0
  5  7  1  0
  5 34  1  1
  7 24  1  0
  7  8  1  6
  7  9  1  0
  8 35  1  0
  9 23  1  0
  9 10  1  0
  9 36  1  6
 10 11  1  0
 10 37  1  0
 10 38  1  0
 11 12  1  0
 11 39  1  0
 11 40  1  0
 12 21  1  0
 12 13  1  6
 12 14  1  0
 13 41  1  0
 14 15  1  0
 14 42  1  0
 14 43  1  0
 15 16  1  0
 15 44  1  0
 15 45  1  0
 16 17  2  0
 16 18  1  0
 18 19  1  6
 18 20  1  0
 18 21  1  0
 19 46  1  0
 19 47  1  0
 19 48  1  0
 20 49  1  0
 20 50  1  0
 21 22  1  6
 21 23  1  0
 22 51  1  0
 22 52  1  0
 22 53  1  0
 23 24  1  0
 23 54  1  1
 24 25  1  0
 24 55  1  6
 25 27  1  0
 25 26  1  0
 25 56  1  1
 26 27  1  0
 27 57  1  1
M  CHG  2   4   1   6  -1
M  END
>  <i_m_ct_stereo_status>  (154) 
1

>  <s_m_source_file>  (154) 
/var/tmp/pbs.5076255.sched01/tmpstc2q6q5/48db17pvb_.sdf

>  <i_m_source_file_index>  (154) 
16

>  <i_lp_mmshare_version>  (154) 
48012

>  <i_f3d_flags>  (154) 
0

>  <s_epik_input>  (154) 
W0NIM11bQ0BAXTEyW0NASF0zW0NASF0oTzMpW0NASF00W0NAQF0oW09IXSkoW0NASF0oW09IXSlbTkhdW0NIMl0xKVtDQEhdNVtDQEBIXTRbQ0BdNihbQ0gzXSlbQ0BdKFtPSF0pKFtDSDJdW0NIMl01KVtDSDJdW0NIMl1DKD1PKVtDQF02KFtDSDNdKVtDSDJdMg==

>  <s_epik_cmdline>  (154) 
J2VwaWtfcHl0aG9uJywgJy1waHQnLCAnMi4wJywgJy1waCcsICc3LjAnLCAnLXRuJywgJzgnLCAnLW1hJywgJzIwMCcsICctaW1hZScsICc8aW5maWxlLm1hZT4nLCAnLW9tYWUnLCAnPG91dGZpbGUubWFlPic=

>  <r_epik_Ionization_Penalty>  (154) 
1.40819

>  <r_epik_Ionization_Penalty_Charging>  (154) 
1.40819

>  <r_epik_Ionization_Penalty_Neutral>  (154) 
5.23785e-07

>  <r_epik_State_Penalty>  (154) 
1.66467

>  <r_epik_Charging_Adjusted_Penalty>  (154) 
3.07286

>  <i_epik_Tot_Q>  (154) 
0

>  <i_epik_Tot_abs_Q>  (154) 
2

>  <s_epik_Chemistry_Notes>  (154) 
This compound contains an acetal/aminal-like group ( X-CH(R)-Y where X, Y are N, S, or O) that may be acid/base labile, releasing an aldehyde.

>  <s_lp_Force_Field>  (154) 
OPLS3e

>  <r_lp_Energy>  (154) 
131.416

>  <b_lp_Chiralities_Consistent>  (154) 
1

>  <s_lp_Variant>  (154) 
32:0-3

>  <s_i_glide_gridfile>  (154) 
pfpi4k_grid

>  <i_i_glide_lignum>  (154) 
16

>  <i_i_glide_rotatable_bonds>  (154) 
2

>  <r_i_docking_score>  (154) 
-3.2871

>  <r_i_glide_ligand_efficiency>  (154) 
-0.121745

>  <r_i_glide_ligand_efficiency_sa>  (154) 
-0.365234

>  <r_i_glide_ligand_efficiency_ln>  (154) 
-0.765184

>  <r_i_glide_gscore>  (154) 
-3.2871

>  <r_i_glide_lipo>  (154) 
-0.317424

>  <r_i_glide_hbond>  (154) 
-0.32

>  <r_i_glide_metal>  (154) 
-0

>  <r_i_glide_rewards>  (154) 
-0.887008

>  <r_i_glide_evdw>  (154) 
-22.0882

>  <r_i_glide_ecoul>  (154) 
-4.32106

>  <r_i_glide_erotb>  (154) 
0

>  <r_i_glide_esite>  (154) 
-0.0101034

>  <r_i_glide_emodel>  (154) 
-31.7866

>  <r_i_glide_energy>  (154) 
-26.4093

>  <r_i_glide_einternal>  (154) 
1.29484

>  <r_i_glide_intrahb_reward>  (154) 
-0

>  <i_i_glide_confnum>  (154) 
1

>  <i_i_glide_posenum>  (154) 
7

>  <r_i_glide_eff_state_penalty>  (154) 
0

>  <ligand_id>  (154) 
32

>  <original_smiles>  (154) 
CC12CNC(O)C3(O)C4CCC5(O)CCC(=O)C(C)(C1)C5(C)C4C3C1OC12

>  <smiles>  (154) 
[H]OC12C([H])([H])C([H])([H])C(=O)C3(C([H])([H])[H])C([H])([H])C4(C([H])([H])[H])C5([H])OC5([H])C5([H])C([H])(C([H])(C([H])([H])C1([H])[H])C5(O[H])C([H])([O-])[N+]([H])([H])C4([H])[H])C23C([H])([H])[H]

$$$$
32:2:1
     RDKit          3D

 58 63  0  0  1  0  0  0  0  0999 V2000
    3.5859   -4.6028    6.0296 C   0  0  0  0  0  0  0  0  0  0  0  0
    3.6946   -3.7650    4.7295 C   0  0  1  0  0  0  0  0  0  0  0  0
    4.6421   -2.5439    5.1089 C   0  0  0  0  0  0  0  0  0  0  0  0
    4.0354   -1.1582    5.0168 N   0  0  0  0  0  0  0  0  0  0  0  0
    4.2754   -0.2270    3.8788 C   0  0  1  0  0  0  0  0  0  0  0  0
    5.5958   -0.1165    3.8467 O   0  0  0  0  0  0  0  0  0  0  0  0
    3.6648   -0.5589    2.4707 C   0  0  1  0  0  0  0  0  0  0  0  0
    2.9364    0.5802    2.0872 O   0  0  0  0  0  0  0  0  0  0  0  0
    4.5561   -1.1328    1.3189 C   0  0  2  0  0  0  0  0  0  0  0  0
    4.1416   -1.0453   -0.1577 C   0  0  0  0  0  0  0  0  0  0  0  0
    4.4801   -2.3280   -0.9519 C   0  0  0  0  0  0  0  0  0  0  0  0
    4.0989   -3.6733   -0.2670 C   0  0  2  0  0  0  0  0  0  0  0  0
    4.7104   -4.6570   -1.0925 O   0  0  0  0  0  0  0  0  0  0  0  0
    2.5984   -3.9827   -0.3876 C   0  0  0  0  0  0  0  0  0  0  0  0
    2.2164   -5.3298    0.2439 C   0  0  0  0  0  0  0  0  0  0  0  0
    2.6662   -5.4615    1.6925 C   0  0  0  0  0  0  0  0  0  0  0  0
    1.9471   -6.0794    2.4805 O   0  0  0  0  0  0  0  0  0  0  0  0
    4.1007   -5.0148    2.0838 C   0  0  2  0  0  0  0  0  0  0  0  0
    4.9023   -6.3119    1.7174 C   0  0  0  0  0  0  0  0  0  0  0  0
    4.2980   -4.8333    3.6700 C   0  0  0  0  0  0  0  0  0  0  0  0
    4.6207   -3.7724    1.2246 C   0  0  1  0  0  0  0  0  0  0  0  0
    6.1809   -3.8287    1.1598 C   0  0  0  0  0  0  0  0  0  0  0  0
    4.2819   -2.4723    1.9668 C   0  0  2  0  0  0  0  0  0  0  0  0
    2.8798   -1.8649    2.3083 C   0  0  1  0  0  0  0  0  0  0  0  0
    1.9367   -2.2874    3.4181 C   0  0  1  0  0  0  0  0  0  0  0  0
    1.4718   -3.6191    3.4084 O   0  0  0  0  0  0  0  0  0  0  0  0
    2.2718   -3.2316    4.5122 C   0  0  1  0  0  0  0  0  0  0  0  0
    3.2439   -4.0114    6.8845 H   0  0  0  0  0  0  0  0  0  0  0  0
    4.5441   -5.0469    6.3133 H   0  0  0  0  0  0  0  0  0  0  0  0
    2.8687   -5.4211    5.9241 H   0  0  0  0  0  0  0  0  0  0  0  0
    4.8674   -2.6075    6.1752 H   0  0  0  0  0  0  0  0  0  0  0  0
    5.6418   -2.6008    4.6874 H   0  0  0  0  0  0  0  0  0  0  0  0
    3.0344   -1.2211    5.1269 H   0  0  0  0  0  0  0  0  0  0  0  0
    3.6895    0.6214    4.2444 H   0  0  0  0  0  0  0  0  0  0  0  0
    2.4766    0.3449    1.2866 H   0  0  0  0  0  0  0  0  0  0  0  0
    5.6056   -0.8708    1.4519 H   0  0  0  0  0  0  0  0  0  0  0  0
    3.0735   -0.8589   -0.2711 H   0  0  0  0  0  0  0  0  0  0  0  0
    4.6201   -0.1875   -0.6332 H   0  0  0  0  0  0  0  0  0  0  0  0
    4.0182   -2.2664   -1.9399 H   0  0  0  0  0  0  0  0  0  0  0  0
    5.5499   -2.3188   -1.1486 H   0  0  0  0  0  0  0  0  0  0  0  0
    4.0668   -4.9903   -1.7031 H   0  0  0  0  0  0  0  0  0  0  0  0
    1.9888   -3.2066    0.0545 H   0  0  0  0  0  0  0  0  0  0  0  0
    2.3004   -3.9944   -1.4366 H   0  0  0  0  0  0  0  0  0  0  0  0
    1.1495   -5.4832    0.1819 H   0  0  0  0  0  0  0  0  0  0  0  0
    2.6721   -6.1540   -0.3071 H   0  0  0  0  0  0  0  0  0  0  0  0
    5.9391   -6.2875    2.0473 H   0  0  0  0  0  0  0  0  0  0  0  0
    4.9149   -6.5075    0.6459 H   0  0  0  0  0  0  0  0  0  0  0  0
    4.4763   -7.2087    2.1709 H   0  0  0  0  0  0  0  0  0  0  0  0
    5.3750   -4.8325    3.8472 H   0  0  0  0  0  0  0  0  0  0  0  0
    4.0162   -5.8160    4.0506 H   0  0  0  0  0  0  0  0  0  0  0  0
    6.6177   -3.9572    2.1467 H   0  0  0  0  0  0  0  0  0  0  0  0
    6.6141   -2.9212    0.7450 H   0  0  0  0  0  0  0  0  0  0  0  0
    6.5626   -4.6471    0.5474 H   0  0  0  0  0  0  0  0  0  0  0  0
    4.9736   -2.4429    2.7879 H   0  0  0  0  0  0  0  0  0  0  0  0
    2.2552   -1.7767    1.4301 H   0  0  0  0  0  0  0  0  0  0  0  0
    1.1538   -1.5524    3.6242 H   0  0  0  0  0  0  0  0  0  0  0  0
    1.6982   -3.0827    5.4365 H   0  0  0  0  0  0  0  0  0  0  0  0
    4.4209   -0.6430    5.7920 H   0  0  0  0  0  0  0  0  0  0  0  0
  2  1  1  1
  1 28  1  0
  1 29  1  0
  1 30  1  0
  2 20  1  0
  2 27  1  0
  2  3  1  0
  3  4  1  0
  3 31  1  0
  3 32  1  0
  4  5  1  0
  4 33  1  0
  4 58  1  0
  5  6  1  0
  5  7  1  0
  5 34  1  1
  7 24  1  0
  7  8  1  6
  7  9  1  0
  8 35  1  0
  9 23  1  0
  9 10  1  0
  9 36  1  6
 10 11  1  0
 10 37  1  0
 10 38  1  0
 11 12  1  0
 11 39  1  0
 11 40  1  0
 12 21  1  0
 12 13  1  6
 12 14  1  0
 13 41  1  0
 14 15  1  0
 14 42  1  0
 14 43  1  0
 15 16  1  0
 15 44  1  0
 15 45  1  0
 16 17  2  0
 16 18  1  0
 18 19  1  6
 18 20  1  0
 18 21  1  0
 19 46  1  0
 19 47  1  0
 19 48  1  0
 20 49  1  0
 20 50  1  0
 21 22  1  6
 21 23  1  0
 22 51  1  0
 22 52  1  0
 22 53  1  0
 23 24  1  0
 23 54  1  1
 24 25  1  0
 24 55  1  6
 25 27  1  0
 25 26  1  0
 25 56  1  1
 26 27  1  0
 27 57  1  1
M  CHG  2   4   1   6  -1
M  END
>  <i_m_ct_stereo_status>  (155) 
1

>  <s_m_source_file>  (155) 
/var/tmp/pbs.5076255.sched01/tmpstc2q6q5/48db17pvb_.sdf

>  <i_m_source_file_index>  (155) 
16

>  <i_lp_mmshare_version>  (155) 
48012

>  <i_f3d_flags>  (155) 
0

>  <s_epik_input>  (155) 
W0NIM11bQ0BAXTEyW0NASF0zW0NASF0oTzMpW0NASF00W0NAQF0oW09IXSkoW0NASF0oW09IXSlbTkhdW0NIMl0xKVtDQEhdNVtDQEBIXTRbQ0BdNihbQ0gzXSlbQ0BdKFtPSF0pKFtDSDJdW0NIMl01KVtDSDJdW0NIMl1DKD1PKVtDQF02KFtDSDNdKVtDSDJdMg==

>  <s_epik_cmdline>  (155) 
J2VwaWtfcHl0aG9uJywgJy1waHQnLCAnMi4wJywgJy1waCcsICc3LjAnLCAnLXRuJywgJzgnLCAnLW1hJywgJzIwMCcsICctaW1hZScsICc8aW5maWxlLm1hZT4nLCAnLW9tYWUnLCAnPG91dGZpbGUubWFlPic=

>  <r_epik_Ionization_Penalty>  (155) 
1.40819

>  <r_epik_Ionization_Penalty_Charging>  (155) 
1.40819

>  <r_epik_Ionization_Penalty_Neutral>  (155) 
5.23785e-07

>  <r_epik_State_Penalty>  (155) 
1.66467

>  <r_epik_Charging_Adjusted_Penalty>  (155) 
3.07286

>  <i_epik_Tot_Q>  (155) 
0

>  <i_epik_Tot_abs_Q>  (155) 
2

>  <s_epik_Chemistry_Notes>  (155) 
This compound contains an acetal/aminal-like group ( X-CH(R)-Y where X, Y are N, S, or O) that may be acid/base labile, releasing an aldehyde.

>  <s_lp_Force_Field>  (155) 
OPLS3e

>  <r_lp_Energy>  (155) 
131.416

>  <b_lp_Chiralities_Consistent>  (155) 
1

>  <s_lp_Variant>  (155) 
32:0-3

>  <s_i_glide_gridfile>  (155) 
pfpi4k_grid

>  <i_i_glide_lignum>  (155) 
16

>  <i_i_glide_rotatable_bonds>  (155) 
2

>  <r_i_docking_score>  (155) 
-3.1755

>  <r_i_glide_ligand_efficiency>  (155) 
-0.117611

>  <r_i_glide_ligand_efficiency_sa>  (155) 
-0.352833

>  <r_i_glide_ligand_efficiency_ln>  (155) 
-0.739204

>  <r_i_glide_gscore>  (155) 
-3.1755

>  <r_i_glide_lipo>  (155) 
-0.284399

>  <r_i_glide_hbond>  (155) 
-0.32

>  <r_i_glide_metal>  (155) 
-0

>  <r_i_glide_rewards>  (155) 
-0.871988

>  <r_i_glide_evdw>  (155) 
-21.9934

>  <r_i_glide_ecoul>  (155) 
-3.90597

>  <r_i_glide_erotb>  (155) 
0

>  <r_i_glide_esite>  (155) 
-0.0135473

>  <r_i_glide_emodel>  (155) 
-31.303

>  <r_i_glide_energy>  (155) 
-25.8993

>  <r_i_glide_einternal>  (155) 
0.934649

>  <r_i_glide_intrahb_reward>  (155) 
-0

>  <i_i_glide_confnum>  (155) 
1

>  <i_i_glide_posenum>  (155) 
31

>  <r_i_glide_eff_state_penalty>  (155) 
0

>  <ligand_id>  (155) 
32

>  <original_smiles>  (155) 
CC12CNC(O)C3(O)C4CCC5(O)CCC(=O)C(C)(C1)C5(C)C4C3C1OC12

>  <smiles>  (155) 
[H]OC12C([H])([H])C([H])([H])C(=O)C3(C([H])([H])[H])C([H])([H])C4(C([H])([H])[H])C5([H])OC5([H])C5([H])C([H])(C([H])(C([H])([H])C1([H])[H])C5(O[H])C([H])([O-])[N+]([H])([H])C4([H])[H])C23C([H])([H])[H]

$$$$
32:2:2
     RDKit          3D

 58 63  0  0  1  0  0  0  0  0999 V2000
   -0.4860    1.4517    9.3239 C   0  0  0  0  0  0  0  0  0  0  0  0
   -0.1211    1.7115    7.8379 C   0  0  1  0  0  0  0  0  0  0  0  0
    0.3811    3.2181    7.8054 C   0  0  0  0  0  0  0  0  0  0  0  0
   -0.4170    4.1779    6.9565 N   0  0  0  0  0  0  0  0  0  0  0  0
   -0.0253    4.6277    5.5887 C   0  0  1  0  0  0  0  0  0  0  0  0
    1.1868    5.1710    5.8007 O   0  0  0  0  0  0  0  0  0  0  0  0
   -0.0420    3.6091    4.4003 C   0  0  1  0  0  0  0  0  0  0  0  0
   -0.8007    4.2281    3.3705 O   0  0  0  0  0  0  0  0  0  0  0  0
    1.2737    2.9542    3.8685 C   0  0  2  0  0  0  0  0  0  0  0  0
    1.3743    2.3220    2.4746 C   0  0  0  0  0  0  0  0  0  0  0  0
    2.2012    1.0199    2.4421 C   0  0  0  0  0  0  0  0  0  0  0  0
    1.8957   -0.0053    3.5777 C   0  0  2  0  0  0  0  0  0  0  0  0
    2.9239   -0.9718    3.4498 O   0  0  0  0  0  0  0  0  0  0  0  0
    0.6100   -0.8116    3.2966 C   0  0  0  0  0  0  0  0  0  0  0  0
    0.3136   -1.8531    4.3765 C   0  0  0  0  0  0  0  0  0  0  0  0
    0.2660   -1.2635    5.7896 C   0  0  0  0  0  0  0  0  0  0  0  0
   -0.5262   -1.7223    6.6035 O   0  0  0  0  0  0  0  0  0  0  0  0
    1.3760   -0.2560    6.2161 C   0  0  2  0  0  0  0  0  0  0  0  0
    2.4948   -1.2560    6.6714 C   0  0  0  0  0  0  0  0  0  0  0  0
    0.9934    0.5761    7.5434 C   0  0  0  0  0  0  0  0  0  0  0  0
    1.8917    0.6567    5.0144 C   0  0  1  0  0  0  0  0  0  0  0  0
    3.3648    1.0964    5.3165 C   0  0  0  0  0  0  0  0  0  0  0  0
    1.0751    1.9563    4.9846 C   0  0  2  0  0  0  0  0  0  0  0  0
   -0.4586    2.1575    4.6914 C   0  0  1  0  0  0  0  0  0  0  0  0
   -1.6083    1.9052    5.6515 C   0  0  1  0  0  0  0  0  0  0  0  0
   -1.7721    0.6005    6.1893 O   0  0  0  0  0  0  0  0  0  0  0  0
   -1.4728    1.6366    7.1116 C   0  0  1  0  0  0  0  0  0  0  0  0
   -1.2016    2.1791    9.7184 H   0  0  0  0  0  0  0  0  0  0  0  0
    0.3934    1.4888    9.9727 H   0  0  0  0  0  0  0  0  0  0  0  0
   -0.9464    0.4710    9.4617 H   0  0  0  0  0  0  0  0  0  0  0  0
    0.2503    3.6474    8.7956 H   0  0  0  0  0  0  0  0  0  0  0  0
    1.4581    3.3356    7.6681 H   0  0  0  0  0  0  0  0  0  0  0  0
   -1.3760    3.8315    6.8757 H   0  0  0  0  0  0  0  0  0  0  0  0
   -0.8491    5.3040    5.4015 H   0  0  0  0  0  0  0  0  0  0  0  0
   -0.2936    4.1483    2.5720 H   0  0  0  0  0  0  0  0  0  0  0  0
    2.1517    3.5716    4.0757 H   0  0  0  0  0  0  0  0  0  0  0  0
    0.3879    2.1040    2.0542 H   0  0  0  0  0  0  0  0  0  0  0  0
    1.8122    3.0291    1.7649 H   0  0  0  0  0  0  0  0  0  0  0  0
    2.0832    0.5496    1.4633 H   0  0  0  0  0  0  0  0  0  0  0  0
    3.2512    1.3060    2.4879 H   0  0  0  0  0  0  0  0  0  0  0  0
    2.8990   -1.3177    2.5707 H   0  0  0  0  0  0  0  0  0  0  0  0
   -0.2516   -0.1692    3.1969 H   0  0  0  0  0  0  0  0  0  0  0  0
    0.6888   -1.3161    2.3323 H   0  0  0  0  0  0  0  0  0  0  0  0
   -0.6400   -2.3365    4.1690 H   0  0  0  0  0  0  0  0  0  0  0  0
    1.0653   -2.6377    4.3643 H   0  0  0  0  0  0  0  0  0  0  0  0
    3.3368   -0.7682    7.1590 H   0  0  0  0  0  0  0  0  0  0  0  0
    2.9018   -1.8333    5.8426 H   0  0  0  0  0  0  0  0  0  0  0  0
    2.1322   -1.9932    7.3897 H   0  0  0  0  0  0  0  0  0  0  0  0
    1.9297    0.9948    7.9158 H   0  0  0  0  0  0  0  0  0  0  0  0
    0.8093   -0.2177    8.2675 H   0  0  0  0  0  0  0  0  0  0  0  0
    3.4740    1.5155    6.3161 H   0  0  0  0  0  0  0  0  0  0  0  0
    3.7191    1.8557    4.6217 H   0  0  0  0  0  0  0  0  0  0  0  0
    4.0837    0.2798    5.2457 H   0  0  0  0  0  0  0  0  0  0  0  0
    1.4316    2.5176    5.8205 H   0  0  0  0  0  0  0  0  0  0  0  0
   -0.7562    1.6964    3.7644 H   0  0  0  0  0  0  0  0  0  0  0  0
   -2.5437    2.3678    5.3308 H   0  0  0  0  0  0  0  0  0  0  0  0
   -2.3315    1.9367    7.7161 H   0  0  0  0  0  0  0  0  0  0  0  0
   -0.4281    5.0439    7.4735 H   0  0  0  0  0  0  0  0  0  0  0  0
  2  1  1  1
  1 28  1  0
  1 29  1  0
  1 30  1  0
  2 20  1  0
  2 27  1  0
  2  3  1  0
  3  4  1  0
  3 31  1  0
  3 32  1  0
  4  5  1  0
  4 33  1  0
  4 58  1  0
  5  6  1  0
  5  7  1  0
  5 34  1  6
  7 24  1  0
  7  8  1  6
  7  9  1  0
  8 35  1  0
  9 23  1  0
  9 10  1  0
  9 36  1  1
 10 11  1  0
 10 37  1  0
 10 38  1  0
 11 12  1  0
 11 39  1  0
 11 40  1  0
 12 21  1  0
 12 13  1  1
 12 14  1  0
 13 41  1  0
 14 15  1  0
 14 42  1  0
 14 43  1  0
 15 16  1  0
 15 44  1  0
 15 45  1  0
 16 17  2  0
 16 18  1  0
 18 19  1  1
 18 20  1  0
 18 21  1  0
 19 46  1  0
 19 47  1  0
 19 48  1  0
 20 49  1  0
 20 50  1  0
 21 22  1  1
 21 23  1  0
 22 51  1  0
 22 52  1  0
 22 53  1  0
 23 24  1  0
 23 54  1  1
 24 25  1  0
 24 55  1  6
 25 27  1  0
 25 26  1  0
 25 56  1  1
 26 27  1  0
 27 57  1  1
M  CHG  2   4   1   6  -1
M  END
>  <i_m_ct_stereo_status>  (156) 
1

>  <s_m_source_file>  (156) 
/var/tmp/pbs.5076255.sched01/tmpstc2q6q5/48db17pvb_.sdf

>  <i_m_source_file_index>  (156) 
16

>  <i_lp_mmshare_version>  (156) 
48012

>  <i_f3d_flags>  (156) 
0

>  <s_epik_input>  (156) 
W0NIM11bQ0BAXTEyW0NASF0zW0NASF0oTzMpW0NASF00W0NAQF0oW09IXSkoW0NASF0oW09IXSlbTkhdW0NIMl0xKVtDQEhdNVtDQEBIXTRbQ0BdNihbQ0gzXSlbQ0BdKFtPSF0pKFtDSDJdW0NIMl01KVtDSDJdW0NIMl1DKD1PKVtDQF02KFtDSDNdKVtDSDJdMg==

>  <s_epik_cmdline>  (156) 
J2VwaWtfcHl0aG9uJywgJy1waHQnLCAnMi4wJywgJy1waCcsICc3LjAnLCAnLXRuJywgJzgnLCAnLW1hJywgJzIwMCcsICctaW1hZScsICc8aW5maWxlLm1hZT4nLCAnLW9tYWUnLCAnPG91dGZpbGUubWFlPic=

>  <r_epik_Ionization_Penalty>  (156) 
1.40819

>  <r_epik_Ionization_Penalty_Charging>  (156) 
1.40819

>  <r_epik_Ionization_Penalty_Neutral>  (156) 
5.23785e-07

>  <r_epik_State_Penalty>  (156) 
1.66467

>  <r_epik_Charging_Adjusted_Penalty>  (156) 
3.07286

>  <i_epik_Tot_Q>  (156) 
0

>  <i_epik_Tot_abs_Q>  (156) 
2

>  <s_epik_Chemistry_Notes>  (156) 
This compound contains an acetal/aminal-like group ( X-CH(R)-Y where X, Y are N, S, or O) that may be acid/base labile, releasing an aldehyde.

>  <s_lp_Force_Field>  (156) 
OPLS3e

>  <r_lp_Energy>  (156) 
131.416

>  <b_lp_Chiralities_Consistent>  (156) 
1

>  <s_lp_Variant>  (156) 
32:0-3

>  <s_i_glide_gridfile>  (156) 
pfpi4k_grid

>  <i_i_glide_lignum>  (156) 
16

>  <i_i_glide_rotatable_bonds>  (156) 
2

>  <r_i_docking_score>  (156) 
-3.1223

>  <r_i_glide_ligand_efficiency>  (156) 
-0.115641

>  <r_i_glide_ligand_efficiency_sa>  (156) 
-0.346922

>  <r_i_glide_ligand_efficiency_ln>  (156) 
-0.726819

>  <r_i_glide_gscore>  (156) 
-3.1223

>  <r_i_glide_lipo>  (156) 
-0.0256563

>  <r_i_glide_hbond>  (156) 
-0.0961703

>  <r_i_glide_metal>  (156) 
-0

>  <r_i_glide_rewards>  (156) 
-0.835401

>  <r_i_glide_evdw>  (156) 
-19.9168

>  <r_i_glide_ecoul>  (156) 
-7.5695

>  <r_i_glide_erotb>  (156) 
0

>  <r_i_glide_esite>  (156) 
-0.0338012

>  <r_i_glide_emodel>  (156) 
-32.9935

>  <r_i_glide_energy>  (156) 
-27.4863

>  <r_i_glide_einternal>  (156) 
0.80116

>  <r_i_glide_intrahb_reward>  (156) 
-0

>  <i_i_glide_confnum>  (156) 
2

>  <i_i_glide_posenum>  (156) 
8

>  <r_i_glide_eff_state_penalty>  (156) 
0

>  <ligand_id>  (156) 
32

>  <original_smiles>  (156) 
CC12CNC(O)C3(O)C4CCC5(O)CCC(=O)C(C)(C1)C5(C)C4C3C1OC12

>  <smiles>  (156) 
[H]OC12C([H])([H])C([H])([H])C(=O)C3(C([H])([H])[H])C([H])([H])C4(C([H])([H])[H])C5([H])OC5([H])C5([H])C([H])(C([H])(C([H])([H])C1([H])[H])C5(O[H])C([H])([O-])[N+]([H])([H])C4([H])[H])C23C([H])([H])[H]

$$$$
33:0:0
     RDKit          3D

 56 64  0  0  1  0  0  0  0  0999 V2000
    5.0311   -7.7805    4.3842 C   0  0  0  0  0  0  0  0  0  0  0  0
    3.9298   -7.6666    3.4892 O   0  0  0  0  0  0  0  0  0  0  0  0
    3.5928   -6.3997    3.0971 C   0  0  0  0  0  0  0  0  0  0  0  0
    3.4872   -5.3613    3.9616 C   0  0  0  0  0  0  0  0  0  0  0  0
    3.1851   -3.9423    3.5548 C   0  0  1  0  0  0  0  0  0  0  0  0
    4.4524   -3.0801    3.7232 C   0  0  0  0  0  0  0  0  0  0  0  0
    5.2964   -3.3617    4.5755 O   0  0  0  0  0  0  0  0  0  0  0  0
    4.6109   -1.7979    2.8916 C   0  0  2  0  0  0  0  0  0  0  0  0
    3.3626   -1.4355    1.8757 C   0  0  2  0  0  0  0  0  0  0  0  0
    2.1679   -2.4152    1.8357 C   0  0  0  0  0  0  0  0  0  0  0  0
    2.4899   -3.8871    2.1712 C   0  0  1  0  0  0  0  0  0  0  0  0
    3.1265   -4.7856    1.0431 C   0  0  2  0  0  0  0  0  0  0  0  0
    2.1078   -5.0344    0.0748 O   0  0  0  0  0  0  0  0  0  0  0  0
    3.4074   -6.1934    1.6479 C   0  0  0  0  0  0  0  0  0  0  0  0
    3.5054   -7.1476    0.8743 O   0  0  0  0  0  0  0  0  0  0  0  0
    4.4422   -4.1105    0.4200 C   0  0  2  0  0  0  0  0  0  0  0  0
    4.8650   -2.9016    0.9676 O   0  0  0  0  0  0  0  0  0  0  0  0
    5.2012   -1.4095    0.8434 C   0  0  2  0  0  0  0  0  0  0  0  0
    6.1541   -0.4476    0.2931 O   0  0  0  0  0  0  0  0  0  0  0  0
    5.9900   -1.7631    1.9911 C   0  0  2  0  0  0  0  0  0  0  0  0
    7.0086   -2.8239    0.9988 C   0  0  2  0  0  0  0  0  0  0  0  0
    7.0625   -2.6113   -0.5920 C   0  0  2  0  0  0  0  0  0  0  0  0
    5.8997   -2.1476   -1.5981 C   0  0  1  0  0  0  0  0  0  0  0  0
    5.7086   -3.4977   -2.2005 C   0  0  0  0  0  0  0  0  0  0  0  0
    5.1498   -4.2444   -0.9268 C   0  0  2  0  0  0  0  0  0  0  0  0
    3.9148   -3.2026   -1.2856 C   0  0  0  0  0  0  0  0  0  0  0  0
    4.3658   -1.7577   -1.0991 C   0  0  2  0  0  0  0  0  0  0  0  0
    3.7276   -0.8904   -2.1937 C   0  0  0  0  0  0  0  0  0  0  0  0
    3.9490   -1.0393    0.4111 C   0  0  1  0  0  0  0  0  0  0  0  0
    6.5972   -3.9162   -0.1721 C   0  0  2  0  0  0  0  0  0  0  0  0
    5.1209   -8.8168    4.7129 H   0  0  0  0  0  0  0  0  0  0  0  0
    4.9572   -7.1712    5.2845 H   0  0  0  0  0  0  0  0  0  0  0  0
    5.9412   -7.5091    3.8530 H   0  0  0  0  0  0  0  0  0  0  0  0
    3.6209   -5.4885    5.0255 H   0  0  0  0  0  0  0  0  0  0  0  0
    2.4758   -3.5709    4.2918 H   0  0  0  0  0  0  0  0  0  0  0  0
    4.6829   -0.9826    3.6000 H   0  0  0  0  0  0  0  0  0  0  0  0
    2.9429   -0.5089    2.2423 H   0  0  0  0  0  0  0  0  0  0  0  0
    1.4179   -2.0629    2.5587 H   0  0  0  0  0  0  0  0  0  0  0  0
    1.6875   -2.3386    0.8677 H   0  0  0  0  0  0  0  0  0  0  0  0
    1.5174   -4.3412    2.3524 H   0  0  0  0  0  0  0  0  0  0  0  0
    2.5352   -5.4229   -0.6712 H   0  0  0  0  0  0  0  0  0  0  0  0
    5.0626   -4.7092    1.0856 H   0  0  0  0  0  0  0  0  0  0  0  0
    5.6714    0.2888   -0.0505 H   0  0  0  0  0  0  0  0  0  0  0  0
    6.6088   -0.9465    2.3948 H   0  0  0  0  0  0  0  0  0  0  0  0
    7.9383   -3.1087    1.4508 H   0  0  0  0  0  0  0  0  0  0  0  0
    8.0582   -2.5792   -1.0056 H   0  0  0  0  0  0  0  0  0  0  0  0
    6.2973   -1.4488   -2.3242 H   0  0  0  0  0  0  0  0  0  0  0  0
    5.1741   -3.5355   -3.1583 H   0  0  0  0  0  0  0  0  0  0  0  0
    6.6853   -3.8449   -2.5388 H   0  0  0  0  0  0  0  0  0  0  0  0
    3.4495   -3.4114   -2.2522 H   0  0  0  0  0  0  0  0  0  0  0  0
    2.9494   -3.1461   -0.7996 H   0  0  0  0  0  0  0  0  0  0  0  0
    2.6477   -0.7993   -2.0389 H   0  0  0  0  0  0  0  0  0  0  0  0
    3.8760   -1.3009   -3.1952 H   0  0  0  0  0  0  0  0  0  0  0  0
    4.1668    0.1086   -2.2011 H   0  0  0  0  0  0  0  0  0  0  0  0
    3.8835    0.0432    0.3160 H   0  0  0  0  0  0  0  0  0  0  0  0
    7.3071   -4.7123   -0.2751 H   0  0  0  0  0  0  0  0  0  0  0  0
  1  2  1  0
  1 31  1  0
  1 32  1  0
  1 33  1  0
  2  3  1  0
  3 14  1  0
  3  4  2  0
  4  5  1  0
  4 34  1  0
  5 11  1  0
  5  6  1  0
  5 35  1  1
  6  7  2  0
  6  8  1  0
  8 20  1  0
  8  9  1  0
  8 36  1  1
  9 29  1  0
  9 10  1  0
  9 37  1  1
 10 11  1  0
 10 38  1  0
 10 39  1  0
 11 12  1  0
 11 40  1  1
 12 13  1  6
 12 14  1  0
 12 16  1  0
 13 41  1  0
 14 15  2  0
 16 25  1  0
 16 17  1  0
 16 42  1  1
 17 18  1  0
 18 29  1  0
 18 19  1  6
 18 20  1  0
 19 43  1  0
 20 21  1  0
 20 44  1  1
 21 30  1  0
 21 22  1  0
 21 45  1  1
 22 30  1  0
 22 23  1  0
 22 46  1  6
 23 27  1  0
 23 24  1  0
 23 47  1  6
 25 24  1  1
 24 48  1  0
 24 49  1  0
 25 26  1  0
 25 30  1  0
 26 27  1  0
 26 50  1  0
 26 51  1  0
 27 28  1  6
 27 29  1  0
 28 52  1  0
 28 53  1  0
 28 54  1  0
 29 55  1  6
 30 56  1  6
M  END
>  <i_m_ct_stereo_status>  (157) 
1

>  <s_m_source_file>  (157) 
/var/tmp/pbs.5076255.sched01/tmpstc2q6q5/48db17pvb_.sdf

>  <i_m_source_file_index>  (157) 
17

>  <i_lp_mmshare_version>  (157) 
48012

>  <i_f3d_flags>  (157) 
0

>  <s_epik_input>  (157) 
W0NIM11PQyhDMT1PKT1bQ0hdW0NASF0oW0NAQEhdMltDQEBdMShbT0hdKVtDQEhdM0M0NTYpQyg9TylbQ0BASF03W0NASF0oW0NIMl0yKVtDQEhdOFtDQEBdKE8zKShbT0hdKVtDQEBIXTdbQ0BASF05W0NAQEhdKFtDQEhdNjkpW0NAQEhdKFtDSDJdNClbQ0BdOChbQ0gyXTUpW0NIM10=

>  <s_epik_cmdline>  (157) 
J2VwaWtfcHl0aG9uJywgJy1waHQnLCAnMi4wJywgJy1waCcsICc3LjAnLCAnLXRuJywgJzgnLCAnLW1hJywgJzIwMCcsICctaW1hZScsICc8aW5maWxlLm1hZT4nLCAnLW9tYWUnLCAnPG91dGZpbGUubWFlPic=

>  <r_lp_tautomer_probability>  (157) 
1

>  <r_epik_Ionization_Penalty>  (157) 
1.87426e-05

>  <r_epik_Ionization_Penalty_Charging>  (157) 
0

>  <r_epik_Ionization_Penalty_Neutral>  (157) 
1.87426e-05

>  <r_epik_State_Penalty>  (157) 
-0

>  <r_epik_Charging_Adjusted_Penalty>  (157) 
0

>  <i_epik_Tot_Q>  (157) 
0

>  <i_epik_Tot_abs_Q>  (157) 
0

>  <s_lp_Force_Field>  (157) 
OPLS3e

>  <r_lp_Energy>  (157) 
610.418

>  <b_lp_Chiralities_Consistent>  (157) 
1

>  <s_lp_Variant>  (157) 
33:0-1

>  <s_i_glide_gridfile>  (157) 
pfpi4k_grid

>  <i_i_glide_lignum>  (157) 
17

>  <i_i_glide_rotatable_bonds>  (157) 
3

>  <r_i_docking_score>  (157) 
-3.25158

>  <r_i_glide_ligand_efficiency>  (157) 
-0.108386

>  <r_i_glide_ligand_efficiency_sa>  (157) 
-0.33678

>  <r_i_glide_ligand_efficiency_ln>  (157) 
-0.738793

>  <r_i_glide_gscore>  (157) 
-3.25158

>  <r_i_glide_lipo>  (157) 
-0.547269

>  <r_i_glide_hbond>  (157) 
0

>  <r_i_glide_metal>  (157) 
-0

>  <r_i_glide_rewards>  (157) 
-0.792874

>  <r_i_glide_evdw>  (157) 
-19.2697

>  <r_i_glide_ecoul>  (157) 
-6.31964

>  <r_i_glide_erotb>  (157) 
0

>  <r_i_glide_esite>  (157) 
0

>  <r_i_glide_emodel>  (157) 
-27.6243

>  <r_i_glide_energy>  (157) 
-25.5894

>  <r_i_glide_einternal>  (157) 
4.177

>  <r_i_glide_intrahb_reward>  (157) 
-0

>  <i_i_glide_confnum>  (157) 
2

>  <i_i_glide_posenum>  (157) 
38

>  <r_i_glide_eff_state_penalty>  (157) 
0

>  <ligand_id>  (157) 
33

>  <original_smiles>  (157) 
COC1=CC2C(=O)C3C4CC2C(O)(C1=O)C1OC2(O)C3C3C5C6CC1(CC6(C)C42)C53

>  <smiles>  (157) 
[H]OC12OC3([H])C4(O[H])C(=O)C(OC([H])([H])[H])=C([H])C5([H])C(=O)C6([H])C([H])(C([H])([H])C54[H])C1([H])C1(C([H])([H])[H])C([H])([H])C34C([H])([H])C1([H])C1([H])C([H])(C26[H])C14[H]

$$$$
33:0:1
     RDKit          3D

 56 64  0  0  1  0  0  0  0  0999 V2000
    3.0639   -8.1084    4.6165 C   0  0  0  0  0  0  0  0  0  0  0  0
    3.8503   -7.6783    3.5091 O   0  0  0  0  0  0  0  0  0  0  0  0
    3.6501   -6.3801    3.0973 C   0  0  0  0  0  0  0  0  0  0  0  0
    3.5282   -5.3529    3.9558 C   0  0  0  0  0  0  0  0  0  0  0  0
    3.2206   -3.9275    3.5556 C   0  0  1  0  0  0  0  0  0  0  0  0
    4.4899   -3.0754    3.7243 C   0  0  0  0  0  0  0  0  0  0  0  0
    5.3334   -3.3659    4.5756 O   0  0  0  0  0  0  0  0  0  0  0  0
    4.6585   -1.7984    2.8908 C   0  0  2  0  0  0  0  0  0  0  0  0
    3.4147   -1.4263    1.8718 C   0  0  2  0  0  0  0  0  0  0  0  0
    2.2119   -2.3997    1.8328 C   0  0  0  0  0  0  0  0  0  0  0  0
    2.5269   -3.8740    2.1717 C   0  0  1  0  0  0  0  0  0  0  0  0
    3.1583   -4.7775    1.0455 C   0  0  2  0  0  0  0  0  0  0  0  0
    2.1353   -5.0191    0.0797 O   0  0  0  0  0  0  0  0  0  0  0  0
    3.4407   -6.1850    1.6494 C   0  0  0  0  0  0  0  0  0  0  0  0
    3.5062   -7.1439    0.8681 O   0  0  0  0  0  0  0  0  0  0  0  0
    4.4788   -4.1141    0.4218 C   0  0  2  0  0  0  0  0  0  0  0  0
    4.9053   -2.9135    0.9724 O   0  0  0  0  0  0  0  0  0  0  0  0
    5.2441   -1.4242    0.8424 C   0  0  2  0  0  0  0  0  0  0  0  0
    6.2118   -0.4691    0.3157 O   0  0  0  0  0  0  0  0  0  0  0  0
    6.0377   -1.7818    1.9887 C   0  0  2  0  0  0  0  0  0  0  0  0
    7.0486   -2.8469    0.9931 C   0  0  2  0  0  0  0  0  0  0  0  0
    7.1088   -2.6312   -0.5967 C   0  0  2  0  0  0  0  0  0  0  0  0
    5.9452   -2.1566   -1.5961 C   0  0  1  0  0  0  0  0  0  0  0  0
    5.7419   -3.5026   -2.2011 C   0  0  0  0  0  0  0  0  0  0  0  0
    5.1799   -4.2484   -0.9278 C   0  0  2  0  0  0  0  0  0  0  0  0
    3.9529   -3.1989   -1.2834 C   0  0  0  0  0  0  0  0  0  0  0  0
    4.4163   -1.7560   -1.1003 C   0  0  2  0  0  0  0  0  0  0  0  0
    3.7830   -0.8830   -2.1883 C   0  0  0  0  0  0  0  0  0  0  0  0
    4.0058   -1.0334    0.4096 C   0  0  1  0  0  0  0  0  0  0  0  0
    6.6311   -3.9349   -0.1750 C   0  0  2  0  0  0  0  0  0  0  0  0
    3.2986   -9.1491    4.8472 H   0  0  0  0  0  0  0  0  0  0  0  0
    2.0054   -8.0480    4.3597 H   0  0  0  0  0  0  0  0  0  0  0  0
    3.2359   -7.5397    5.5307 H   0  0  0  0  0  0  0  0  0  0  0  0
    3.6782   -5.4687    5.0220 H   0  0  0  0  0  0  0  0  0  0  0  0
    2.5103   -3.5555    4.2919 H   0  0  0  0  0  0  0  0  0  0  0  0
    4.7401   -0.9862    3.5997 H   0  0  0  0  0  0  0  0  0  0  0  0
    3.0048   -0.4994    2.2413 H   0  0  0  0  0  0  0  0  0  0  0  0
    1.4662   -2.0399    2.5568 H   0  0  0  0  0  0  0  0  0  0  0  0
    1.7312   -2.3210    0.8649 H   0  0  0  0  0  0  0  0  0  0  0  0
    1.5475   -4.3185    2.3520 H   0  0  0  0  0  0  0  0  0  0  0  0
    2.5546   -5.4339   -0.6644 H   0  0  0  0  0  0  0  0  0  0  0  0
    5.0954   -4.7129    1.0840 H   0  0  0  0  0  0  0  0  0  0  0  0
    6.7690   -0.1785    1.0264 H   0  0  0  0  0  0  0  0  0  0  0  0
    6.6595   -0.9770    2.4089 H   0  0  0  0  0  0  0  0  0  0  0  0
    7.9819   -3.1423    1.4463 H   0  0  0  0  0  0  0  0  0  0  0  0
    8.1016   -2.6131   -1.0095 H   0  0  0  0  0  0  0  0  0  0  0  0
    6.3502   -1.4563   -2.3197 H   0  0  0  0  0  0  0  0  0  0  0  0
    5.2068   -3.5394   -3.1583 H   0  0  0  0  0  0  0  0  0  0  0  0
    6.7135   -3.8586   -2.5441 H   0  0  0  0  0  0  0  0  0  0  0  0
    3.4884   -3.4040   -2.2477 H   0  0  0  0  0  0  0  0  0  0  0  0
    2.9903   -3.1379   -0.7972 H   0  0  0  0  0  0  0  0  0  0  0  0
    2.7062   -0.7823   -2.0355 H   0  0  0  0  0  0  0  0  0  0  0  0
    3.9296   -1.2884   -3.1919 H   0  0  0  0  0  0  0  0  0  0  0  0
    4.2252    0.1132   -2.1840 H   0  0  0  0  0  0  0  0  0  0  0  0
    3.9638    0.0506    0.3129 H   0  0  0  0  0  0  0  0  0  0  0  0
    7.3283   -4.7415   -0.2717 H   0  0  0  0  0  0  0  0  0  0  0  0
  1  2  1  0
  1 31  1  0
  1 32  1  0
  1 33  1  0
  2  3  1  0
  3 14  1  0
  3  4  2  0
  4  5  1  0
  4 34  1  0
  5 11  1  0
  5  6  1  0
  5 35  1  1
  6  7  2  0
  6  8  1  0
  8 20  1  0
  8  9  1  0
  8 36  1  1
  9 29  1  0
  9 10  1  0
  9 37  1  1
 10 11  1  0
 10 38  1  0
 10 39  1  0
 11 12  1  0
 11 40  1  1
 12 13  1  6
 12 14  1  0
 12 16  1  0
 13 41  1  0
 14 15  2  0
 16 25  1  0
 16 17  1  0
 16 42  1  1
 17 18  1  0
 18 29  1  0
 18 19  1  6
 18 20  1  0
 19 43  1  0
 20 21  1  0
 20 44  1  1
 21 30  1  0
 21 22  1  0
 21 45  1  1
 22 30  1  0
 22 23  1  0
 22 46  1  6
 23 27  1  0
 23 24  1  0
 23 47  1  6
 25 24  1  1
 24 48  1  0
 24 49  1  0
 25 26  1  0
 25 30  1  0
 26 27  1  0
 26 50  1  0
 26 51  1  0
 27 28  1  6
 27 29  1  0
 28 52  1  0
 28 53  1  0
 28 54  1  0
 29 55  1  6
 30 56  1  6
M  END
>  <i_m_ct_stereo_status>  (158) 
1

>  <s_m_source_file>  (158) 
/var/tmp/pbs.5076255.sched01/tmpstc2q6q5/48db17pvb_.sdf

>  <i_m_source_file_index>  (158) 
17

>  <i_lp_mmshare_version>  (158) 
48012

>  <i_f3d_flags>  (158) 
0

>  <s_epik_input>  (158) 
W0NIM11PQyhDMT1PKT1bQ0hdW0NASF0oW0NAQEhdMltDQEBdMShbT0hdKVtDQEhdM0M0NTYpQyg9TylbQ0BASF03W0NASF0oW0NIMl0yKVtDQEhdOFtDQEBdKE8zKShbT0hdKVtDQEBIXTdbQ0BASF05W0NAQEhdKFtDQEhdNjkpW0NAQEhdKFtDSDJdNClbQ0BdOChbQ0gyXTUpW0NIM10=

>  <s_epik_cmdline>  (158) 
J2VwaWtfcHl0aG9uJywgJy1waHQnLCAnMi4wJywgJy1waCcsICc3LjAnLCAnLXRuJywgJzgnLCAnLW1hJywgJzIwMCcsICctaW1hZScsICc8aW5maWxlLm1hZT4nLCAnLW9tYWUnLCAnPG91dGZpbGUubWFlPic=

>  <r_lp_tautomer_probability>  (158) 
1

>  <r_epik_Ionization_Penalty>  (158) 
1.87426e-05

>  <r_epik_Ionization_Penalty_Charging>  (158) 
0

>  <r_epik_Ionization_Penalty_Neutral>  (158) 
1.87426e-05

>  <r_epik_State_Penalty>  (158) 
-0

>  <r_epik_Charging_Adjusted_Penalty>  (158) 
0

>  <i_epik_Tot_Q>  (158) 
0

>  <i_epik_Tot_abs_Q>  (158) 
0

>  <s_lp_Force_Field>  (158) 
OPLS3e

>  <r_lp_Energy>  (158) 
610.418

>  <b_lp_Chiralities_Consistent>  (158) 
1

>  <s_lp_Variant>  (158) 
33:0-1

>  <s_i_glide_gridfile>  (158) 
pfpi4k_grid

>  <i_i_glide_lignum>  (158) 
17

>  <i_i_glide_rotatable_bonds>  (158) 
3

>  <r_i_docking_score>  (158) 
-3.24207

>  <r_i_glide_ligand_efficiency>  (158) 
-0.108069

>  <r_i_glide_ligand_efficiency_sa>  (158) 
-0.335796

>  <r_i_glide_ligand_efficiency_ln>  (158) 
-0.736634

>  <r_i_glide_gscore>  (158) 
-3.24207

>  <r_i_glide_lipo>  (158) 
-0.553835

>  <r_i_glide_hbond>  (158) 
0

>  <r_i_glide_metal>  (158) 
-0

>  <r_i_glide_rewards>  (158) 
-0.799113

>  <r_i_glide_evdw>  (158) 
-19.4817

>  <r_i_glide_ecoul>  (158) 
-6.10025

>  <r_i_glide_erotb>  (158) 
0

>  <r_i_glide_esite>  (158) 
0

>  <r_i_glide_emodel>  (158) 
-28.3131

>  <r_i_glide_energy>  (158) 
-25.5819

>  <r_i_glide_einternal>  (158) 
2.62641

>  <r_i_glide_intrahb_reward>  (158) 
-0

>  <i_i_glide_confnum>  (158) 
1

>  <i_i_glide_posenum>  (158) 
8

>  <r_i_glide_eff_state_penalty>  (158) 
0

>  <ligand_id>  (158) 
33

>  <original_smiles>  (158) 
COC1=CC2C(=O)C3C4CC2C(O)(C1=O)C1OC2(O)C3C3C5C6CC1(CC6(C)C42)C53

>  <smiles>  (158) 
[H]OC12OC3([H])C4(O[H])C(=O)C(OC([H])([H])[H])=C([H])C5([H])C(=O)C6([H])C([H])(C([H])([H])C54[H])C1([H])C1(C([H])([H])[H])C([H])([H])C34C([H])([H])C1([H])C1([H])C([H])(C26[H])C14[H]

$$$$
33:0:2
     RDKit          3D

 56 64  0  0  1  0  0  0  0  0999 V2000
    2.8124   -9.4508    1.8590 C   0  0  0  0  0  0  0  0  0  0  0  0
    2.3461   -8.2573    1.2616 O   0  0  0  0  0  0  0  0  0  0  0  0
    3.0994   -7.1315    1.4673 C   0  0  0  0  0  0  0  0  0  0  0  0
    4.3869   -7.1548    1.8922 C   0  0  0  0  0  0  0  0  0  0  0  0
    5.2183   -5.9506    2.2331 C   0  0  1  0  0  0  0  0  0  0  0  0
    6.3186   -5.7274    1.1818 C   0  0  0  0  0  0  0  0  0  0  0  0
    6.8744   -6.6686    0.6283 O   0  0  0  0  0  0  0  0  0  0  0  0
    6.8744   -4.3679    0.8827 C   0  0  2  0  0  0  0  0  0  0  0  0
    6.2328   -3.1793    1.8148 C   0  0  2  0  0  0  0  0  0  0  0  0
    5.1930   -3.5398    2.8754 C   0  0  0  0  0  0  0  0  0  0  0  0
    4.3100   -4.7369    2.5243 C   0  0  1  0  0  0  0  0  0  0  0  0
    3.1227   -4.4953    1.5074 C   0  0  2  0  0  0  0  0  0  0  0  0
    2.2163   -3.7049    2.2579 O   0  0  0  0  0  0  0  0  0  0  0  0
    2.3920   -5.8643    1.2790 C   0  0  0  0  0  0  0  0  0  0  0  0
    1.2017   -5.9156    0.9320 O   0  0  0  0  0  0  0  0  0  0  0  0
    3.6380   -3.8252    0.1286 C   0  0  2  0  0  0  0  0  0  0  0  0
    5.0019   -3.6284   -0.0460 O   0  0  0  0  0  0  0  0  0  0  0  0
    6.2056   -2.6962   -0.2270 C   0  0  2  0  0  0  0  0  0  0  0  0
    6.9619   -1.8889   -1.1855 O   0  0  0  0  0  0  0  0  0  0  0  0
    6.7407   -3.9299   -0.7067 C   0  0  2  0  0  0  0  0  0  0  0  0
    5.5934   -3.9250   -2.0812 C   0  0  2  0  0  0  0  0  0  0  0  0
    4.9257   -2.5493   -2.5266 C   0  0  2  0  0  0  0  0  0  0  0  0
    4.5098   -1.3005   -1.6425 C   0  0  1  0  0  0  0  0  0  0  0  0
    3.0720   -1.6031   -1.7696 C   0  0  0  0  0  0  0  0  0  0  0  0
    2.9685   -2.9252   -0.9163 C   0  0  2  0  0  0  0  0  0  0  0  0
    3.3209   -1.8393    0.2765 C   0  0  0  0  0  0  0  0  0  0  0  0
    4.6822   -1.2349    0.0256 C   0  0  2  0  0  0  0  0  0  0  0  0
    4.6606    0.1848    0.5552 C   0  0  0  0  0  0  0  0  0  0  0  0
    5.9581   -1.9251    0.8832 C   0  0  1  0  0  0  0  0  0  0  0  0
    3.9718   -3.5593   -2.0847 C   0  0  2  0  0  0  0  0  0  0  0  0
    2.1237  -10.2637    1.6585 H   0  0  0  0  0  0  0  0  0  0  0  0
    2.8917   -9.3301    2.9487 H   0  0  0  0  0  0  0  0  0  0  0  0
    3.7839   -9.7608    1.4624 H   0  0  0  0  0  0  0  0  0  0  0  0
    4.9107   -8.0857    2.0485 H   0  0  0  0  0  0  0  0  0  0  0  0
    5.7477   -6.2211    3.1480 H   0  0  0  0  0  0  0  0  0  0  0  0
    7.9425   -4.4817    1.0909 H   0  0  0  0  0  0  0  0  0  0  0  0
    6.9803   -2.7910    2.4596 H   0  0  0  0  0  0  0  0  0  0  0  0
    5.7499   -3.7952    3.7838 H   0  0  0  0  0  0  0  0  0  0  0  0
    4.6357   -2.6446    3.1224 H   0  0  0  0  0  0  0  0  0  0  0  0
    3.8456   -4.9954    3.4767 H   0  0  0  0  0  0  0  0  0  0  0  0
    2.6685   -2.9519    2.5813 H   0  0  0  0  0  0  0  0  0  0  0  0
    3.6875   -4.8064   -0.3480 H   0  0  0  0  0  0  0  0  0  0  0  0
    7.5643   -2.4699   -1.6221 H   0  0  0  0  0  0  0  0  0  0  0  0
    7.7630   -3.9116   -1.0998 H   0  0  0  0  0  0  0  0  0  0  0  0
    5.7996   -4.6299   -2.8729 H   0  0  0  0  0  0  0  0  0  0  0  0
    4.9579   -2.3460   -3.5911 H   0  0  0  0  0  0  0  0  0  0  0  0
    4.7659   -0.3688   -2.1392 H   0  0  0  0  0  0  0  0  0  0  0  0
    2.6367   -0.6527   -1.5306 H   0  0  0  0  0  0  0  0  0  0  0  0
    2.7021   -1.7605   -2.7920 H   0  0  0  0  0  0  0  0  0  0  0  0
    2.5454   -1.0916    0.4249 H   0  0  0  0  0  0  0  0  0  0  0  0
    3.4076   -2.0391    1.3363 H   0  0  0  0  0  0  0  0  0  0  0  0
    4.5469    0.2978    1.6294 H   0  0  0  0  0  0  0  0  0  0  0  0
    3.9042    0.8004    0.0863 H   0  0  0  0  0  0  0  0  0  0  0  0
    5.6667    0.5091    0.3580 H   0  0  0  0  0  0  0  0  0  0  0  0
    6.7818   -1.2225    1.0442 H   0  0  0  0  0  0  0  0  0  0  0  0
    3.4100   -4.0288   -2.8849 H   0  0  0  0  0  0  0  0  0  0  0  0
  1  2  1  0
  1 31  1  0
  1 32  1  0
  1 33  1  0
  2  3  1  0
  3 14  1  0
  3  4  2  0
  4  5  1  0
  4 34  1  0
  5 11  1  0
  5  6  1  0
  5 35  1  1
  6  7  2  0
  6  8  1  0
  8 20  1  0
  8  9  1  0
  8 36  1  1
  9 29  1  0
  9 10  1  0
  9 37  1  1
 10 11  1  0
 10 38  1  0
 10 39  1  0
 11 12  1  0
 11 40  1  1
 12 13  1  1
 12 14  1  0
 12 16  1  0
 13 41  1  0
 14 15  2  0
 16 25  1  0
 16 17  1  0
 16 42  1  6
 17 18  1  0
 18 29  1  0
 18 19  1  6
 18 20  1  0
 19 43  1  0
 20 21  1  0
 20 44  1  6
 21 30  1  0
 21 22  1  0
 21 45  1  6
 22 30  1  0
 22 23  1  0
 22 46  1  6
 23 27  1  0
 23 24  1  0
 23 47  1  6
 25 24  1  1
 24 48  1  0
 24 49  1  0
 25 26  1  0
 25 30  1  0
 26 27  1  0
 26 50  1  0
 26 51  1  0
 27 28  1  1
 27 29  1  0
 28 52  1  0
 28 53  1  0
 28 54  1  0
 29 55  1  1
 30 56  1  6
M  END
>  <i_m_ct_stereo_status>  (159) 
1

>  <s_m_source_file>  (159) 
/var/tmp/pbs.5076255.sched01/tmpstc2q6q5/48db17pvb_.sdf

>  <i_m_source_file_index>  (159) 
17

>  <i_lp_mmshare_version>  (159) 
48012

>  <i_f3d_flags>  (159) 
0

>  <s_epik_input>  (159) 
W0NIM11PQyhDMT1PKT1bQ0hdW0NASF0oW0NAQEhdMltDQEBdMShbT0hdKVtDQEhdM0M0NTYpQyg9TylbQ0BASF03W0NASF0oW0NIMl0yKVtDQEhdOFtDQEBdKE8zKShbT0hdKVtDQEBIXTdbQ0BASF05W0NAQEhdKFtDQEhdNjkpW0NAQEhdKFtDSDJdNClbQ0BdOChbQ0gyXTUpW0NIM10=

>  <s_epik_cmdline>  (159) 
J2VwaWtfcHl0aG9uJywgJy1waHQnLCAnMi4wJywgJy1waCcsICc3LjAnLCAnLXRuJywgJzgnLCAnLW1hJywgJzIwMCcsICctaW1hZScsICc8aW5maWxlLm1hZT4nLCAnLW9tYWUnLCAnPG91dGZpbGUubWFlPic=

>  <r_lp_tautomer_probability>  (159) 
1

>  <r_epik_Ionization_Penalty>  (159) 
1.87426e-05

>  <r_epik_Ionization_Penalty_Charging>  (159) 
0

>  <r_epik_Ionization_Penalty_Neutral>  (159) 
1.87426e-05

>  <r_epik_State_Penalty>  (159) 
-0

>  <r_epik_Charging_Adjusted_Penalty>  (159) 
0

>  <i_epik_Tot_Q>  (159) 
0

>  <i_epik_Tot_abs_Q>  (159) 
0

>  <s_lp_Force_Field>  (159) 
OPLS3e

>  <r_lp_Energy>  (159) 
610.418

>  <b_lp_Chiralities_Consistent>  (159) 
1

>  <s_lp_Variant>  (159) 
33:0-1

>  <s_i_glide_gridfile>  (159) 
pfpi4k_grid

>  <i_i_glide_lignum>  (159) 
17

>  <i_i_glide_rotatable_bonds>  (159) 
3

>  <r_i_docking_score>  (159) 
-2.72451

>  <r_i_glide_ligand_efficiency>  (159) 
-0.090817

>  <r_i_glide_ligand_efficiency_sa>  (159) 
-0.282189

>  <r_i_glide_ligand_efficiency_ln>  (159) 
-0.619038

>  <r_i_glide_gscore>  (159) 
-2.72451

>  <r_i_glide_lipo>  (159) 
-0.76427

>  <r_i_glide_hbond>  (159) 
-0.16

>  <r_i_glide_metal>  (159) 
-0

>  <r_i_glide_rewards>  (159) 
-0.747012

>  <r_i_glide_evdw>  (159) 
-0.0136049

>  <r_i_glide_ecoul>  (159) 
-6.8606

>  <r_i_glide_erotb>  (159) 
0

>  <r_i_glide_esite>  (159) 
-0.0234572

>  <r_i_glide_emodel>  (159) 
-7.56765

>  <r_i_glide_energy>  (159) 
-6.8742

>  <r_i_glide_einternal>  (159) 
1.96626

>  <r_i_glide_intrahb_reward>  (159) 
-0

>  <i_i_glide_confnum>  (159) 
2

>  <i_i_glide_posenum>  (159) 
5

>  <r_i_glide_eff_state_penalty>  (159) 
0

>  <ligand_id>  (159) 
33

>  <original_smiles>  (159) 
COC1=CC2C(=O)C3C4CC2C(O)(C1=O)C1OC2(O)C3C3C5C6CC1(CC6(C)C42)C53

>  <smiles>  (159) 
[H]OC12OC3([H])C4(O[H])C(=O)C(OC([H])([H])[H])=C([H])C5([H])C(=O)C6([H])C([H])(C([H])([H])C54[H])C1([H])C1(C([H])([H])[H])C([H])([H])C34C([H])([H])C1([H])C1([H])C([H])(C26[H])C14[H]

$$$$
34:0:0
     RDKit          3D

 53 57  0  0  1  0  0  0  0  0999 V2000
    2.7958   -6.5839    3.0208 C   0  0  0  0  0  0  0  0  0  0  0  0
    3.8974   -5.4894    2.8886 C   0  0  2  0  0  0  0  0  0  0  0  0
    4.6555   -5.3224    4.2308 C   0  0  0  0  0  0  0  0  0  0  0  0
    4.1861   -3.9435    4.7863 C   0  0  1  0  0  0  0  0  0  0  0  0
    4.8714   -2.7914    4.0465 C   0  0  0  0  0  0  0  0  0  0  0  0
    4.3354   -2.9222    2.5979 C   0  0  2  0  0  0  0  0  0  0  0  0
    3.2937   -4.0658    2.7948 C   0  0  1  0  0  0  0  0  0  0  0  0
    2.2182   -3.9835    1.9301 O   0  0  0  0  0  0  0  0  0  0  0  0
    2.7983   -3.7927    4.2136 C   0  0  0  0  0  0  0  0  0  0  0  0
    5.4494   -2.9905    1.4886 C   0  0  2  0  0  0  0  0  0  0  0  0
    6.5516   -3.6887    2.0492 O   0  0  0  0  0  0  0  0  0  0  0  0
    6.0719   -1.5797    1.2593 C   0  0  0  0  0  0  0  0  0  0  0  0
    5.7656   -0.9263   -0.0570 C   0  0  0  0  0  0  0  0  0  0  0  0
    5.0754   -1.4607   -1.0526 C   0  0  0  0  0  0  0  0  0  0  0  0
    4.8644   -0.6904   -2.2901 C   0  0  0  0  0  0  0  0  0  0  0  0
    4.3395   -1.1876   -3.4090 C   0  0  0  0  0  0  0  0  0  0  0  0
    4.0383   -2.6132   -3.4675 C   0  0  0  0  0  0  0  0  0  0  0  0
    3.3801   -3.1368   -4.3364 O   0  0  0  0  0  0  0  0  0  0  0  0
    4.5455   -3.4835   -2.3312 C   0  0  0  0  0  0  0  0  0  0  0  0
    4.4638   -2.8502   -0.9356 C   0  0  2  0  0  0  0  0  0  0  0  0
    3.0048   -2.6254   -0.6010 C   0  0  0  0  0  0  0  0  0  0  0  0
    5.1527   -3.7354    0.1541 C   0  0  1  0  0  0  0  0  0  0  0  0
    6.3602   -3.9207   -0.3942 F   0  0  0  0  0  0  0  0  0  0  0  0
    4.4848   -5.1440    0.3668 C   0  0  1  0  0  0  0  0  0  0  0  0
    4.9520   -5.9649   -0.6696 O   0  0  0  0  0  0  0  0  0  0  0  0
    4.7828   -5.9075    1.6826 C   0  0  0  0  0  0  0  0  0  0  0  0
    3.2379   -7.5676    3.1831 H   0  0  0  0  0  0  0  0  0  0  0  0
    2.1928   -6.6523    2.1138 H   0  0  0  0  0  0  0  0  0  0  0  0
    2.1057   -6.4328    3.8472 H   0  0  0  0  0  0  0  0  0  0  0  0
    4.3892   -6.1243    4.9212 H   0  0  0  0  0  0  0  0  0  0  0  0
    5.7399   -5.3553    4.1169 H   0  0  0  0  0  0  0  0  0  0  0  0
    4.2476   -3.8581    5.8722 H   0  0  0  0  0  0  0  0  0  0  0  0
    4.5595   -1.8371    4.4639 H   0  0  0  0  0  0  0  0  0  0  0  0
    5.9480   -2.8389    4.1697 H   0  0  0  0  0  0  0  0  0  0  0  0
    3.7617   -2.0176    2.3973 H   0  0  0  0  0  0  0  0  0  0  0  0
    1.8633   -3.1084    2.0071 H   0  0  0  0  0  0  0  0  0  0  0  0
    2.0851   -4.5044    4.6226 H   0  0  0  0  0  0  0  0  0  0  0  0
    2.3834   -2.7922    4.3546 H   0  0  0  0  0  0  0  0  0  0  0  0
    6.2720   -4.5781    2.1924 H   0  0  0  0  0  0  0  0  0  0  0  0
    5.7406   -0.8953    2.0335 H   0  0  0  0  0  0  0  0  0  0  0  0
    7.1560   -1.6060    1.2991 H   0  0  0  0  0  0  0  0  0  0  0  0
    6.1850    0.0597   -0.1596 H   0  0  0  0  0  0  0  0  0  0  0  0
    5.1761    0.3389   -2.3273 H   0  0  0  0  0  0  0  0  0  0  0  0
    4.2288   -0.6072   -4.3171 H   0  0  0  0  0  0  0  0  0  0  0  0
    3.8099   -4.2603   -2.3248 H   0  0  0  0  0  0  0  0  0  0  0  0
    5.5246   -3.8899   -2.5936 H   0  0  0  0  0  0  0  0  0  0  0  0
    2.3678   -3.5094   -0.6046 H   0  0  0  0  0  0  0  0  0  0  0  0
    2.6028   -1.9828   -1.3731 H   0  0  0  0  0  0  0  0  0  0  0  0
    2.8722   -2.0732    0.3271 H   0  0  0  0  0  0  0  0  0  0  0  0
    3.4061   -5.1484    0.2166 H   0  0  0  0  0  0  0  0  0  0  0  0
    4.4024   -5.8652   -1.4125 H   0  0  0  0  0  0  0  0  0  0  0  0
    5.8405   -5.9466    1.9142 H   0  0  0  0  0  0  0  0  0  0  0  0
    4.5849   -6.9633    1.4892 H   0  0  0  0  0  0  0  0  0  0  0  0
  2  1  1  1
  1 27  1  0
  1 28  1  0
  1 29  1  0
  2  7  1  0
  2 26  1  0
  2  3  1  0
  3  4  1  0
  3 30  1  0
  3 31  1  0
  4  9  1  0
  4  5  1  0
  4 32  1  1
  5  6  1  0
  5 33  1  0
  5 34  1  0
  6  7  1  0
  6 10  1  0
  6 35  1  6
  7  8  1  6
  7  9  1  0
  8 36  1  0
  9 37  1  0
  9 38  1  0
 10 22  1  0
 10 11  1  1
 10 12  1  0
 11 39  1  0
 12 13  1  0
 12 40  1  0
 12 41  1  0
 13 14  2  0
 13 42  1  0
 14 20  1  0
 14 15  1  0
 15 16  2  0
 15 43  1  0
 16 17  1  0
 16 44  1  0
 17 18  2  0
 17 19  1  0
 19 20  1  0
 19 45  1  0
 19 46  1  0
 20 21  1  1
 20 22  1  0
 21 47  1  0
 21 48  1  0
 21 49  1  0
 22 23  1  6
 22 24  1  0
 24 25  1  0
 24 26  1  0
 24 50  1  6
 25 51  1  0
 26 52  1  0
 26 53  1  0
M  END
>  <i_m_ct_stereo_status>  (160) 
1

>  <s_m_source_file>  (160) 
/var/tmp/pbs.5076255.sched01/tmpstc2q6q5/48db17pvb_.sdf

>  <i_m_source_file_index>  (160) 
18

>  <i_lp_mmshare_version>  (160) 
48012

>  <i_f3d_flags>  (160) 
0

>  <s_epik_input>  (160) 
W0NIM11bQ0BAXTEyW0NAXTMoW09IXSlbQ0BASF0oW0NIMl1bQ0BIXShbQ0gyXTEpW0NIMl0zKVtDQEBdNChbT0hdKVtDQEBdKEYpKFtDQEBIXShbT0hdKVtDSDJdMilbQ0BAXTUoW0NIM10pQyg9W0NIXVtDSDJdNClbQ0hdPVtDSF1DKD1PKVtDSDJdNQ==

>  <s_epik_cmdline>  (160) 
J2VwaWtfcHl0aG9uJywgJy1waHQnLCAnMi4wJywgJy1waCcsICc3LjAnLCAnLXRuJywgJzgnLCAnLW1hJywgJzIwMCcsICctaW1hZScsICc8aW5maWxlLm1hZT4nLCAnLW9tYWUnLCAnPG91dGZpbGUubWFlPic=

>  <r_lp_tautomer_probability>  (160) 
1

>  <r_epik_Ionization_Penalty>  (160) 
2.23869e-06

>  <r_epik_Ionization_Penalty_Charging>  (160) 
0

>  <r_epik_Ionization_Penalty_Neutral>  (160) 
2.23869e-06

>  <r_epik_State_Penalty>  (160) 
-0

>  <r_epik_Charging_Adjusted_Penalty>  (160) 
0

>  <i_epik_Tot_Q>  (160) 
0

>  <i_epik_Tot_abs_Q>  (160) 
0

>  <s_lp_Force_Field>  (160) 
OPLS3e

>  <r_lp_Energy>  (160) 
74.4965

>  <b_lp_Chiralities_Consistent>  (160) 
1

>  <s_lp_Variant>  (160) 
34:0-1

>  <s_i_glide_gridfile>  (160) 
pfpi4k_grid

>  <i_i_glide_lignum>  (160) 
18

>  <i_i_glide_rotatable_bonds>  (160) 
3

>  <r_i_docking_score>  (160) 
-3.9904

>  <r_i_glide_ligand_efficiency>  (160) 
-0.153477

>  <r_i_glide_ligand_efficiency_sa>  (160) 
-0.454674

>  <r_i_glide_ligand_efficiency_ln>  (160) 
-0.937132

>  <r_i_glide_gscore>  (160) 
-3.9904

>  <r_i_glide_lipo>  (160) 
-0.563317

>  <r_i_glide_hbond>  (160) 
-0.5032

>  <r_i_glide_metal>  (160) 
-0

>  <r_i_glide_rewards>  (160) 
-1.2791

>  <r_i_glide_evdw>  (160) 
-13.0943

>  <r_i_glide_ecoul>  (160) 
-6.60041

>  <r_i_glide_erotb>  (160) 
0

>  <r_i_glide_esite>  (160) 
0

>  <r_i_glide_emodel>  (160) 
-26.8148

>  <r_i_glide_energy>  (160) 
-19.6947

>  <r_i_glide_einternal>  (160) 
0.770524

>  <r_i_glide_intrahb_reward>  (160) 
-0

>  <i_i_glide_confnum>  (160) 
1

>  <i_i_glide_posenum>  (160) 
17

>  <r_i_glide_eff_state_penalty>  (160) 
0

>  <ligand_id>  (160) 
34

>  <original_smiles>  (160) 
CC12CC3CC(C1(O)C3)C1(O)CC=C3C=CC(=O)CC3(C)C1(F)C(O)C2

>  <smiles>  (160) 
[H]OC1([H])C([H])([H])C2(C([H])([H])[H])C([H])([H])C3([H])C([H])([H])C([H])(C4(O[H])C([H])([H])C([H])=C5C([H])=C([H])C(=O)C([H])([H])C5(C([H])([H])[H])C14F)C2(O[H])C3([H])[H]

$$$$
34:0:1
     RDKit          3D

 53 57  0  0  1  0  0  0  0  0999 V2000
    3.1548   -7.0200    3.4020 C   0  0  0  0  0  0  0  0  0  0  0  0
    3.6437   -5.5404    3.3575 C   0  0  2  0  0  0  0  0  0  0  0  0
    3.7680   -4.9781    4.8064 C   0  0  0  0  0  0  0  0  0  0  0  0
    2.6013   -3.9566    4.9418 C   0  0  1  0  0  0  0  0  0  0  0  0
    2.9199   -2.6436    4.2172 C   0  0  0  0  0  0  0  0  0  0  0  0
    3.0061   -3.0808    2.7183 C   0  0  2  0  0  0  0  0  0  0  0  0
    2.5397   -4.5808    2.8227 C   0  0  1  0  0  0  0  0  0  0  0  0
    1.8216   -5.0818    1.7169 O   0  0  0  0  0  0  0  0  0  0  0  0
    1.5594   -4.5022    3.9957 C   0  0  0  0  0  0  0  0  0  0  0  0
    4.3548   -2.6550    2.0037 C   0  0  2  0  0  0  0  0  0  0  0  0
    5.3863   -2.6817    2.9828 O   0  0  0  0  0  0  0  0  0  0  0  0
    4.3198   -1.1327    1.6768 C   0  0  0  0  0  0  0  0  0  0  0  0
    4.2406   -0.7654    0.2152 C   0  0  0  0  0  0  0  0  0  0  0  0
    4.2132   -1.6167   -0.8225 C   0  0  0  0  0  0  0  0  0  0  0  0
    4.1634   -1.0627   -2.1721 C   0  0  0  0  0  0  0  0  0  0  0  0
    4.3138   -1.8095   -3.2815 C   0  0  0  0  0  0  0  0  0  0  0  0
    4.6151   -3.2411   -3.1842 C   0  0  0  0  0  0  0  0  0  0  0  0
    4.6121   -3.9834   -4.1663 O   0  0  0  0  0  0  0  0  0  0  0  0
    4.9913   -3.7923   -1.7999 C   0  0  0  0  0  0  0  0  0  0  0  0
    4.1980   -3.1384   -0.6198 C   0  0  2  0  0  0  0  0  0  0  0  0
    2.7157   -3.5675   -0.7375 C   0  0  0  0  0  0  0  0  0  0  0  0
    4.8470   -3.5263    0.7800 C   0  0  1  0  0  0  0  0  0  0  0  0
    6.1252   -3.1453    0.6361 F   0  0  0  0  0  0  0  0  0  0  0  0
    4.8883   -5.0773    1.0731 C   0  0  1  0  0  0  0  0  0  0  0  0
    5.9856   -5.6758    0.4146 O   0  0  0  0  0  0  0  0  0  0  0  0
    4.9843   -5.5409    2.5516 C   0  0  0  0  0  0  0  0  0  0  0  0
    3.8980   -7.6695    3.8668 H   0  0  0  0  0  0  0  0  0  0  0  0
    2.9743   -7.4081    2.3981 H   0  0  0  0  0  0  0  0  0  0  0  0
    2.2381   -7.1730    3.9669 H   0  0  0  0  0  0  0  0  0  0  0  0
    3.6617   -5.7737    5.5463 H   0  0  0  0  0  0  0  0  0  0  0  0
    4.7249   -4.4922    5.0041 H   0  0  0  0  0  0  0  0  0  0  0  0
    2.2518   -3.8138    5.9648 H   0  0  0  0  0  0  0  0  0  0  0  0
    2.0977   -1.9393    4.3458 H   0  0  0  0  0  0  0  0  0  0  0  0
    3.7914   -2.1533    4.6493 H   0  0  0  0  0  0  0  0  0  0  0  0
    2.2018   -2.5565    2.2011 H   0  0  0  0  0  0  0  0  0  0  0  0
    2.4271   -5.1872    0.9987 H   0  0  0  0  0  0  0  0  0  0  0  0
    1.1333   -5.4466    4.3239 H   0  0  0  0  0  0  0  0  0  0  0  0
    0.7298   -3.8159    3.8191 H   0  0  0  0  0  0  0  0  0  0  0  0
    5.4943   -3.5744    3.2737 H   0  0  0  0  0  0  0  0  0  0  0  0
    3.4908   -0.6452    2.1900 H   0  0  0  0  0  0  0  0  0  0  0  0
    5.2137   -0.6206    2.0375 H   0  0  0  0  0  0  0  0  0  0  0  0
    4.2234    0.2961    0.0307 H   0  0  0  0  0  0  0  0  0  0  0  0
    3.9801   -0.0080   -2.3123 H   0  0  0  0  0  0  0  0  0  0  0  0
    4.2567   -1.3606   -4.2611 H   0  0  0  0  0  0  0  0  0  0  0  0
    4.8364   -4.8694   -1.8199 H   0  0  0  0  0  0  0  0  0  0  0  0
    6.0636   -3.6301   -1.6818 H   0  0  0  0  0  0  0  0  0  0  0  0
    2.5841   -4.6481   -0.7209 H   0  0  0  0  0  0  0  0  0  0  0  0
    2.2663   -3.2319   -1.6724 H   0  0  0  0  0  0  0  0  0  0  0  0
    2.1099   -3.1184    0.0458 H   0  0  0  0  0  0  0  0  0  0  0  0
    4.0298   -5.5742    0.6328 H   0  0  0  0  0  0  0  0  0  0  0  0
    5.8257   -5.6433   -0.5176 H   0  0  0  0  0  0  0  0  0  0  0  0
    5.8001   -5.0498    3.0767 H   0  0  0  0  0  0  0  0  0  0  0  0
    5.3515   -6.5696    2.5361 H   0  0  0  0  0  0  0  0  0  0  0  0
  2  1  1  1
  1 27  1  0
  1 28  1  0
  1 29  1  0
  2  7  1  0
  2 26  1  0
  2  3  1  0
  3  4  1  0
  3 30  1  0
  3 31  1  0
  4  9  1  0
  4  5  1  0
  4 32  1  1
  5  6  1  0
  5 33  1  0
  5 34  1  0
  6  7  1  0
  6 10  1  0
  6 35  1  6
  7  8  1  6
  7  9  1  0
  8 36  1  0
  9 37  1  0
  9 38  1  0
 10 22  1  0
 10 11  1  1
 10 12  1  0
 11 39  1  0
 12 13  1  0
 12 40  1  0
 12 41  1  0
 13 14  2  0
 13 42  1  0
 14 20  1  0
 14 15  1  0
 15 16  2  0
 15 43  1  0
 16 17  1  0
 16 44  1  0
 17 18  2  0
 17 19  1  0
 19 20  1  0
 19 45  1  0
 19 46  1  0
 20 21  1  1
 20 22  1  0
 21 47  1  0
 21 48  1  0
 21 49  1  0
 22 23  1  6
 22 24  1  0
 24 25  1  0
 24 26  1  0
 24 50  1  6
 25 51  1  0
 26 52  1  0
 26 53  1  0
M  END
>  <i_m_ct_stereo_status>  (161) 
1

>  <s_m_source_file>  (161) 
/var/tmp/pbs.5076255.sched01/tmpstc2q6q5/48db17pvb_.sdf

>  <i_m_source_file_index>  (161) 
18

>  <i_lp_mmshare_version>  (161) 
48012

>  <i_f3d_flags>  (161) 
0

>  <s_epik_input>  (161) 
W0NIM11bQ0BAXTEyW0NAXTMoW09IXSlbQ0BASF0oW0NIMl1bQ0BIXShbQ0gyXTEpW0NIMl0zKVtDQEBdNChbT0hdKVtDQEBdKEYpKFtDQEBIXShbT0hdKVtDSDJdMilbQ0BAXTUoW0NIM10pQyg9W0NIXVtDSDJdNClbQ0hdPVtDSF1DKD1PKVtDSDJdNQ==

>  <s_epik_cmdline>  (161) 
J2VwaWtfcHl0aG9uJywgJy1waHQnLCAnMi4wJywgJy1waCcsICc3LjAnLCAnLXRuJywgJzgnLCAnLW1hJywgJzIwMCcsICctaW1hZScsICc8aW5maWxlLm1hZT4nLCAnLW9tYWUnLCAnPG91dGZpbGUubWFlPic=

>  <r_lp_tautomer_probability>  (161) 
1

>  <r_epik_Ionization_Penalty>  (161) 
2.23869e-06

>  <r_epik_Ionization_Penalty_Charging>  (161) 
0

>  <r_epik_Ionization_Penalty_Neutral>  (161) 
2.23869e-06

>  <r_epik_State_Penalty>  (161) 
-0

>  <r_epik_Charging_Adjusted_Penalty>  (161) 
0

>  <i_epik_Tot_Q>  (161) 
0

>  <i_epik_Tot_abs_Q>  (161) 
0

>  <s_lp_Force_Field>  (161) 
OPLS3e

>  <r_lp_Energy>  (161) 
74.4965

>  <b_lp_Chiralities_Consistent>  (161) 
1

>  <s_lp_Variant>  (161) 
34:0-1

>  <s_i_glide_gridfile>  (161) 
pfpi4k_grid

>  <i_i_glide_lignum>  (161) 
18

>  <i_i_glide_rotatable_bonds>  (161) 
3

>  <r_i_docking_score>  (161) 
-3.47008

>  <r_i_glide_ligand_efficiency>  (161) 
-0.133465

>  <r_i_glide_ligand_efficiency_sa>  (161) 
-0.395389

>  <r_i_glide_ligand_efficiency_ln>  (161) 
-0.814938

>  <r_i_glide_gscore>  (161) 
-3.47008

>  <r_i_glide_lipo>  (161) 
-0.289897

>  <r_i_glide_hbond>  (161) 
-0.0397187

>  <r_i_glide_metal>  (161) 
-0

>  <r_i_glide_rewards>  (161) 
-1.25879

>  <r_i_glide_evdw>  (161) 
-27.3737

>  <r_i_glide_ecoul>  (161) 
-3.41996

>  <r_i_glide_erotb>  (161) 
0

>  <r_i_glide_esite>  (161) 
0

>  <r_i_glide_emodel>  (161) 
-37.3378

>  <r_i_glide_energy>  (161) 
-30.7937

>  <r_i_glide_einternal>  (161) 
0.425811

>  <r_i_glide_intrahb_reward>  (161) 
-0

>  <i_i_glide_confnum>  (161) 
2

>  <i_i_glide_posenum>  (161) 
37

>  <r_i_glide_eff_state_penalty>  (161) 
0

>  <ligand_id>  (161) 
34

>  <original_smiles>  (161) 
CC12CC3CC(C1(O)C3)C1(O)CC=C3C=CC(=O)CC3(C)C1(F)C(O)C2

>  <smiles>  (161) 
[H]OC1([H])C([H])([H])C2(C([H])([H])[H])C([H])([H])C3([H])C([H])([H])C([H])(C4(O[H])C([H])([H])C([H])=C5C([H])=C([H])C(=O)C([H])([H])C5(C([H])([H])[H])C14F)C2(O[H])C3([H])[H]

$$$$
34:0:2
     RDKit          3D

 53 57  0  0  1  0  0  0  0  0999 V2000
    3.1382   -7.0165    3.4578 C   0  0  0  0  0  0  0  0  0  0  0  0
    3.6211   -5.5350    3.4228 C   0  0  2  0  0  0  0  0  0  0  0  0
    3.7184   -4.9739    4.8758 C   0  0  0  0  0  0  0  0  0  0  0  0
    2.5457   -3.9587    4.9930 C   0  0  1  0  0  0  0  0  0  0  0  0
    2.8716   -2.6430    4.2758 C   0  0  0  0  0  0  0  0  0  0  0  0
    2.9822   -3.0778    2.7783 C   0  0  2  0  0  0  0  0  0  0  0  0
    2.5223   -4.5791    2.8720 C   0  0  1  0  0  0  0  0  0  0  0  0
    1.8262   -5.0814    1.7514 O   0  0  0  0  0  0  0  0  0  0  0  0
    1.5218   -4.5068    4.0288 C   0  0  0  0  0  0  0  0  0  0  0  0
    4.3387   -2.6435    2.0871 C   0  0  2  0  0  0  0  0  0  0  0  0
    5.3529   -2.6659    3.0846 O   0  0  0  0  0  0  0  0  0  0  0  0
    4.3014   -1.1192    1.7615 C   0  0  0  0  0  0  0  0  0  0  0  0
    4.2400   -0.7494    0.2977 C   0  0  0  0  0  0  0  0  0  0  0  0
    4.2368   -1.6019   -0.7368 C   0  0  0  0  0  0  0  0  0  0  0  0
    4.2119   -1.0502   -2.0868 C   0  0  0  0  0  0  0  0  0  0  0  0
    4.3824   -1.7905   -3.1945 C   0  0  0  0  0  0  0  0  0  0  0  0
    4.6909   -3.2198   -3.0978 C   0  0  0  0  0  0  0  0  0  0  0  0
    4.7130   -3.9550   -4.0842 O   0  0  0  0  0  0  0  0  0  0  0  0
    5.0407   -3.7734   -1.7068 C   0  0  0  0  0  0  0  0  0  0  0  0
    4.2277   -3.1233   -0.5385 C   0  0  2  0  0  0  0  0  0  0  0  0
    2.7490   -3.5583   -0.6867 C   0  0  0  0  0  0  0  0  0  0  0  0
    4.8596   -3.5108    0.8707 C   0  0  1  0  0  0  0  0  0  0  0  0
    6.1377   -3.1194    0.7523 F   0  0  0  0  0  0  0  0  0  0  0  0
    4.9068   -5.0644    1.1567 C   0  0  1  0  0  0  0  0  0  0  0  0
    6.0155   -5.6518    0.4989 O   0  0  0  0  0  0  0  0  0  0  0  0
    4.9759   -5.5294    2.6394 C   0  0  0  0  0  0  0  0  0  0  0  0
    3.8750   -7.6628    3.9365 H   0  0  0  0  0  0  0  0  0  0  0  0
    2.9766   -7.4049    2.4513 H   0  0  0  0  0  0  0  0  0  0  0  0
    2.2132   -7.1732    4.0072 H   0  0  0  0  0  0  0  0  0  0  0  0
    3.6033   -5.7723    5.6123 H   0  0  0  0  0  0  0  0  0  0  0  0
    4.6704   -4.4849    5.0899 H   0  0  0  0  0  0  0  0  0  0  0  0
    2.1799   -3.8184    6.0106 H   0  0  0  0  0  0  0  0  0  0  0  0
    2.0451   -1.9408    4.3931 H   0  0  0  0  0  0  0  0  0  0  0  0
    3.7334   -2.1501    4.7239 H   0  0  0  0  0  0  0  0  0  0  0  0
    2.1850   -2.5562    2.2491 H   0  0  0  0  0  0  0  0  0  0  0  0
    2.4428   -5.1788    1.0436 H   0  0  0  0  0  0  0  0  0  0  0  0
    1.0936   -5.4526    4.3489 H   0  0  0  0  0  0  0  0  0  0  0  0
    0.6927   -3.8232    3.8399 H   0  0  0  0  0  0  0  0  0  0  0  0
    5.4751   -3.5587    3.3641 H   0  0  0  0  0  0  0  0  0  0  0  0
    3.4616   -0.6377    2.2640 H   0  0  0  0  0  0  0  0  0  0  0  0
    5.1879   -0.6029    2.1373 H   0  0  0  0  0  0  0  0  0  0  0  0
    4.2185    0.3124    0.1066 H   0  0  0  0  0  0  0  0  0  0  0  0
    4.0280    0.0044   -2.2271 H   0  0  0  0  0  0  0  0  0  0  0  0
    4.3408   -1.3392   -4.1736 H   0  0  0  0  0  0  0  0  0  0  0  0
    4.8978   -4.8523   -1.7209 H   0  0  0  0  0  0  0  0  0  0  0  0
    6.1087   -3.6068   -1.5643 H   0  0  0  0  0  0  0  0  0  0  0  0
    2.6234   -4.6391   -0.6817 H   0  0  0  0  0  0  0  0  0  0  0  0
    2.3159   -3.2190   -1.6285 H   0  0  0  0  0  0  0  0  0  0  0  0
    2.1295   -3.1154    0.0882 H   0  0  0  0  0  0  0  0  0  0  0  0
    4.0558   -5.5587    0.7000 H   0  0  0  0  0  0  0  0  0  0  0  0
    5.9630   -6.5913    0.5954 H   0  0  0  0  0  0  0  0  0  0  0  0
    5.7765   -5.0318    3.1790 H   0  0  0  0  0  0  0  0  0  0  0  0
    5.3484   -6.5553    2.6373 H   0  0  0  0  0  0  0  0  0  0  0  0
  2  1  1  1
  1 27  1  0
  1 28  1  0
  1 29  1  0
  2  7  1  0
  2 26  1  0
  2  3  1  0
  3  4  1  0
  3 30  1  0
  3 31  1  0
  4  9  1  0
  4  5  1  0
  4 32  1  1
  5  6  1  0
  5 33  1  0
  5 34  1  0
  6  7  1  0
  6 10  1  0
  6 35  1  6
  7  8  1  6
  7  9  1  0
  8 36  1  0
  9 37  1  0
  9 38  1  0
 10 22  1  0
 10 11  1  1
 10 12  1  0
 11 39  1  0
 12 13  1  0
 12 40  1  0
 12 41  1  0
 13 14  2  0
 13 42  1  0
 14 20  1  0
 14 15  1  0
 15 16  2  0
 15 43  1  0
 16 17  1  0
 16 44  1  0
 17 18  2  0
 17 19  1  0
 19 20  1  0
 19 45  1  0
 19 46  1  0
 20 21  1  1
 20 22  1  0
 21 47  1  0
 21 48  1  0
 21 49  1  0
 22 23  1  6
 22 24  1  0
 24 25  1  0
 24 26  1  0
 24 50  1  6
 25 51  1  0
 26 52  1  0
 26 53  1  0
M  END
>  <i_m_ct_stereo_status>  (162) 
1

>  <s_m_source_file>  (162) 
/var/tmp/pbs.5076255.sched01/tmpstc2q6q5/48db17pvb_.sdf

>  <i_m_source_file_index>  (162) 
18

>  <i_lp_mmshare_version>  (162) 
48012

>  <i_f3d_flags>  (162) 
0

>  <s_epik_input>  (162) 
W0NIM11bQ0BAXTEyW0NAXTMoW09IXSlbQ0BASF0oW0NIMl1bQ0BIXShbQ0gyXTEpW0NIMl0zKVtDQEBdNChbT0hdKVtDQEBdKEYpKFtDQEBIXShbT0hdKVtDSDJdMilbQ0BAXTUoW0NIM10pQyg9W0NIXVtDSDJdNClbQ0hdPVtDSF1DKD1PKVtDSDJdNQ==

>  <s_epik_cmdline>  (162) 
J2VwaWtfcHl0aG9uJywgJy1waHQnLCAnMi4wJywgJy1waCcsICc3LjAnLCAnLXRuJywgJzgnLCAnLW1hJywgJzIwMCcsICctaW1hZScsICc8aW5maWxlLm1hZT4nLCAnLW9tYWUnLCAnPG91dGZpbGUubWFlPic=

>  <r_lp_tautomer_probability>  (162) 
1

>  <r_epik_Ionization_Penalty>  (162) 
2.23869e-06

>  <r_epik_Ionization_Penalty_Charging>  (162) 
0

>  <r_epik_Ionization_Penalty_Neutral>  (162) 
2.23869e-06

>  <r_epik_State_Penalty>  (162) 
-0

>  <r_epik_Charging_Adjusted_Penalty>  (162) 
0

>  <i_epik_Tot_Q>  (162) 
0

>  <i_epik_Tot_abs_Q>  (162) 
0

>  <s_lp_Force_Field>  (162) 
OPLS3e

>  <r_lp_Energy>  (162) 
74.4965

>  <b_lp_Chiralities_Consistent>  (162) 
1

>  <s_lp_Variant>  (162) 
34:0-1

>  <s_i_glide_gridfile>  (162) 
pfpi4k_grid

>  <i_i_glide_lignum>  (162) 
18

>  <i_i_glide_rotatable_bonds>  (162) 
3

>  <r_i_docking_score>  (162) 
-3.30915

>  <r_i_glide_ligand_efficiency>  (162) 
-0.127275

>  <r_i_glide_ligand_efficiency_sa>  (162) 
-0.377052

>  <r_i_glide_ligand_efficiency_ln>  (162) 
-0.777143

>  <r_i_glide_gscore>  (162) 
-3.30915

>  <r_i_glide_lipo>  (162) 
-0.273791

>  <r_i_glide_hbond>  (162) 
-0.0362722

>  <r_i_glide_metal>  (162) 
-0

>  <r_i_glide_rewards>  (162) 
-1.25877

>  <r_i_glide_evdw>  (162) 
-27.2269

>  <r_i_glide_ecoul>  (162) 
-2.52652

>  <r_i_glide_erotb>  (162) 
0

>  <r_i_glide_esite>  (162) 
0

>  <r_i_glide_emodel>  (162) 
-36.0315

>  <r_i_glide_energy>  (162) 
-29.7534

>  <r_i_glide_einternal>  (162) 
0.356274

>  <r_i_glide_intrahb_reward>  (162) 
-0

>  <i_i_glide_confnum>  (162) 
1

>  <i_i_glide_posenum>  (162) 
22

>  <r_i_glide_eff_state_penalty>  (162) 
0

>  <ligand_id>  (162) 
34

>  <original_smiles>  (162) 
CC12CC3CC(C1(O)C3)C1(O)CC=C3C=CC(=O)CC3(C)C1(F)C(O)C2

>  <smiles>  (162) 
[H]OC1([H])C([H])([H])C2(C([H])([H])[H])C([H])([H])C3([H])C([H])([H])C([H])(C4(O[H])C([H])([H])C([H])=C5C([H])=C([H])C(=O)C([H])([H])C5(C([H])([H])[H])C14F)C2(O[H])C3([H])[H]

$$$$
35:0:0
     RDKit          3D

 66 72  0  0  1  0  0  0  0  0999 V2000
    0.7373  -11.8103    4.2741 C   0  0  0  0  0  0  0  0  0  0  0  0
    1.8962  -11.0716    3.9234 O   0  0  0  0  0  0  0  0  0  0  0  0
    2.1306   -9.9693    4.7410 C   0  0  2  0  0  0  0  0  0  0  0  0
    1.0587   -9.0455    4.7529 O   0  0  0  0  0  0  0  0  0  0  0  0
    1.4410   -7.7719    4.1580 C   0  0  1  0  0  0  0  0  0  0  0  0
    1.8581   -6.8593    5.4177 C   0  0  0  0  0  0  0  0  0  0  0  0
    3.0601   -5.8916    5.1638 C   0  0  1  0  0  0  0  0  0  0  0  0
    3.1254   -4.3059    5.2734 C   0  0  0  0  0  0  0  0  0  0  0  0
    3.6988   -3.6355    3.9570 C   0  0  0  0  0  0  0  0  0  0  0  0
    4.0040   -4.3548    2.8187 C   0  0  0  0  0  0  0  0  0  0  0  0
    3.8846   -3.7102    1.4774 C   0  0  1  0  0  0  0  0  0  0  0  0
    4.9437   -4.1009    0.6246 O   0  0  0  0  0  0  0  0  0  0  0  0
    2.4901   -4.2414    1.0993 C   0  0  1  0  0  0  0  0  0  0  0  0
    2.3788   -4.7922   -0.3187 C   0  0  2  0  0  0  0  0  0  0  0  0
    1.6137   -4.0568   -1.4002 C   0  0  0  0  0  0  0  0  0  0  0  0
    1.0746   -5.2222   -0.7546 O   0  0  0  0  0  0  0  0  0  0  0  0
    2.1011   -5.2060    2.2755 C   0  0  1  0  0  0  0  0  0  0  0  0
    1.0401   -6.0351    1.8529 O   0  0  0  0  0  0  0  0  0  0  0  0
    3.5065   -5.7928    2.8636 C   0  0  1  0  0  0  0  0  0  0  0  0
    3.5489   -7.1762    2.1843 C   0  0  1  0  0  0  0  0  0  0  0  0
    4.9742   -7.7068    2.2560 C   0  0  0  0  0  0  0  0  0  0  0  0
    5.1668   -9.0605    1.5178 C   0  0  0  0  0  0  0  0  0  0  0  0
    6.0331   -6.7922    1.5973 C   0  0  0  0  0  0  0  0  0  0  0  0
    5.0544   -7.6945    3.7988 C   0  0  2  0  0  0  0  0  0  0  0  0
    4.6725   -9.0884    4.3587 C   0  0  0  0  0  0  0  0  0  0  0  0
    3.1977   -9.1100    4.0967 C   0  0  0  0  0  0  0  0  0  0  0  0
    2.5228   -8.2006    3.0291 C   0  0  1  0  0  0  0  0  0  0  0  0
    1.7914   -9.0360    1.9371 C   0  0  0  0  0  0  0  0  0  0  0  0
    4.2398   -6.3017    4.2135 C   0  0  2  0  0  0  0  0  0  0  0  0
    5.5579   -5.6167    4.8190 C   0  0  0  0  0  0  0  0  0  0  0  0
    0.6096  -12.6389    3.5761 H   0  0  0  0  0  0  0  0  0  0  0  0
   -0.1585  -11.1934    4.2083 H   0  0  0  0  0  0  0  0  0  0  0  0
    0.8150  -12.2181    5.2763 H   0  0  0  0  0  0  0  0  0  0  0  0
    2.3676  -10.3053    5.7553 H   0  0  0  0  0  0  0  0  0  0  0  0
    0.5238   -7.3722    3.7391 H   0  0  0  0  0  0  0  0  0  0  0  0
    0.9628   -6.3384    5.7774 H   0  0  0  0  0  0  0  0  0  0  0  0
    2.1141   -7.4690    6.2860 H   0  0  0  0  0  0  0  0  0  0  0  0
    2.2319   -5.5941    4.5636 H   0  0  0  0  0  0  0  0  0  0  0  0
    2.1450   -3.8709    5.4865 H   0  0  0  0  0  0  0  0  0  0  0  0
    3.7361   -4.0156    6.1309 H   0  0  0  0  0  0  0  0  0  0  0  0
    3.7197   -2.5563    3.9411 H   0  0  0  0  0  0  0  0  0  0  0  0
    3.8934   -2.6220    1.5472 H   0  0  0  0  0  0  0  0  0  0  0  0
    4.6702   -4.0036   -0.2751 H   0  0  0  0  0  0  0  0  0  0  0  0
    1.8219   -3.3859    1.1603 H   0  0  0  0  0  0  0  0  0  0  0  0
    3.1903   -5.4511   -0.6222 H   0  0  0  0  0  0  0  0  0  0  0  0
    1.1233   -3.1242   -1.1440 H   0  0  0  0  0  0  0  0  0  0  0  0
    1.8392   -4.1975   -2.4536 H   0  0  0  0  0  0  0  0  0  0  0  0
    1.5798   -4.5510    2.9779 H   0  0  0  0  0  0  0  0  0  0  0  0
    1.3991   -6.7326    1.3209 H   0  0  0  0  0  0  0  0  0  0  0  0
    3.2816   -7.0951    1.1337 H   0  0  0  0  0  0  0  0  0  0  0  0
    6.1805   -9.4433    1.6521 H   0  0  0  0  0  0  0  0  0  0  0  0
    5.0085   -8.9315    0.4483 H   0  0  0  0  0  0  0  0  0  0  0  0
    4.4910   -9.8560    1.8240 H   0  0  0  0  0  0  0  0  0  0  0  0
    7.0302   -7.2291    1.6743 H   0  0  0  0  0  0  0  0  0  0  0  0
    6.1066   -5.8060    2.0389 H   0  0  0  0  0  0  0  0  0  0  0  0
    5.8186   -6.6574    0.5374 H   0  0  0  0  0  0  0  0  0  0  0  0
    6.1213   -7.6628    4.0252 H   0  0  0  0  0  0  0  0  0  0  0  0
    5.1845   -9.9111    3.8678 H   0  0  0  0  0  0  0  0  0  0  0  0
    4.9745   -9.1895    5.4111 H   0  0  0  0  0  0  0  0  0  0  0  0
    3.2855   -8.5538    5.0098 H   0  0  0  0  0  0  0  0  0  0  0  0
    2.3909   -9.8672    1.5687 H   0  0  0  0  0  0  0  0  0  0  0  0
    1.5088   -8.4417    1.0704 H   0  0  0  0  0  0  0  0  0  0  0  0
    0.8602   -9.4655    2.3064 H   0  0  0  0  0  0  0  0  0  0  0  0
    6.3800   -5.5656    4.1072 H   0  0  0  0  0  0  0  0  0  0  0  0
    5.9017   -6.1950    5.6791 H   0  0  0  0  0  0  0  0  0  0  0  0
    5.5387   -4.6044    5.2097 H   0  0  0  0  0  0  0  0  0  0  0  0
  1  2  1  0
  1 31  1  0
  1 32  1  0
  1 33  1  0
  2  3  1  0
  3 26  1  0
  3  4  1  0
  3 34  1  1
  4  5  1  0
  5 27  1  0
  5  6  1  0
  5 35  1  6
  6  7  1  0
  6 36  1  0
  6 37  1  0
  7 29  1  0
  7  8  1  0
  7 38  1  1
  8  9  1  0
  8 39  1  0
  8 40  1  0
  9 10  2  0
  9 41  1  0
 19 10  1  6
 10 11  1  0
 11 12  1  0
 11 13  1  0
 11 42  1  1
 12 43  1  0
 13 14  1  0
 13 17  1  0
 13 44  1  6
 14 16  1  0
 14 15  1  0
 14 45  1  6
 15 16  1  0
 15 46  1  0
 15 47  1  0
 17 18  1  0
 17 19  1  0
 17 48  1  1
 18 49  1  0
 19 29  1  0
 19 20  1  0
 20 27  1  0
 20 21  1  0
 20 50  1  6
 21 22  1  0
 21 23  1  0
 21 24  1  0
 22 51  1  0
 22 52  1  0
 22 53  1  0
 23 54  1  0
 23 55  1  0
 23 56  1  0
 24 25  1  0
 24 29  1  0
 24 57  1  6
 25 26  1  0
 25 58  1  0
 25 59  1  0
 26 27  1  0
 26 60  1  0
 27 28  1  6
 28 61  1  0
 28 62  1  0
 28 63  1  0
 29 30  1  1
 30 64  1  0
 30 65  1  0
 30 66  1  0
M  END
>  <i_m_ct_stereo_status>  (163) 
1

>  <s_m_source_file>  (163) 
/var/tmp/pbs.5076255.sched01/tmpstc2q6q5/48db17pvb_.sdf

>  <i_m_source_file_index>  (163) 
19

>  <i_lp_mmshare_version>  (163) 
48012

>  <i_f3d_flags>  (163) 
0

>  <s_epik_input>  (163) 
W0NIM11PW0NAQEhdKFtDQEhdMVtDSDJdMilPW0NAQEhdKFtDSDJdMylbQ0BAXTEoW0NIM10pW0NAQEhdNEMoW0NIM10pKFtDSDNdKVtDQEhdMltDQF01KFtDSDNdKVtDQEBIXTNbQ0gyXVtDSF09QyhbQ0BAXTQ1NilbQ0BASF0oW09IXSlbQ0BASF0oW0NAQEhdN1tDSDJdTzcpW0NASF02W09IXQ==

>  <s_epik_cmdline>  (163) 
J2VwaWtfcHl0aG9uJywgJy1waHQnLCAnMi4wJywgJy1waCcsICc3LjAnLCAnLXRuJywgJzgnLCAnLW1hJywgJzIwMCcsICctaW1hZScsICc8aW5maWxlLm1hZT4nLCAnLW9tYWUnLCAnPG91dGZpbGUubWFlPic=

>  <r_lp_tautomer_probability>  (163) 
1

>  <r_epik_Ionization_Penalty>  (163) 
1.73241e-07

>  <r_epik_Ionization_Penalty_Charging>  (163) 
0

>  <r_epik_Ionization_Penalty_Neutral>  (163) 
1.73241e-07

>  <r_epik_State_Penalty>  (163) 
-0

>  <r_epik_Charging_Adjusted_Penalty>  (163) 
0

>  <i_epik_Tot_Q>  (163) 
0

>  <i_epik_Tot_abs_Q>  (163) 
0

>  <s_epik_Chemistry_Notes>  (163) 
This compound contains an acetal/aminal-like group ( X-CH(R)-Y where X, Y are N, S, or O) that may be acid/base labile, releasing an aldehyde.

>  <s_lp_Force_Field>  (163) 
OPLS3e

>  <r_lp_Energy>  (163) 
325.183

>  <b_lp_Chiralities_Consistent>  (163) 
1

>  <s_lp_Variant>  (163) 
35:0-1

>  <s_i_glide_gridfile>  (163) 
pfpi4k_grid

>  <i_i_glide_lignum>  (163) 
19

>  <i_i_glide_rotatable_bonds>  (163) 
4

>  <r_i_docking_score>  (163) 
-2.7964

>  <r_i_glide_ligand_efficiency>  (163) 
-0.0932132

>  <r_i_glide_ligand_efficiency_sa>  (163) 
-0.289635

>  <r_i_glide_ligand_efficiency_ln>  (163) 
-0.635372

>  <r_i_glide_gscore>  (163) 
-2.7964

>  <r_i_glide_lipo>  (163) 
-0.144998

>  <r_i_glide_hbond>  (163) 
-0.38826

>  <r_i_glide_metal>  (163) 
-0

>  <r_i_glide_rewards>  (163) 
-0.568975

>  <r_i_glide_evdw>  (163) 
-15.4569

>  <r_i_glide_ecoul>  (163) 
-6.7129

>  <r_i_glide_erotb>  (163) 
0.113864

>  <r_i_glide_esite>  (163) 
-0.02825

>  <r_i_glide_emodel>  (163) 
-26.2572

>  <r_i_glide_energy>  (163) 
-22.1698

>  <r_i_glide_einternal>  (163) 
1.97425

>  <r_i_glide_intrahb_reward>  (163) 
-0

>  <i_i_glide_confnum>  (163) 
3

>  <i_i_glide_posenum>  (163) 
17

>  <r_i_glide_eff_state_penalty>  (163) 
0

>  <ligand_id>  (163) 
35

>  <original_smiles>  (163) 
COC1OC2CC3CC=C4C(O)C(C5CO5)C(O)C45C4C(C)(C)C(CC1C24C)C35C

>  <smiles>  (163) 
[H]OC1([H])C2=C([H])C([H])([H])C3([H])C([H])([H])C4([H])OC([H])(OC([H])([H])[H])C5([H])C([H])([H])C6([H])C(C([H])([H])[H])(C([H])([H])[H])C([H])(C2(C([H])(O[H])C1([H])C1([H])OC1([H])[H])C36C([H])([H])[H])C45C([H])([H])[H]

$$$$
35:0:1
     RDKit          3D

 66 72  0  0  1  0  0  0  0  0999 V2000
    4.8238   -1.2878    0.6586 C   0  0  0  0  0  0  0  0  0  0  0  0
    4.6915   -2.2655    1.6804 O   0  0  0  0  0  0  0  0  0  0  0  0
    5.1757   -3.5241    1.3278 C   0  0  2  0  0  0  0  0  0  0  0  0
    4.4463   -4.1289    0.2770 O   0  0  0  0  0  0  0  0  0  0  0  0
    3.7694   -5.3429    0.7220 C   0  0  1  0  0  0  0  0  0  0  0  0
    4.7812   -6.5371    0.3394 C   0  0  0  0  0  0  0  0  0  0  0  0
    4.8345   -7.7128    1.3705 C   0  0  1  0  0  0  0  0  0  0  0  0
    4.5332   -9.2597    1.1644 C   0  0  0  0  0  0  0  0  0  0  0  0
    3.4897   -9.8119    2.2265 C   0  0  0  0  0  0  0  0  0  0  0  0
    2.8472   -9.0081    3.1468 C   0  0  0  0  0  0  0  0  0  0  0  0
    1.4698   -9.3675    3.6165 C   0  0  1  0  0  0  0  0  0  0  0  0
    1.2888   -9.1062    4.9950 O   0  0  0  0  0  0  0  0  0  0  0  0
    0.6665   -8.4540    2.6772 C   0  0  1  0  0  0  0  0  0  0  0  0
   -0.4430   -7.6654    3.3665 C   0  0  2  0  0  0  0  0  0  0  0  0
   -1.8706   -8.1463    3.3163 C   0  0  0  0  0  0  0  0  0  0  0  0
   -1.4099   -7.0540    2.5039 O   0  0  0  0  0  0  0  0  0  0  0  0
    1.7503   -7.6276    1.8946 C   0  0  1  0  0  0  0  0  0  0  0  0
    1.1284   -6.4939    1.3150 O   0  0  0  0  0  0  0  0  0  0  0  0
    3.0482   -7.5211    2.8815 C   0  0  1  0  0  0  0  0  0  0  0  0
    2.8710   -6.0926    3.4312 C   0  0  1  0  0  0  0  0  0  0  0  0
    3.7106   -5.9520    4.6952 C   0  0  0  0  0  0  0  0  0  0  0  0
    3.5327   -4.5812    5.4038 C   0  0  0  0  0  0  0  0  0  0  0  0
    3.3746   -6.9732    5.8073 C   0  0  0  0  0  0  0  0  0  0  0  0
    5.0548   -6.2522    3.9998 C   0  0  2  0  0  0  0  0  0  0  0  0
    5.7401   -4.9271    3.5813 C   0  0  0  0  0  0  0  0  0  0  0  0
    4.8630   -4.4941    2.4449 C   0  0  0  0  0  0  0  0  0  0  0  0
    3.4101   -5.0092    2.2670 C   0  0  1  0  0  0  0  0  0  0  0  0
    2.3806   -3.8418    2.2895 C   0  0  0  0  0  0  0  0  0  0  0  0
    4.6652   -7.4494    2.9097 C   0  0  2  0  0  0  0  0  0  0  0  0
    5.5899   -8.5301    3.6525 C   0  0  0  0  0  0  0  0  0  0  0  0
    4.3857   -0.3472    0.9928 H   0  0  0  0  0  0  0  0  0  0  0  0
    4.3090   -1.5798   -0.2591 H   0  0  0  0  0  0  0  0  0  0  0  0
    5.8738   -1.1056    0.4302 H   0  0  0  0  0  0  0  0  0  0  0  0
    6.2386   -3.4627    1.0831 H   0  0  0  0  0  0  0  0  0  0  0  0
    2.8898   -5.4311    0.0904 H   0  0  0  0  0  0  0  0  0  0  0  0
    4.5500   -6.8776   -0.6775 H   0  0  0  0  0  0  0  0  0  0  0  0
    5.8003   -6.1722    0.2135 H   0  0  0  0  0  0  0  0  0  0  0  0
    3.8677   -7.6916    0.9179 H   0  0  0  0  0  0  0  0  0  0  0  0
    4.1563   -9.4734    0.1604 H   0  0  0  0  0  0  0  0  0  0  0  0
    5.4569   -9.8388    1.2243 H   0  0  0  0  0  0  0  0  0  0  0  0
    3.2060  -10.8464    2.1078 H   0  0  0  0  0  0  0  0  0  0  0  0
    1.2503  -10.4222    3.4357 H   0  0  0  0  0  0  0  0  0  0  0  0
    1.5003   -9.8932    5.4772 H   0  0  0  0  0  0  0  0  0  0  0  0
    0.1729   -9.0941    1.9505 H   0  0  0  0  0  0  0  0  0  0  0  0
   -0.1467   -7.0360    4.2038 H   0  0  0  0  0  0  0  0  0  0  0  0
   -2.0992   -9.0633    2.7732 H   0  0  0  0  0  0  0  0  0  0  0  0
   -2.5789   -7.8460    4.0818 H   0  0  0  0  0  0  0  0  0  0  0  0
    1.9299   -8.2395    1.0087 H   0  0  0  0  0  0  0  0  0  0  0  0
    1.7583   -6.0830    0.7463 H   0  0  0  0  0  0  0  0  0  0  0  0
    1.8318   -5.9190    3.7069 H   0  0  0  0  0  0  0  0  0  0  0  0
    4.2063   -4.4896    6.2581 H   0  0  0  0  0  0  0  0  0  0  0  0
    2.5155   -4.4791    5.7834 H   0  0  0  0  0  0  0  0  0  0  0  0
    3.7075   -3.7120    4.7750 H   0  0  0  0  0  0  0  0  0  0  0  0
    4.0054   -6.8153    6.6840 H   0  0  0  0  0  0  0  0  0  0  0  0
    3.5152   -8.0079    5.5213 H   0  0  0  0  0  0  0  0  0  0  0  0
    2.3393   -6.8665    6.1313 H   0  0  0  0  0  0  0  0  0  0  0  0
    5.7176   -6.5828    4.8020 H   0  0  0  0  0  0  0  0  0  0  0  0
    5.7775   -4.1849    4.3727 H   0  0  0  0  0  0  0  0  0  0  0  0
    6.7965   -5.0978    3.3349 H   0  0  0  0  0  0  0  0  0  0  0  0
    5.5279   -5.2060    1.9953 H   0  0  0  0  0  0  0  0  0  0  0  0
    2.5638   -3.1321    3.0939 H   0  0  0  0  0  0  0  0  0  0  0  0
    1.3640   -4.2015    2.4228 H   0  0  0  0  0  0  0  0  0  0  0  0
    2.3815   -3.2698    1.3618 H   0  0  0  0  0  0  0  0  0  0  0  0
    5.3405   -8.6605    4.7035 H   0  0  0  0  0  0  0  0  0  0  0  0
    6.6341   -8.2136    3.6012 H   0  0  0  0  0  0  0  0  0  0  0  0
    5.6431   -9.5580    3.3095 H   0  0  0  0  0  0  0  0  0  0  0  0
  1  2  1  0
  1 31  1  0
  1 32  1  0
  1 33  1  0
  2  3  1  0
  3 26  1  0
  3  4  1  0
  3 34  1  6
  4  5  1  0
  5 27  1  0
  5  6  1  0
  5 35  1  6
  6  7  1  0
  6 36  1  0
  6 37  1  0
  7 29  1  0
  7  8  1  0
  7 38  1  1
  8  9  1  0
  8 39  1  0
  8 40  1  0
  9 10  2  0
  9 41  1  0
 19 10  1  1
 10 11  1  0
 11 12  1  0
 11 13  1  0
 11 42  1  1
 12 43  1  0
 13 14  1  0
 13 17  1  0
 13 44  1  6
 14 16  1  0
 14 15  1  0
 14 45  1  1
 15 16  1  0
 15 46  1  0
 15 47  1  0
 17 18  1  0
 17 19  1  0
 17 48  1  6
 18 49  1  0
 19 29  1  0
 19 20  1  0
 20 27  1  0
 20 21  1  0
 20 50  1  1
 21 22  1  0
 21 23  1  0
 21 24  1  0
 22 51  1  0
 22 52  1  0
 22 53  1  0
 23 54  1  0
 23 55  1  0
 23 56  1  0
 24 25  1  0
 24 29  1  0
 24 57  1  1
 25 26  1  0
 25 58  1  0
 25 59  1  0
 26 27  1  0
 26 60  1  0
 27 28  1  6
 28 61  1  0
 28 62  1  0
 28 63  1  0
 29 30  1  1
 30 64  1  0
 30 65  1  0
 30 66  1  0
M  END
>  <i_m_ct_stereo_status>  (164) 
1

>  <s_m_source_file>  (164) 
/var/tmp/pbs.5076255.sched01/tmpstc2q6q5/48db17pvb_.sdf

>  <i_m_source_file_index>  (164) 
19

>  <i_lp_mmshare_version>  (164) 
48012

>  <i_f3d_flags>  (164) 
0

>  <s_epik_input>  (164) 
W0NIM11PW0NAQEhdKFtDQEhdMVtDSDJdMilPW0NAQEhdKFtDSDJdMylbQ0BAXTEoW0NIM10pW0NAQEhdNEMoW0NIM10pKFtDSDNdKVtDQEhdMltDQF01KFtDSDNdKVtDQEBIXTNbQ0gyXVtDSF09QyhbQ0BAXTQ1NilbQ0BASF0oW09IXSlbQ0BASF0oW0NAQEhdN1tDSDJdTzcpW0NASF02W09IXQ==

>  <s_epik_cmdline>  (164) 
J2VwaWtfcHl0aG9uJywgJy1waHQnLCAnMi4wJywgJy1waCcsICc3LjAnLCAnLXRuJywgJzgnLCAnLW1hJywgJzIwMCcsICctaW1hZScsICc8aW5maWxlLm1hZT4nLCAnLW9tYWUnLCAnPG91dGZpbGUubWFlPic=

>  <r_lp_tautomer_probability>  (164) 
1

>  <r_epik_Ionization_Penalty>  (164) 
1.73241e-07

>  <r_epik_Ionization_Penalty_Charging>  (164) 
0

>  <r_epik_Ionization_Penalty_Neutral>  (164) 
1.73241e-07

>  <r_epik_State_Penalty>  (164) 
-0

>  <r_epik_Charging_Adjusted_Penalty>  (164) 
0

>  <i_epik_Tot_Q>  (164) 
0

>  <i_epik_Tot_abs_Q>  (164) 
0

>  <s_epik_Chemistry_Notes>  (164) 
This compound contains an acetal/aminal-like group ( X-CH(R)-Y where X, Y are N, S, or O) that may be acid/base labile, releasing an aldehyde.

>  <s_lp_Force_Field>  (164) 
OPLS3e

>  <r_lp_Energy>  (164) 
325.183

>  <b_lp_Chiralities_Consistent>  (164) 
1

>  <s_lp_Variant>  (164) 
35:0-1

>  <s_i_glide_gridfile>  (164) 
pfpi4k_grid

>  <i_i_glide_lignum>  (164) 
19

>  <i_i_glide_rotatable_bonds>  (164) 
4

>  <r_i_docking_score>  (164) 
-2.74953

>  <r_i_glide_ligand_efficiency>  (164) 
-0.0916508

>  <r_i_glide_ligand_efficiency_sa>  (164) 
-0.28478

>  <r_i_glide_ligand_efficiency_ln>  (164) 
-0.624722

>  <r_i_glide_gscore>  (164) 
-2.74953

>  <r_i_glide_lipo>  (164) 
-0.274569

>  <r_i_glide_hbond>  (164) 
-0.16

>  <r_i_glide_metal>  (164) 
-0

>  <r_i_glide_rewards>  (164) 
-0.622041

>  <r_i_glide_evdw>  (164) 
-22.0808

>  <r_i_glide_ecoul>  (164) 
-4.68492

>  <r_i_glide_erotb>  (164) 
0.113864

>  <r_i_glide_esite>  (164) 
0

>  <r_i_glide_emodel>  (164) 
-31.5828

>  <r_i_glide_energy>  (164) 
-26.7657

>  <r_i_glide_einternal>  (164) 
0.895859

>  <r_i_glide_intrahb_reward>  (164) 
-0

>  <i_i_glide_confnum>  (164) 
3

>  <i_i_glide_posenum>  (164) 
1

>  <r_i_glide_eff_state_penalty>  (164) 
0

>  <ligand_id>  (164) 
35

>  <original_smiles>  (164) 
COC1OC2CC3CC=C4C(O)C(C5CO5)C(O)C45C4C(C)(C)C(CC1C24C)C35C

>  <smiles>  (164) 
[H]OC1([H])C2=C([H])C([H])([H])C3([H])C([H])([H])C4([H])OC([H])(OC([H])([H])[H])C5([H])C([H])([H])C6([H])C(C([H])([H])[H])(C([H])([H])[H])C([H])(C2(C([H])(O[H])C1([H])C1([H])OC1([H])[H])C36C([H])([H])[H])C45C([H])([H])[H]

$$$$
35:0:2
     RDKit          3D

 66 72  0  0  1  0  0  0  0  0999 V2000
    4.6152   -1.2317   -0.7859 C   0  0  0  0  0  0  0  0  0  0  0  0
    4.6862   -1.9802    0.4158 O   0  0  0  0  0  0  0  0  0  0  0  0
    5.1947   -3.2659    0.2573 C   0  0  2  0  0  0  0  0  0  0  0  0
    4.4216   -4.0708   -0.6099 O   0  0  0  0  0  0  0  0  0  0  0  0
    3.8251   -5.1988    0.0959 C   0  0  1  0  0  0  0  0  0  0  0  0
    4.8625   -6.4043   -0.1390 C   0  0  0  0  0  0  0  0  0  0  0  0
    5.0475   -7.3848    1.0597 C   0  0  1  0  0  0  0  0  0  0  0  0
    4.8029   -8.9549    1.1438 C   0  0  0  0  0  0  0  0  0  0  0  0
    3.8561   -9.3434    2.3514 C   0  0  0  0  0  0  0  0  0  0  0  0
    3.2386   -8.4125    3.1629 C   0  0  0  0  0  0  0  0  0  0  0  0
    1.9160   -8.7233    3.7847 C   0  0  1  0  0  0  0  0  0  0  0  0
    1.8222   -8.2112    5.0995 O   0  0  0  0  0  0  0  0  0  0  0  0
    1.0109   -8.0234    2.7602 C   0  0  1  0  0  0  0  0  0  0  0  0
   -0.0865   -7.1638    3.3844 C   0  0  2  0  0  0  0  0  0  0  0  0
   -1.4851   -7.6971    3.5618 C   0  0  0  0  0  0  0  0  0  0  0  0
   -1.1536   -6.7769    2.5099 O   0  0  0  0  0  0  0  0  0  0  0  0
    2.0036   -7.3028    1.7740 C   0  0  1  0  0  0  0  0  0  0  0  0
    1.2827   -6.2962    1.0794 O   0  0  0  0  0  0  0  0  0  0  0  0
    3.3570   -6.9865    2.6347 C   0  0  1  0  0  0  0  0  0  0  0  0
    3.1507   -5.4901    2.9446 C   0  0  1  0  0  0  0  0  0  0  0  0
    4.0655   -5.1052    4.0985 C   0  0  0  0  0  0  0  0  0  0  0  0
    3.8718   -3.6369    4.5693 C   0  0  0  0  0  0  0  0  0  0  0  0
    3.8501   -5.9215    5.3940 C   0  0  0  0  0  0  0  0  0  0  0  0
    5.3687   -5.4794    3.3666 C   0  0  2  0  0  0  0  0  0  0  0  0
    5.9567   -4.2332    2.6657 C   0  0  0  0  0  0  0  0  0  0  0  0
    4.9934   -4.0239    1.5488 C   0  0  0  0  0  0  0  0  0  0  0  0
    3.5624   -4.6086    1.5752 C   0  0  1  0  0  0  0  0  0  0  0  0
    2.4994   -3.4867    1.4747 C   0  0  0  0  0  0  0  0  0  0  0  0
    4.9651   -6.8623    2.5365 C   0  0  2  0  0  0  0  0  0  0  0  0
    5.9862   -7.7620    3.3860 C   0  0  0  0  0  0  0  0  0  0  0  0
    4.1750   -0.2579   -0.5736 H   0  0  0  0  0  0  0  0  0  0  0  0
    3.9932   -1.7222   -1.5369 H   0  0  0  0  0  0  0  0  0  0  0  0
    5.6082   -1.0693   -1.2029 H   0  0  0  0  0  0  0  0  0  0  0  0
    6.2378   -3.2151   -0.0683 H   0  0  0  0  0  0  0  0  0  0  0  0
    2.9005   -5.4230   -0.4223 H   0  0  0  0  0  0  0  0  0  0  0  0
    4.6174   -6.9196   -1.0702 H   0  0  0  0  0  0  0  0  0  0  0  0
    5.8526   -6.0165   -0.3645 H   0  0  0  0  0  0  0  0  0  0  0  0
    4.0546   -7.4797    0.6785 H   0  0  0  0  0  0  0  0  0  0  0  0
    4.3637   -9.3540    0.2246 H   0  0  0  0  0  0  0  0  0  0  0  0
    5.7552   -9.4849    1.2340 H   0  0  0  0  0  0  0  0  0  0  0  0
    3.6044  -10.3922    2.4297 H   0  0  0  0  0  0  0  0  0  0  0  0
    1.7414   -9.7976    3.8188 H   0  0  0  0  0  0  0  0  0  0  0  0
    2.2179   -7.3516    5.1084 H   0  0  0  0  0  0  0  0  0  0  0  0
    0.5058   -8.7954    2.1821 H   0  0  0  0  0  0  0  0  0  0  0  0
    0.2400   -6.3713    4.0561 H   0  0  0  0  0  0  0  0  0  0  0  0
   -1.7066   -8.7082    3.2268 H   0  0  0  0  0  0  0  0  0  0  0  0
   -2.1297   -7.2818    4.3321 H   0  0  0  0  0  0  0  0  0  0  0  0
    2.1536   -8.0476    0.9893 H   0  0  0  0  0  0  0  0  0  0  0  0
    1.8710   -5.9112    0.4468 H   0  0  0  0  0  0  0  0  0  0  0  0
    2.1272   -5.3047    3.2627 H   0  0  0  0  0  0  0  0  0  0  0  0
    4.6006   -3.3726    5.3383 H   0  0  0  0  0  0  0  0  0  0  0  0
    2.8782   -3.4995    5.0002 H   0  0  0  0  0  0  0  0  0  0  0  0
    3.9609   -2.8845    3.7883 H   0  0  0  0  0  0  0  0  0  0  0  0
    4.5330   -5.5856    6.1745 H   0  0  0  0  0  0  0  0  0  0  0  0
    4.0252   -6.9847    5.2856 H   0  0  0  0  0  0  0  0  0  0  0  0
    2.8387   -5.7825    5.7737 H   0  0  0  0  0  0  0  0  0  0  0  0
    6.1021   -5.6350    4.1588 H   0  0  0  0  0  0  0  0  0  0  0  0
    5.9817   -3.3500    3.2915 H   0  0  0  0  0  0  0  0  0  0  0  0
    7.0035   -4.4113    2.3786 H   0  0  0  0  0  0  0  0  0  0  0  0
    5.6585   -4.7766    1.1863 H   0  0  0  0  0  0  0  0  0  0  0  0
    2.7104   -2.6360    2.1176 H   0  0  0  0  0  0  0  0  0  0  0  0
    1.5263   -3.8622    1.7694 H   0  0  0  0  0  0  0  0  0  0  0  0
    2.4005   -3.0992    0.4614 H   0  0  0  0  0  0  0  0  0  0  0  0
    5.8182   -7.7097    4.4594 H   0  0  0  0  0  0  0  0  0  0  0  0
    7.0094   -7.4235    3.2014 H   0  0  0  0  0  0  0  0  0  0  0  0
    6.0651   -8.8315    3.2245 H   0  0  0  0  0  0  0  0  0  0  0  0
  1  2  1  0
  1 31  1  0
  1 32  1  0
  1 33  1  0
  2  3  1  0
  3 26  1  0
  3  4  1  0
  3 34  1  6
  4  5  1  0
  5 27  1  0
  5  6  1  0
  5 35  1  6
  6  7  1  0
  6 36  1  0
  6 37  1  0
  7 29  1  0
  7  8  1  0
  7 38  1  6
  8  9  1  0
  8 39  1  0
  8 40  1  0
  9 10  2  0
  9 41  1  0
 19 10  1  1
 10 11  1  0
 11 12  1  0
 11 13  1  0
 11 42  1  1
 12 43  1  0
 13 14  1  0
 13 17  1  0
 13 44  1  6
 14 16  1  0
 14 15  1  0
 14 45  1  1
 15 16  1  0
 15 46  1  0
 15 47  1  0
 17 18  1  0
 17 19  1  0
 17 48  1  6
 18 49  1  0
 19 29  1  0
 19 20  1  0
 20 27  1  0
 20 21  1  0
 20 50  1  1
 21 22  1  0
 21 23  1  0
 21 24  1  0
 22 51  1  0
 22 52  1  0
 22 53  1  0
 23 54  1  0
 23 55  1  0
 23 56  1  0
 24 25  1  0
 24 29  1  0
 24 57  1  1
 25 26  1  0
 25 58  1  0
 25 59  1  0
 26 27  1  0
 26 60  1  0
 27 28  1  6
 28 61  1  0
 28 62  1  0
 28 63  1  0
 29 30  1  1
 30 64  1  0
 30 65  1  0
 30 66  1  0
M  END
>  <i_m_ct_stereo_status>  (165) 
1

>  <s_m_source_file>  (165) 
/var/tmp/pbs.5076255.sched01/tmpstc2q6q5/48db17pvb_.sdf

>  <i_m_source_file_index>  (165) 
19

>  <i_lp_mmshare_version>  (165) 
48012

>  <i_f3d_flags>  (165) 
0

>  <s_epik_input>  (165) 
W0NIM11PW0NAQEhdKFtDQEhdMVtDSDJdMilPW0NAQEhdKFtDSDJdMylbQ0BAXTEoW0NIM10pW0NAQEhdNEMoW0NIM10pKFtDSDNdKVtDQEhdMltDQF01KFtDSDNdKVtDQEBIXTNbQ0gyXVtDSF09QyhbQ0BAXTQ1NilbQ0BASF0oW09IXSlbQ0BASF0oW0NAQEhdN1tDSDJdTzcpW0NASF02W09IXQ==

>  <s_epik_cmdline>  (165) 
J2VwaWtfcHl0aG9uJywgJy1waHQnLCAnMi4wJywgJy1waCcsICc3LjAnLCAnLXRuJywgJzgnLCAnLW1hJywgJzIwMCcsICctaW1hZScsICc8aW5maWxlLm1hZT4nLCAnLW9tYWUnLCAnPG91dGZpbGUubWFlPic=

>  <r_lp_tautomer_probability>  (165) 
1

>  <r_epik_Ionization_Penalty>  (165) 
1.73241e-07

>  <r_epik_Ionization_Penalty_Charging>  (165) 
0

>  <r_epik_Ionization_Penalty_Neutral>  (165) 
1.73241e-07

>  <r_epik_State_Penalty>  (165) 
-0

>  <r_epik_Charging_Adjusted_Penalty>  (165) 
0

>  <i_epik_Tot_Q>  (165) 
0

>  <i_epik_Tot_abs_Q>  (165) 
0

>  <s_epik_Chemistry_Notes>  (165) 
This compound contains an acetal/aminal-like group ( X-CH(R)-Y where X, Y are N, S, or O) that may be acid/base labile, releasing an aldehyde.

>  <s_lp_Force_Field>  (165) 
OPLS3e

>  <r_lp_Energy>  (165) 
325.183

>  <b_lp_Chiralities_Consistent>  (165) 
1

>  <s_lp_Variant>  (165) 
35:0-1

>  <s_i_glide_gridfile>  (165) 
pfpi4k_grid

>  <i_i_glide_lignum>  (165) 
19

>  <i_i_glide_rotatable_bonds>  (165) 
4

>  <r_i_docking_score>  (165) 
-2.44142

>  <r_i_glide_ligand_efficiency>  (165) 
-0.0813806

>  <r_i_glide_ligand_efficiency_sa>  (165) 
-0.252868

>  <r_i_glide_ligand_efficiency_ln>  (165) 
-0.554717

>  <r_i_glide_gscore>  (165) 
-2.44142

>  <r_i_glide_lipo>  (165) 
-0.177005

>  <r_i_glide_hbond>  (165) 
-0.16

>  <r_i_glide_metal>  (165) 
-0

>  <r_i_glide_rewards>  (165) 
-0.619939

>  <r_i_glide_evdw>  (165) 
-16.9816

>  <r_i_glide_ecoul>  (165) 
-4.99506

>  <r_i_glide_erotb>  (165) 
0.113864

>  <r_i_glide_esite>  (165) 
0

>  <r_i_glide_emodel>  (165) 
-26.3123

>  <r_i_glide_energy>  (165) 
-21.9767

>  <r_i_glide_einternal>  (165) 
0.55083

>  <r_i_glide_intrahb_reward>  (165) 
-0

>  <i_i_glide_confnum>  (165) 
1

>  <i_i_glide_posenum>  (165) 
22

>  <r_i_glide_eff_state_penalty>  (165) 
0

>  <ligand_id>  (165) 
35

>  <original_smiles>  (165) 
COC1OC2CC3CC=C4C(O)C(C5CO5)C(O)C45C4C(C)(C)C(CC1C24C)C35C

>  <smiles>  (165) 
[H]OC1([H])C2=C([H])C([H])([H])C3([H])C([H])([H])C4([H])OC([H])(OC([H])([H])[H])C5([H])C([H])([H])C6([H])C(C([H])([H])[H])(C([H])([H])[H])C([H])(C2(C([H])(O[H])C1([H])C1([H])OC1([H])[H])C36C([H])([H])[H])C45C([H])([H])[H]

$$$$
36:0:0
     RDKit          3D

 83 88  0  0  1  0  0  0  0  0999 V2000
    0.4879   -0.5638    5.8905 C   0  0  0  0  0  0  0  0  0  0  0  0
   -0.2566    0.6510    6.4350 C   0  0  0  0  0  0  0  0  0  0  0  0
   -1.3601    0.5430    6.9643 O   0  0  0  0  0  0  0  0  0  0  0  0
    0.4322    1.7971    6.2616 O   0  0  0  0  0  0  0  0  0  0  0  0
   -0.0066    3.0319    6.8099 C   0  0  2  0  0  0  0  0  0  0  0  0
   -1.3375    3.5163    6.1734 C   0  0  0  0  0  0  0  0  0  0  0  0
   -1.1622    4.1426    4.7767 C   0  0  1  0  0  0  0  0  0  0  0  0
   -0.0341    5.1902    4.6776 C   0  0  0  0  0  0  0  0  0  0  0  0
    1.3546    4.7533    5.2564 C   0  0  2  0  0  0  0  0  0  0  0  0
    1.8899    3.8206    4.0869 C   0  0  0  0  0  0  0  0  0  0  0  0
    1.2610    2.5068    3.5839 C   0  0  0  0  0  0  0  0  0  0  0  0
   -0.2009    2.4042    3.1579 C   0  0  0  0  0  0  0  0  0  0  0  0
   -0.3965    1.3191    2.1027 C   0  0  0  0  0  0  0  0  0  0  0  0
   -1.2402    3.1317    3.6338 C   0  0  0  0  0  0  0  0  0  0  0  0
   -2.6608    2.9583    3.0944 C   0  0  0  0  0  0  0  0  0  0  0  0
    1.0520    4.1795    6.7081 C   0  0  2  0  0  0  0  0  0  0  0  0
    2.0497    4.5092    7.9262 C   0  0  1  0  0  0  0  0  0  0  0  0
    2.8455    5.6540    7.7019 O   0  0  0  0  0  0  0  0  0  0  0  0
    2.3333    6.6338    6.8731 C   0  0  2  0  0  0  0  0  0  0  0  0
    1.0409    7.1893    7.5299 C   0  0  0  0  0  0  0  0  0  0  0  0
    0.6837    6.5387    8.9097 C   0  0  1  0  0  0  0  0  0  0  0  0
   -0.8354    6.6425    9.1724 C   0  0  0  0  0  0  0  0  0  0  0  0
    1.3142    5.1120    9.1665 C   0  0  1  0  0  0  0  0  0  0  0  0
    0.4150    4.1897    9.7492 O   0  0  0  0  0  0  0  0  0  0  0  0
    2.3866    5.9877    5.4476 C   0  0  2  0  0  0  0  0  0  0  0  0
    2.0534    7.1332    4.4475 C   0  0  0  0  0  0  0  0  0  0  0  0
    3.9202    5.5612    5.2047 C   0  0  1  0  0  0  0  0  0  0  0  0
    4.7740    6.6935    5.0973 O   0  0  0  0  0  0  0  0  0  0  0  0
    4.7069    4.4818    6.0853 C   0  0  1  0  0  0  0  0  0  0  0  0
    5.6718    5.0924    6.9297 O   0  0  0  0  0  0  0  0  0  0  0  0
    3.9826    3.2928    6.8262 C   0  0  1  0  0  0  0  0  0  0  0  0
    4.8463    2.0403    7.0476 C   0  0  0  0  0  0  0  0  0  0  0  0
    4.0813    1.2022    8.0858 C   0  0  0  0  0  0  0  0  0  0  0  0
    2.8740    2.0536    8.5146 C   0  0  1  0  0  0  0  0  0  0  0  0
    2.5007    1.8205    9.8549 O   0  0  0  0  0  0  0  0  0  0  0  0
    3.2418    3.5192    8.1779 C   0  0  2  0  0  0  0  0  0  0  0  0
    4.2130    4.0058    9.3186 C   0  0  0  0  0  0  0  0  0  0  0  0
    1.4767   -0.6387    6.3426 H   0  0  0  0  0  0  0  0  0  0  0  0
    0.6079   -0.4896    4.8088 H   0  0  0  0  0  0  0  0  0  0  0  0
   -0.0603   -1.4819    6.1107 H   0  0  0  0  0  0  0  0  0  0  0  0
   -0.2037    2.8309    7.8607 H   0  0  0  0  0  0  0  0  0  0  0  0
   -2.0956    2.7363    6.1300 H   0  0  0  0  0  0  0  0  0  0  0  0
   -1.7608    4.2753    6.8312 H   0  0  0  0  0  0  0  0  0  0  0  0
   -2.0624    4.7311    4.6433 H   0  0  0  0  0  0  0  0  0  0  0  0
    0.0527    5.5149    3.6360 H   0  0  0  0  0  0  0  0  0  0  0  0
   -0.4078    6.0592    5.2088 H   0  0  0  0  0  0  0  0  0  0  0  0
    1.9691    4.4490    3.1987 H   0  0  0  0  0  0  0  0  0  0  0  0
    2.9034    3.4914    4.2536 H   0  0  0  0  0  0  0  0  0  0  0  0
    1.8171    2.2890    2.6715 H   0  0  0  0  0  0  0  0  0  0  0  0
    1.5286    1.6663    4.2124 H   0  0  0  0  0  0  0  0  0  0  0  0
    0.3776    0.5539    2.1639 H   0  0  0  0  0  0  0  0  0  0  0  0
   -0.3471    1.7440    1.1006 H   0  0  0  0  0  0  0  0  0  0  0  0
   -1.3498    0.8020    2.2142 H   0  0  0  0  0  0  0  0  0  0  0  0
   -3.1676    3.9102    2.9698 H   0  0  0  0  0  0  0  0  0  0  0  0
   -3.2560    2.3543    3.7764 H   0  0  0  0  0  0  0  0  0  0  0  0
   -2.6949    2.5004    2.1096 H   0  0  0  0  0  0  0  0  0  0  0  0
    0.3345    4.9232    7.0055 H   0  0  0  0  0  0  0  0  0  0  0  0
    3.0621    7.4419    6.9124 H   0  0  0  0  0  0  0  0  0  0  0  0
    1.1812    8.2579    7.6847 H   0  0  0  0  0  0  0  0  0  0  0  0
    0.1895    7.1384    6.8634 H   0  0  0  0  0  0  0  0  0  0  0  0
    1.1447    7.1868    9.6594 H   0  0  0  0  0  0  0  0  0  0  0  0
   -1.4024    6.0238    8.4797 H   0  0  0  0  0  0  0  0  0  0  0  0
   -1.1730    7.6716    9.0447 H   0  0  0  0  0  0  0  0  0  0  0  0
   -1.0995    6.3417   10.1880 H   0  0  0  0  0  0  0  0  0  0  0  0
    2.0625    5.2862    9.9399 H   0  0  0  0  0  0  0  0  0  0  0  0
    0.1132    4.5479   10.5738 H   0  0  0  0  0  0  0  0  0  0  0  0
    2.7283    7.9857    4.5348 H   0  0  0  0  0  0  0  0  0  0  0  0
    1.0642    7.5608    4.6217 H   0  0  0  0  0  0  0  0  0  0  0  0
    2.0854    6.7944    3.4107 H   0  0  0  0  0  0  0  0  0  0  0  0
    3.9824    5.2238    4.1726 H   0  0  0  0  0  0  0  0  0  0  0  0
    4.4486    7.2318    4.3890 H   0  0  0  0  0  0  0  0  0  0  0  0
    5.3456    3.9972    5.3490 H   0  0  0  0  0  0  0  0  0  0  0  0
    6.0921    5.7619    6.4058 H   0  0  0  0  0  0  0  0  0  0  0  0
    3.2231    2.9151    6.1552 H   0  0  0  0  0  0  0  0  0  0  0  0
    4.9857    1.4911    6.1165 H   0  0  0  0  0  0  0  0  0  0  0  0
    5.8375    2.3008    7.4264 H   0  0  0  0  0  0  0  0  0  0  0  0
    3.7557    0.2479    7.6741 H   0  0  0  0  0  0  0  0  0  0  0  0
    4.7250    0.9857    8.9357 H   0  0  0  0  0  0  0  0  0  0  0  0
    2.0456    1.7213    7.9148 H   0  0  0  0  0  0  0  0  0  0  0  0
    1.7077    2.3163   10.0191 H   0  0  0  0  0  0  0  0  0  0  0  0
    5.1251    3.4114    9.3644 H   0  0  0  0  0  0  0  0  0  0  0  0
    3.7598    3.9295   10.3085 H   0  0  0  0  0  0  0  0  0  0  0  0
    4.5328    5.0409    9.2222 H   0  0  0  0  0  0  0  0  0  0  0  0
  1  2  1  0
  1 38  1  0
  1 39  1  0
  1 40  1  0
  2  3  2  0
  2  4  1  0
  4  5  1  0
  5 16  1  0
  5  6  1  0
  5 41  1  1
  6  7  1  0
  6 42  1  0
  6 43  1  0
  7 14  1  0
  7  8  1  0
  7 44  1  6
  8  9  1  0
  8 45  1  0
  8 46  1  0
  9 25  1  0
  9 10  1  6
  9 16  1  0
 10 11  1  0
 10 47  1  0
 10 48  1  0
 11 12  1  0
 11 49  1  0
 11 50  1  0
 12 13  1  0
 12 14  2  0
 13 51  1  0
 13 52  1  0
 13 53  1  0
 14 15  1  0
 15 54  1  0
 15 55  1  0
 15 56  1  0
 16 17  1  0
 16 57  1  1
 17 23  1  0
 17 36  1  0
 17 18  1  6
 18 19  1  0
 19 20  1  0
 19 25  1  0
 19 58  1  6
 20 21  1  0
 20 59  1  0
 20 60  1  0
 21 22  1  0
 21 23  1  0
 21 61  1  1
 22 62  1  0
 22 63  1  0
 22 64  1  0
 23 24  1  0
 23 65  1  1
 24 66  1  0
 25 26  1  6
 25 27  1  0
 26 67  1  0
 26 68  1  0
 26 69  1  0
 27 28  1  0
 27 29  1  0
 27 70  1  6
 28 71  1  0
 29 30  1  0
 29 31  1  0
 29 72  1  6
 30 73  1  0
 31 36  1  0
 31 32  1  0
 31 74  1  6
 32 33  1  0
 32 75  1  0
 32 76  1  0
 33 34  1  0
 33 77  1  0
 33 78  1  0
 34 35  1  0
 34 36  1  0
 34 79  1  6
 35 80  1  0
 36 37  1  1
 37 81  1  0
 37 82  1  0
 37 83  1  0
M  END
>  <i_m_ct_stereo_status>  (166) 
1

>  <s_m_source_file>  (166) 
/var/tmp/pbs.5076255.sched01/tmpstc2q6q5/48db17pvb_.sdf

>  <i_m_source_file_index>  (166) 
20

>  <i_lp_mmshare_version>  (166) 
48012

>  <i_f3d_flags>  (166) 
0

>  <s_epik_input>  (166) 
W0NIMl0xW0NIMl1DKFtDSDNdKT1DKFtDSDNdKVtDQEhdKFtDSDJdMilbQ0gyXVtDQEBIXShPQyg9TylbQ0gzXSlbQ0BIXShbQ0BAXTEyMylbQ0BAXTQ1W0NAXTYoW0NIM10pW0NASF0oW0NIMl1bQ0gyXVtDQEhdNltPSF0pW0NASF0oW09IXSlbQ0BIXShbT0hdKVtDQF0zKFtDSDNdKVtDQEhdKE80KVtDSDJdW0NAQEhdKFtDSDNdKVtDQEhdNVtPSF0=

>  <s_epik_cmdline>  (166) 
J2VwaWtfcHl0aG9uJywgJy1waHQnLCAnMi4wJywgJy1waCcsICc3LjAnLCAnLXRuJywgJzgnLCAnLW1hJywgJzIwMCcsICctaW1hZScsICc8aW5maWxlLm1hZT4nLCAnLW9tYWUnLCAnPG91dGZpbGUubWFlPic=

>  <r_lp_tautomer_probability>  (166) 
1

>  <r_epik_Ionization_Penalty>  (166) 
7.61717e-07

>  <r_epik_Ionization_Penalty_Charging>  (166) 
0

>  <r_epik_Ionization_Penalty_Neutral>  (166) 
7.61717e-07

>  <r_epik_State_Penalty>  (166) 
-0

>  <r_epik_Charging_Adjusted_Penalty>  (166) 
0

>  <i_epik_Tot_Q>  (166) 
0

>  <i_epik_Tot_abs_Q>  (166) 
0

>  <s_epik_Chemistry_Notes>  (166) 
This compound has an ester and may undergo hydrolysis at high or low pH.

>  <s_lp_Force_Field>  (166) 
OPLS3e

>  <r_lp_Energy>  (166) 
138.046

>  <b_lp_Chiralities_Consistent>  (166) 
1

>  <s_lp_Variant>  (166) 
36:0-1

>  <s_i_glide_gridfile>  (166) 
pfpi4k_grid

>  <i_i_glide_lignum>  (166) 
20

>  <i_i_glide_rotatable_bonds>  (166) 
6

>  <r_i_docking_score>  (166) 
-2.28928

>  <r_i_glide_ligand_efficiency>  (166) 
-0.0618725

>  <r_i_glide_ligand_efficiency_sa>  (166) 
-0.206173

>  <r_i_glide_ligand_efficiency_ln>  (166) 
-0.496492

>  <r_i_glide_gscore>  (166) 
-2.28928

>  <r_i_glide_lipo>  (166) 
-0.0177548

>  <r_i_glide_hbond>  (166) 
-0.16

>  <r_i_glide_metal>  (166) 
-0

>  <r_i_glide_rewards>  (166) 
-0.5

>  <r_i_glide_evdw>  (166) 
-25.6055

>  <r_i_glide_ecoul>  (166) 
-2.55846

>  <r_i_glide_erotb>  (166) 
0.0763479

>  <r_i_glide_esite>  (166) 
-0.0238318

>  <r_i_glide_emodel>  (166) 
-35.7102

>  <r_i_glide_energy>  (166) 
-28.164

>  <r_i_glide_einternal>  (166) 
2.5344

>  <r_i_glide_intrahb_reward>  (166) 
-0.5

>  <i_i_glide_confnum>  (166) 
4

>  <i_i_glide_posenum>  (166) 
35

>  <r_i_glide_eff_state_penalty>  (166) 
0

>  <ligand_id>  (166) 
36

>  <original_smiles>  (166) 
CC(=O)OC1CC2CC3(CCC(C)=C2C)C1C12OC(CC(C)C1O)C3(C)C(O)C(O)C1CCC(O)C12C

>  <smiles>  (166) 
[H]OC1([H])C([H])(O[H])C2(C([H])([H])[H])C3([H])OC(C([H])(O[H])C([H])(C([H])([H])[H])C3([H])[H])(C3([H])C([H])(OC(=O)C([H])([H])[H])C([H])([H])C4([H])C(C([H])([H])[H])=C(C([H])([H])[H])C([H])([H])C([H])([H])C32C4([H])[H])C2(C([H])([H])[H])C([H])(O[H])C([H])([H])C([H])([H])C12[H]

$$$$
36:0:1
     RDKit          3D

 83 88  0  0  1  0  0  0  0  0999 V2000
    0.5912   -1.7220    7.6554 C   0  0  0  0  0  0  0  0  0  0  0  0
    0.5865   -0.7689    6.4653 C   0  0  0  0  0  0  0  0  0  0  0  0
    0.3576   -1.1879    5.3294 O   0  0  0  0  0  0  0  0  0  0  0  0
    0.8884    0.5274    6.7374 O   0  0  0  0  0  0  0  0  0  0  0  0
    1.0684    1.0429    8.0473 C   0  0  2  0  0  0  0  0  0  0  0  0
   -0.2987    1.5532    8.5666 C   0  0  0  0  0  0  0  0  0  0  0  0
   -0.6655    2.9737    8.0800 C   0  0  1  0  0  0  0  0  0  0  0  0
    0.4763    3.9961    8.1817 C   0  0  0  0  0  0  0  0  0  0  0  0
    1.8677    3.5478    7.5980 C   0  0  2  0  0  0  0  0  0  0  0  0
    1.6211    3.7195    6.0398 C   0  0  0  0  0  0  0  0  0  0  0  0
    0.5805    2.9784    5.1750 C   0  0  0  0  0  0  0  0  0  0  0  0
   -0.9085    2.9504    5.5282 C   0  0  0  0  0  0  0  0  0  0  0  0
   -1.7699    2.8174    4.2644 C   0  0  0  0  0  0  0  0  0  0  0  0
   -1.4536    2.9771    6.7551 C   0  0  0  0  0  0  0  0  0  0  0  0
   -2.9757    2.9411    6.9793 C   0  0  0  0  0  0  0  0  0  0  0  0
    2.1635    2.1276    8.2258 C   0  0  2  0  0  0  0  0  0  0  0  0
    3.6419    1.7258    8.7211 C   0  0  1  0  0  0  0  0  0  0  0  0
    4.4675    2.8437    8.9705 O   0  0  0  0  0  0  0  0  0  0  0  0
    3.8345    4.0141    9.3520 C   0  0  2  0  0  0  0  0  0  0  0  0
    3.1115    3.7587   10.7088 C   0  0  0  0  0  0  0  0  0  0  0  0
    3.2863    2.3116   11.2712 C   0  0  1  0  0  0  0  0  0  0  0  0
    2.1047    1.9475   12.1994 C   0  0  0  0  0  0  0  0  0  0  0  0
    3.6625    1.2217   10.2036 C   0  0  1  0  0  0  0  0  0  0  0  0
    2.9318    0.0345   10.3994 O   0  0  0  0  0  0  0  0  0  0  0  0
    3.0965    4.4936    8.0500 C   0  0  2  0  0  0  0  0  0  0  0  0
    2.5831    5.9283    8.3554 C   0  0  0  0  0  0  0  0  0  0  0  0
    4.2276    4.6101    6.9204 C   0  0  1  0  0  0  0  0  0  0  0  0
    5.1328    5.6649    7.2238 O   0  0  0  0  0  0  0  0  0  0  0  0
    5.0909    3.3823    6.3706 C   0  0  1  0  0  0  0  0  0  0  0  0
    6.4184    3.4195    6.8591 O   0  0  0  0  0  0  0  0  0  0  0  0
    4.5749    1.8872    6.3783 C   0  0  1  0  0  0  0  0  0  0  0  0
    5.1770    0.9713    5.2934 C   0  0  0  0  0  0  0  0  0  0  0  0
    4.8138   -0.4561    5.7172 C   0  0  0  0  0  0  0  0  0  0  0  0
    4.1525   -0.3264    7.0930 C   0  0  1  0  0  0  0  0  0  0  0  0
    4.4246   -1.4773    7.8534 O   0  0  0  0  0  0  0  0  0  0  0  0
    4.5944    1.0320    7.6809 C   0  0  2  0  0  0  0  0  0  0  0  0
    6.0478    0.7959    8.2435 C   0  0  0  0  0  0  0  0  0  0  0  0
   -0.0687   -1.3801    8.4460 H   0  0  0  0  0  0  0  0  0  0  0  0
    1.5981   -1.8291    8.0488 H   0  0  0  0  0  0  0  0  0  0  0  0
    0.2596   -2.7384    7.3632 H   0  0  0  0  0  0  0  0  0  0  0  0
    1.3639    0.2387    8.7023 H   0  0  0  0  0  0  0  0  0  0  0  0
   -1.0780    0.8450    8.3220 H   0  0  0  0  0  0  0  0  0  0  0  0
   -0.2515    1.5864    9.6642 H   0  0  0  0  0  0  0  0  0  0  0  0
   -1.3876    3.3249    8.8102 H   0  0  0  0  0  0  0  0  0  0  0  0
    0.1486    4.9359    7.7372 H   0  0  0  0  0  0  0  0  0  0  0  0
    0.5632    4.2079    9.2462 H   0  0  0  0  0  0  0  0  0  0  0  0
    1.4236    4.7836    5.8776 H   0  0  0  0  0  0  0  0  0  0  0  0
    2.5154    3.5354    5.4641 H   0  0  0  0  0  0  0  0  0  0  0  0
    0.6209    3.5083    4.2199 H   0  0  0  0  0  0  0  0  0  0  0  0
    0.9151    1.9859    4.8951 H   0  0  0  0  0  0  0  0  0  0  0  0
   -1.2116    2.3585    3.4493 H   0  0  0  0  0  0  0  0  0  0  0  0
   -2.1073    3.7976    3.9324 H   0  0  0  0  0  0  0  0  0  0  0  0
   -2.6295    2.1791    4.4296 H   0  0  0  0  0  0  0  0  0  0  0  0
   -3.2719    3.6258    7.7717 H   0  0  0  0  0  0  0  0  0  0  0  0
   -3.2978    1.9406    7.2571 H   0  0  0  0  0  0  0  0  0  0  0  0
   -3.5265    3.2537    6.1017 H   0  0  0  0  0  0  0  0  0  0  0  0
    1.8155    2.3550    9.2210 H   0  0  0  0  0  0  0  0  0  0  0  0
    4.6416    4.7059    9.5716 H   0  0  0  0  0  0  0  0  0  0  0  0
    3.5088    4.4551   11.4308 H   0  0  0  0  0  0  0  0  0  0  0  0
    2.0524    4.0076   10.6561 H   0  0  0  0  0  0  0  0  0  0  0  0
    4.1591    2.3629   11.9413 H   0  0  0  0  0  0  0  0  0  0  0  0
    1.1701    1.8491   11.6399 H   0  0  0  0  0  0  0  0  0  0  0  0
    1.9528    2.7159   12.9544 H   0  0  0  0  0  0  0  0  0  0  0  0
    2.2716    1.0063   12.7263 H   0  0  0  0  0  0  0  0  0  0  0  0
    4.6850    0.9452   10.4513 H   0  0  0  0  0  0  0  0  0  0  0  0
    3.4418   -0.6778   10.0257 H   0  0  0  0  0  0  0  0  0  0  0  0
    3.3882    6.6078    8.6451 H   0  0  0  0  0  0  0  0  0  0  0  0
    1.8928    5.9499    9.1932 H   0  0  0  0  0  0  0  0  0  0  0  0
    2.0844    6.3701    7.4900 H   0  0  0  0  0  0  0  0  0  0  0  0
    3.7560    5.0605    6.0492 H   0  0  0  0  0  0  0  0  0  0  0  0
    5.6667    5.8088    6.4448 H   0  0  0  0  0  0  0  0  0  0  0  0
    5.2136    3.6263    5.3176 H   0  0  0  0  0  0  0  0  0  0  0  0
    6.3766    3.1881    7.7878 H   0  0  0  0  0  0  0  0  0  0  0  0
    3.5379    1.9098    6.0814 H   0  0  0  0  0  0  0  0  0  0  0  0
    4.7645    1.2042    4.3083 H   0  0  0  0  0  0  0  0  0  0  0  0
    6.2610    1.0773    5.2361 H   0  0  0  0  0  0  0  0  0  0  0  0
    4.1428   -0.9405    5.0092 H   0  0  0  0  0  0  0  0  0  0  0  0
    5.7166   -1.0735    5.7749 H   0  0  0  0  0  0  0  0  0  0  0  0
    3.0891   -0.2907    6.9054 H   0  0  0  0  0  0  0  0  0  0  0  0
    3.8125   -1.5101    8.5826 H   0  0  0  0  0  0  0  0  0  0  0  0
    6.7414    0.4886    7.4608 H   0  0  0  0  0  0  0  0  0  0  0  0
    6.0729    0.0030    8.9901 H   0  0  0  0  0  0  0  0  0  0  0  0
    6.4925    1.6607    8.7285 H   0  0  0  0  0  0  0  0  0  0  0  0
  1  2  1  0
  1 38  1  0
  1 39  1  0
  1 40  1  0
  2  3  2  0
  2  4  1  0
  4  5  1  0
  5 16  1  0
  5  6  1  0
  5 41  1  1
  6  7  1  0
  6 42  1  0
  6 43  1  0
  7 14  1  0
  7  8  1  0
  7 44  1  1
  8  9  1  0
  8 45  1  0
  8 46  1  0
  9 25  1  0
  9 10  1  6
  9 16  1  0
 10 11  1  0
 10 47  1  0
 10 48  1  0
 11 12  1  0
 11 49  1  0
 11 50  1  0
 12 13  1  0
 12 14  2  0
 13 51  1  0
 13 52  1  0
 13 53  1  0
 14 15  1  0
 15 54  1  0
 15 55  1  0
 15 56  1  0
 16 17  1  0
 16 57  1  1
 17 23  1  0
 17 36  1  0
 17 18  1  1
 18 19  1  0
 19 20  1  0
 19 25  1  0
 19 58  1  1
 20 21  1  0
 20 59  1  0
 20 60  1  0
 21 22  1  0
 21 23  1  0
 21 61  1  1
 22 62  1  0
 22 63  1  0
 22 64  1  0
 23 24  1  0
 23 65  1  1
 24 66  1  0
 25 26  1  1
 25 27  1  0
 26 67  1  0
 26 68  1  0
 26 69  1  0
 27 28  1  0
 27 29  1  0
 27 70  1  6
 28 71  1  0
 29 30  1  0
 29 31  1  0
 29 72  1  6
 30 73  1  0
 31 36  1  0
 31 32  1  0
 31 74  1  6
 32 33  1  0
 32 75  1  0
 32 76  1  0
 33 34  1  0
 33 77  1  0
 33 78  1  0
 34 35  1  0
 34 36  1  0
 34 79  1  6
 35 80  1  0
 36 37  1  1
 37 81  1  0
 37 82  1  0
 37 83  1  0
M  END
>  <i_m_ct_stereo_status>  (167) 
1

>  <s_m_source_file>  (167) 
/var/tmp/pbs.5076255.sched01/tmpstc2q6q5/48db17pvb_.sdf

>  <i_m_source_file_index>  (167) 
20

>  <i_lp_mmshare_version>  (167) 
48012

>  <i_f3d_flags>  (167) 
0

>  <s_epik_input>  (167) 
W0NIMl0xW0NIMl1DKFtDSDNdKT1DKFtDSDNdKVtDQEhdKFtDSDJdMilbQ0gyXVtDQEBIXShPQyg9TylbQ0gzXSlbQ0BIXShbQ0BAXTEyMylbQ0BAXTQ1W0NAXTYoW0NIM10pW0NASF0oW0NIMl1bQ0gyXVtDQEhdNltPSF0pW0NASF0oW09IXSlbQ0BIXShbT0hdKVtDQF0zKFtDSDNdKVtDQEhdKE80KVtDSDJdW0NAQEhdKFtDSDNdKVtDQEhdNVtPSF0=

>  <s_epik_cmdline>  (167) 
J2VwaWtfcHl0aG9uJywgJy1waHQnLCAnMi4wJywgJy1waCcsICc3LjAnLCAnLXRuJywgJzgnLCAnLW1hJywgJzIwMCcsICctaW1hZScsICc8aW5maWxlLm1hZT4nLCAnLW9tYWUnLCAnPG91dGZpbGUubWFlPic=

>  <r_lp_tautomer_probability>  (167) 
1

>  <r_epik_Ionization_Penalty>  (167) 
7.61717e-07

>  <r_epik_Ionization_Penalty_Charging>  (167) 
0

>  <r_epik_Ionization_Penalty_Neutral>  (167) 
7.61717e-07

>  <r_epik_State_Penalty>  (167) 
-0

>  <r_epik_Charging_Adjusted_Penalty>  (167) 
0

>  <i_epik_Tot_Q>  (167) 
0

>  <i_epik_Tot_abs_Q>  (167) 
0

>  <s_epik_Chemistry_Notes>  (167) 
This compound has an ester and may undergo hydrolysis at high or low pH.

>  <s_lp_Force_Field>  (167) 
OPLS3e

>  <r_lp_Energy>  (167) 
138.046

>  <b_lp_Chiralities_Consistent>  (167) 
1

>  <s_lp_Variant>  (167) 
36:0-1

>  <s_i_glide_gridfile>  (167) 
pfpi4k_grid

>  <i_i_glide_lignum>  (167) 
20

>  <i_i_glide_rotatable_bonds>  (167) 
6

>  <r_i_docking_score>  (167) 
-1.45634

>  <r_i_glide_ligand_efficiency>  (167) 
-0.0393604

>  <r_i_glide_ligand_efficiency_sa>  (167) 
-0.131158

>  <r_i_glide_ligand_efficiency_ln>  (167) 
-0.315845

>  <r_i_glide_gscore>  (167) 
-1.45634

>  <r_i_glide_lipo>  (167) 
-0.276305

>  <r_i_glide_hbond>  (167) 
0

>  <r_i_glide_metal>  (167) 
-0

>  <r_i_glide_rewards>  (167) 
-0.5

>  <r_i_glide_evdw>  (167) 
-18.4698

>  <r_i_glide_ecoul>  (167) 
1.21355

>  <r_i_glide_erotb>  (167) 
0.0763479

>  <r_i_glide_esite>  (167) 
-0.0149213

>  <r_i_glide_emodel>  (167) 
-21.2751

>  <r_i_glide_energy>  (167) 
-17.2563

>  <r_i_glide_einternal>  (167) 
6.40451

>  <r_i_glide_intrahb_reward>  (167) 
-0.5

>  <i_i_glide_confnum>  (167) 
2

>  <i_i_glide_posenum>  (167) 
9

>  <r_i_glide_eff_state_penalty>  (167) 
0

>  <ligand_id>  (167) 
36

>  <original_smiles>  (167) 
CC(=O)OC1CC2CC3(CCC(C)=C2C)C1C12OC(CC(C)C1O)C3(C)C(O)C(O)C1CCC(O)C12C

>  <smiles>  (167) 
[H]OC1([H])C([H])(O[H])C2(C([H])([H])[H])C3([H])OC(C([H])(O[H])C([H])(C([H])([H])[H])C3([H])[H])(C3([H])C([H])(OC(=O)C([H])([H])[H])C([H])([H])C4([H])C(C([H])([H])[H])=C(C([H])([H])[H])C([H])([H])C([H])([H])C32C4([H])[H])C2(C([H])([H])[H])C([H])(O[H])C([H])([H])C([H])([H])C12[H]

$$$$
36:0:2
     RDKit          3D

 83 88  0  0  1  0  0  0  0  0999 V2000
   -0.5658    1.1484    8.8899 C   0  0  0  0  0  0  0  0  0  0  0  0
   -0.1928    0.7370    7.4440 C   0  0  0  0  0  0  0  0  0  0  0  0
   -0.0963   -0.4239    7.0863 O   0  0  0  0  0  0  0  0  0  0  0  0
    0.0629    1.7935    6.6031 O   0  0  0  0  0  0  0  0  0  0  0  0
   -0.1867    3.1485    6.9445 C   0  0  2  0  0  0  0  0  0  0  0  0
   -1.4036    3.6628    6.1507 C   0  0  0  0  0  0  0  0  0  0  0  0
   -1.0865    4.1261    4.7098 C   0  0  1  0  0  0  0  0  0  0  0  0
    0.1685    5.0287    4.6002 C   0  0  0  0  0  0  0  0  0  0  0  0
    1.4640    4.5118    5.3323 C   0  0  2  0  0  0  0  0  0  0  0  0
    1.9526    3.3906    4.3173 C   0  0  0  0  0  0  0  0  0  0  0  0
    1.1904    2.1075    3.9046 C   0  0  0  0  0  0  0  0  0  0  0  0
   -0.2328    2.1368    3.3487 C   0  0  0  0  0  0  0  0  0  0  0  0
   -0.4983    0.9683    2.4060 C   0  0  0  0  0  0  0  0  0  0  0  0
   -1.2129    3.0104    3.6787 C   0  0  0  0  0  0  0  0  0  0  0  0
   -2.6013    2.9459    3.0354 C   0  0  0  0  0  0  0  0  0  0  0  0
    1.0056    4.1354    6.8059 C   0  0  2  0  0  0  0  0  0  0  0  0
    1.9457    4.4800    8.0721 C   0  0  1  0  0  0  0  0  0  0  0  0
    2.8909    5.5107    7.8027 O   0  0  0  0  0  0  0  0  0  0  0  0
    2.5625    6.4418    6.8264 C   0  0  2  0  0  0  0  0  0  0  0  0
    1.2977    7.2081    7.3192 C   0  0  0  0  0  0  0  0  0  0  0  0
    0.7414    6.7525    8.7173 C   0  0  1  0  0  0  0  0  0  0  0  0
   -0.7673    7.0708    8.8372 C   0  0  0  0  0  0  0  0  0  0  0  0
    1.1752    5.2998    9.1772 C   0  0  1  0  0  0  0  0  0  0  0  0
    0.1444    4.5711    9.8176 O   0  0  0  0  0  0  0  0  0  0  0  0
    2.6236    5.6392    5.4768 C   0  0  2  0  0  0  0  0  0  0  0  0
    2.4834    6.6980    4.3379 C   0  0  0  0  0  0  0  0  0  0  0  0
    4.1063    5.0060    5.4098 C   0  0  1  0  0  0  0  0  0  0  0  0
    5.0877    6.0175    5.2366 O   0  0  0  0  0  0  0  0  0  0  0  0
    4.6988    3.9453    6.4599 C   0  0  1  0  0  0  0  0  0  0  0  0
    5.6416    4.5262    7.3433 O   0  0  0  0  0  0  0  0  0  0  0  0
    3.7976    2.9359    7.2618 C   0  0  1  0  0  0  0  0  0  0  0  0
    4.4816    1.6154    7.6649 C   0  0  0  0  0  0  0  0  0  0  0  0
    3.5837    0.9843    8.7415 C   0  0  0  0  0  0  0  0  0  0  0  0
    2.4924    2.0245    8.9946 C   0  0  1  0  0  0  0  0  0  0  0  0
    2.0369    1.9614   10.3325 O   0  0  0  0  0  0  0  0  0  0  0  0
    3.0139    3.4048    8.5334 C   0  0  2  0  0  0  0  0  0  0  0  0
    3.9396    3.9216    9.6927 C   0  0  0  0  0  0  0  0  0  0  0  0
   -1.4307    1.7986    8.8844 H   0  0  0  0  0  0  0  0  0  0  0  0
    0.2350    1.7136    9.3033 H   0  0  0  0  0  0  0  0  0  0  0  0
   -0.7104    0.2703    9.4928 H   0  0  0  0  0  0  0  0  0  0  0  0
   -0.4812    3.1792    7.9830 H   0  0  0  0  0  0  0  0  0  0  0  0
   -2.2289    2.9507    6.1792 H   0  0  0  0  0  0  0  0  0  0  0  0
   -1.7763    4.5272    6.6953 H   0  0  0  0  0  0  0  0  0  0  0  0
   -1.9121    4.7973    4.4649 H   0  0  0  0  0  0  0  0  0  0  0  0
    0.3469    5.2215    3.5421 H   0  0  0  0  0  0  0  0  0  0  0  0
   -0.1460    5.9906    4.9998 H   0  0  0  0  0  0  0  0  0  0  0  0
    2.1759    3.9001    3.3802 H   0  0  0  0  0  0  0  0  0  0  0  0
    2.9020    2.9682    4.6038 H   0  0  0  0  0  0  0  0  0  0  0  0
    1.7900    1.7153    3.0818 H   0  0  0  0  0  0  0  0  0  0  0  0
    1.2882    1.3166    4.6457 H   0  0  0  0  0  0  0  0  0  0  0  0
    0.1670    0.1255    2.6112 H   0  0  0  0  0  0  0  0  0  0  0  0
   -0.3504    1.2730    1.3686 H   0  0  0  0  0  0  0  0  0  0  0  0
   -1.5109    0.5726    2.5082 H   0  0  0  0  0  0  0  0  0  0  0  0
   -2.9789    3.9341    2.7703 H   0  0  0  0  0  0  0  0  0  0  0  0
   -3.3146    2.4747    3.7128 H   0  0  0  0  0  0  0  0  0  0  0  0
   -2.6189    2.3809    2.1026 H   0  0  0  0  0  0  0  0  0  0  0  0
    0.3683    4.9880    6.9530 H   0  0  0  0  0  0  0  0  0  0  0  0
    3.3845    7.1566    6.8484 H   0  0  0  0  0  0  0  0  0  0  0  0
    1.5186    8.2760    7.3667 H   0  0  0  0  0  0  0  0  0  0  0  0
    0.5201    7.1512    6.5680 H   0  0  0  0  0  0  0  0  0  0  0  0
    1.2087    7.4182    9.4411 H   0  0  0  0  0  0  0  0  0  0  0  0
   -1.3791    6.4592    8.1723 H   0  0  0  0  0  0  0  0  0  0  0  0
   -0.9611    8.1144    8.5898 H   0  0  0  0  0  0  0  0  0  0  0  0
   -1.1248    6.9213    9.8559 H   0  0  0  0  0  0  0  0  0  0  0  0
    1.8700    5.4829    9.9941 H   0  0  0  0  0  0  0  0  0  0  0  0
   -0.5418    4.3850    9.1989 H   0  0  0  0  0  0  0  0  0  0  0  0
    3.2454    7.4751    4.3848 H   0  0  0  0  0  0  0  0  0  0  0  0
    1.5431    7.2493    4.3875 H   0  0  0  0  0  0  0  0  0  0  0  0
    2.5376    6.2456    3.3474 H   0  0  0  0  0  0  0  0  0  0  0  0
    4.1972    4.5402    4.4325 H   0  0  0  0  0  0  0  0  0  0  0  0
    4.8430    6.5355    4.4814 H   0  0  0  0  0  0  0  0  0  0  0  0
    5.3307    3.3069    5.8452 H   0  0  0  0  0  0  0  0  0  0  0  0
    6.2651    5.0044    6.8212 H   0  0  0  0  0  0  0  0  0  0  0  0
    3.0352    2.5834    6.5845 H   0  0  0  0  0  0  0  0  0  0  0  0
    4.5954    0.9409    6.8145 H   0  0  0  0  0  0  0  0  0  0  0  0
    5.4653    1.8017    8.0971 H   0  0  0  0  0  0  0  0  0  0  0  0
    3.1041    0.0653    8.3997 H   0  0  0  0  0  0  0  0  0  0  0  0
    4.1537    0.7406    9.6468 H   0  0  0  0  0  0  0  0  0  0  0  0
    1.7054    1.7926    8.3399 H   0  0  0  0  0  0  0  0  0  0  0  0
    1.5561    1.0941   10.4413 H   0  0  0  0  0  0  0  0  0  0  0  0
    4.7657    3.2291    9.8837 H   0  0  0  0  0  0  0  0  0  0  0  0
    3.3891    3.9995   10.6399 H   0  0  0  0  0  0  0  0  0  0  0  0
    4.3787    4.9111    9.5209 H   0  0  0  0  0  0  0  0  0  0  0  0
  1  2  1  0
  1 38  1  0
  1 39  1  0
  1 40  1  0
  2  3  2  0
  2  4  1  0
  4  5  1  0
  5 16  1  0
  5  6  1  0
  5 41  1  1
  6  7  1  0
  6 42  1  0
  6 43  1  0
  7 14  1  0
  7  8  1  0
  7 44  1  6
  8  9  1  0
  8 45  1  0
  8 46  1  0
  9 25  1  0
  9 10  1  6
  9 16  1  0
 10 11  1  0
 10 47  1  0
 10 48  1  0
 11 12  1  0
 11 49  1  0
 11 50  1  0
 12 13  1  0
 12 14  2  0
 13 51  1  0
 13 52  1  0
 13 53  1  0
 14 15  1  0
 15 54  1  0
 15 55  1  0
 15 56  1  0
 16 17  1  0
 16 57  1  1
 17 23  1  0
 17 36  1  0
 17 18  1  6
 18 19  1  0
 19 20  1  0
 19 25  1  0
 19 58  1  6
 20 21  1  0
 20 59  1  0
 20 60  1  0
 21 22  1  0
 21 23  1  0
 21 61  1  1
 22 62  1  0
 22 63  1  0
 22 64  1  0
 23 24  1  0
 23 65  1  1
 24 66  1  0
 25 26  1  6
 25 27  1  0
 26 67  1  0
 26 68  1  0
 26 69  1  0
 27 28  1  0
 27 29  1  0
 27 70  1  6
 28 71  1  0
 29 30  1  0
 29 31  1  0
 29 72  1  6
 30 73  1  0
 31 36  1  0
 31 32  1  0
 31 74  1  6
 32 33  1  0
 32 75  1  0
 32 76  1  0
 33 34  1  0
 33 77  1  0
 33 78  1  0
 34 35  1  0
 34 36  1  0
 34 79  1  6
 35 80  1  0
 36 37  1  1
 37 81  1  0
 37 82  1  0
 37 83  1  0
M  END
>  <i_m_ct_stereo_status>  (168) 
1

>  <s_m_source_file>  (168) 
/var/tmp/pbs.5076255.sched01/tmpstc2q6q5/48db17pvb_.sdf

>  <i_m_source_file_index>  (168) 
20

>  <i_lp_mmshare_version>  (168) 
48012

>  <i_f3d_flags>  (168) 
0

>  <s_epik_input>  (168) 
W0NIMl0xW0NIMl1DKFtDSDNdKT1DKFtDSDNdKVtDQEhdKFtDSDJdMilbQ0gyXVtDQEBIXShPQyg9TylbQ0gzXSlbQ0BIXShbQ0BAXTEyMylbQ0BAXTQ1W0NAXTYoW0NIM10pW0NASF0oW0NIMl1bQ0gyXVtDQEhdNltPSF0pW0NASF0oW09IXSlbQ0BIXShbT0hdKVtDQF0zKFtDSDNdKVtDQEhdKE80KVtDSDJdW0NAQEhdKFtDSDNdKVtDQEhdNVtPSF0=

>  <s_epik_cmdline>  (168) 
J2VwaWtfcHl0aG9uJywgJy1waHQnLCAnMi4wJywgJy1waCcsICc3LjAnLCAnLXRuJywgJzgnLCAnLW1hJywgJzIwMCcsICctaW1hZScsICc8aW5maWxlLm1hZT4nLCAnLW9tYWUnLCAnPG91dGZpbGUubWFlPic=

>  <r_lp_tautomer_probability>  (168) 
1

>  <r_epik_Ionization_Penalty>  (168) 
7.61717e-07

>  <r_epik_Ionization_Penalty_Charging>  (168) 
0

>  <r_epik_Ionization_Penalty_Neutral>  (168) 
7.61717e-07

>  <r_epik_State_Penalty>  (168) 
-0

>  <r_epik_Charging_Adjusted_Penalty>  (168) 
0

>  <i_epik_Tot_Q>  (168) 
0

>  <i_epik_Tot_abs_Q>  (168) 
0

>  <s_epik_Chemistry_Notes>  (168) 
This compound has an ester and may undergo hydrolysis at high or low pH.

>  <s_lp_Force_Field>  (168) 
OPLS3e

>  <r_lp_Energy>  (168) 
138.046

>  <b_lp_Chiralities_Consistent>  (168) 
1

>  <s_lp_Variant>  (168) 
36:0-1

>  <s_i_glide_gridfile>  (168) 
pfpi4k_grid

>  <i_i_glide_lignum>  (168) 
20

>  <i_i_glide_rotatable_bonds>  (168) 
6

>  <r_i_docking_score>  (168) 
-0.952301

>  <r_i_glide_ligand_efficiency>  (168) 
-0.0257379

>  <r_i_glide_ligand_efficiency_sa>  (168) 
-0.0857643

>  <r_i_glide_ligand_efficiency_ln>  (168) 
-0.206532

>  <r_i_glide_gscore>  (168) 
-0.952301

>  <r_i_glide_lipo>  (168) 
-0.0160755

>  <r_i_glide_hbond>  (168) 
0

>  <r_i_glide_metal>  (168) 
-0

>  <r_i_glide_rewards>  (168) 
0

>  <r_i_glide_evdw>  (168) 
-25.2757

>  <r_i_glide_ecoul>  (168) 
0.191887

>  <r_i_glide_erotb>  (168) 
0.0763479

>  <r_i_glide_esite>  (168) 
-0.0338748

>  <r_i_glide_emodel>  (168) 
-18.8997

>  <r_i_glide_energy>  (168) 
-25.0839

>  <r_i_glide_einternal>  (168) 
6.87616

>  <r_i_glide_intrahb_reward>  (168) 
-0

>  <i_i_glide_confnum>  (168) 
4

>  <i_i_glide_posenum>  (168) 
24

>  <r_i_glide_eff_state_penalty>  (168) 
0

>  <ligand_id>  (168) 
36

>  <original_smiles>  (168) 
CC(=O)OC1CC2CC3(CCC(C)=C2C)C1C12OC(CC(C)C1O)C3(C)C(O)C(O)C1CCC(O)C12C

>  <smiles>  (168) 
[H]OC1([H])C([H])(O[H])C2(C([H])([H])[H])C3([H])OC(C([H])(O[H])C([H])(C([H])([H])[H])C3([H])[H])(C3([H])C([H])(OC(=O)C([H])([H])[H])C([H])([H])C4([H])C(C([H])([H])[H])=C(C([H])([H])[H])C([H])([H])C([H])([H])C32C4([H])[H])C2(C([H])([H])[H])C([H])(O[H])C([H])([H])C([H])([H])C12[H]

$$$$
37:0:0
     RDKit          3D

 39 42  0  0  1  0  0  0  0  0999 V2000
    3.7508  -10.9579    3.5050 C   0  0  0  0  0  0  0  0  0  0  0  0
    2.3521  -10.5042    3.5284 N   0  0  0  0  0  0  0  0  0  0  0  0
    1.4130  -11.0897    4.2827 C   0  0  0  0  0  0  0  0  0  0  0  0
    0.2652  -10.4331    4.0598 N   0  0  0  0  0  0  0  0  0  0  0  0
    0.4769   -9.4231    3.1662 C   0  0  0  0  0  0  0  0  0  0  0  0
    1.8073   -9.4531    2.8225 C   0  0  0  0  0  0  0  0  0  0  0  0
    2.6216   -8.6104    1.8914 C   0  0  0  0  0  0  0  0  0  0  0  0
    2.0889   -7.1670    1.7717 C   0  0  0  0  0  0  0  0  0  0  0  0
    3.0251   -6.2851    0.9401 C   0  0  0  0  0  0  0  0  0  0  0  0
    4.1299   -6.6933    0.5809 O   0  0  0  0  0  0  0  0  0  0  0  0
    2.4891   -5.0801    0.6526 O   0  0  0  0  0  0  0  0  0  0  0  0
    3.1005   -4.2140   -0.3107 C   0  0  2  0  0  0  0  0  0  0  0  0
    4.5942   -3.8508   -0.1556 C   0  0  2  0  0  0  0  0  0  0  0  0
    4.1840   -3.0052    0.9427 O   0  0  0  0  0  0  0  0  0  0  0  0
    3.0681   -2.7243    0.0658 C   0  0  1  0  0  0  0  0  0  0  0  0
    3.8269   -1.8591   -0.9415 C   0  0  2  0  0  0  0  0  0  0  0  0
    3.2169   -1.7486   -2.3413 C   0  0  0  0  0  0  0  0  0  0  0  0
    4.2613   -2.1330   -3.2347 O   0  0  0  0  0  0  0  0  0  0  0  0
    5.0338   -3.1469   -2.6016 C   0  0  0  0  0  0  0  0  0  0  0  0
    5.0245   -2.7618   -1.1196 C   0  0  2  0  0  0  0  0  0  0  0  0
    3.8808  -11.8202    4.1655 H   0  0  0  0  0  0  0  0  0  0  0  0
    4.3933  -10.1363    3.8354 H   0  0  0  0  0  0  0  0  0  0  0  0
    4.0156  -11.2340    2.4846 H   0  0  0  0  0  0  0  0  0  0  0  0
    1.5688  -11.9297    4.9354 H   0  0  0  0  0  0  0  0  0  0  0  0
   -0.3133   -8.7620    2.8347 H   0  0  0  0  0  0  0  0  0  0  0  0
    3.6539   -8.5946    2.2482 H   0  0  0  0  0  0  0  0  0  0  0  0
    2.6299   -9.0997    0.9130 H   0  0  0  0  0  0  0  0  0  0  0  0
    1.1007   -7.1720    1.3076 H   0  0  0  0  0  0  0  0  0  0  0  0
    1.9887   -6.7154    2.7614 H   0  0  0  0  0  0  0  0  0  0  0  0
    2.7633   -4.3710   -1.3324 H   0  0  0  0  0  0  0  0  0  0  0  0
    5.3188   -4.6244    0.0949 H   0  0  0  0  0  0  0  0  0  0  0  0
    2.1740   -2.3356    0.5573 H   0  0  0  0  0  0  0  0  0  0  0  0
    4.1218   -0.8947   -0.5291 H   0  0  0  0  0  0  0  0  0  0  0  0
    2.3631   -2.4197   -2.4518 H   0  0  0  0  0  0  0  0  0  0  0  0
    2.8774   -0.7339   -2.5509 H   0  0  0  0  0  0  0  0  0  0  0  0
    4.5773   -4.1254   -2.7648 H   0  0  0  0  0  0  0  0  0  0  0  0
    6.0451   -3.1806   -3.0092 H   0  0  0  0  0  0  0  0  0  0  0  0
    5.9479   -2.2834   -0.8023 H   0  0  0  0  0  0  0  0  0  0  0  0
   -0.6384  -10.6610    4.4908 H   0  0  0  0  0  0  0  0  0  0  0  0
  1  2  1  0
  1 21  1  0
  1 22  1  0
  1 23  1  0
  2  6  1  0
  2  3  1  0
  3  4  2  0
  3 24  1  0
  4  5  1  0
  4 39  1  0
  5  6  2  0
  5 25  1  0
  6  7  1  0
  7  8  1  0
  7 26  1  0
  7 27  1  0
  8  9  1  0
  8 28  1  0
  8 29  1  0
  9 10  2  0
  9 11  1  0
 11 12  1  0
 12 15  1  0
 12 13  1  0
 12 30  1  6
 13 20  1  0
 13 14  1  0
 13 31  1  1
 14 15  1  0
 15 16  1  0
 15 32  1  1
 16 20  1  0
 16 17  1  0
 16 33  1  1
 17 18  1  0
 17 34  1  0
 17 35  1  0
 18 19  1  0
 19 20  1  0
 19 36  1  0
 19 37  1  0
 20 38  1  1
M  CHG  1   4   1
M  END
>  <i_m_ct_stereo_status>  (169) 
1

>  <s_m_source_file>  (169) 
/var/tmp/pbs.5076255.sched01/tmpstc2q6q5/48db17pvb_.sdf

>  <i_m_source_file_index>  (169) 
21

>  <i_lp_mmshare_version>  (169) 
48012

>  <i_f3d_flags>  (169) 
0

>  <s_epik_input>  (169) 
W0NIM11uMVtjSF1uW2NIXWMxW0NIMl1bQ0gyXUMoPU8pT1tDQEhdMltDQEBIXShPMylbQ0BASF0oW0NASF00W0NASF0yMylbQ0gyXU9bQ0gyXTQ=

>  <s_epik_cmdline>  (169) 
J2VwaWtfcHl0aG9uJywgJy1waHQnLCAnMi4wJywgJy1waCcsICc3LjAnLCAnLXRuJywgJzgnLCAnLW1hJywgJzIwMCcsICctaW1hZScsICc8aW5maWxlLm1hZT4nLCAnLW9tYWUnLCAnPG91dGZpbGUubWFlPic=

>  <r_lp_tautomer_probability>  (169) 
1

>  <r_epik_Ionization_Penalty>  (169) 
0.168184

>  <r_epik_Ionization_Penalty_Charging>  (169) 
0

>  <r_epik_Ionization_Penalty_Neutral>  (169) 
0.168184

>  <r_epik_State_Penalty>  (169) 
0.157546

>  <r_epik_Charging_Adjusted_Penalty>  (169) 
0.157546

>  <i_epik_Tot_Q>  (169) 
1

>  <i_epik_Tot_abs_Q>  (169) 
1

>  <s_epik_Chemistry_Notes>  (169) 
This compound has an ester and may undergo hydrolysis at high or low pH.

>  <s_lp_Force_Field>  (169) 
OPLS3e

>  <r_lp_Energy>  (169) 
29.8766

>  <b_lp_Chiralities_Consistent>  (169) 
1

>  <s_lp_Variant>  (169) 
37:0-1

>  <s_i_glide_gridfile>  (169) 
pfpi4k_grid

>  <i_i_glide_lignum>  (169) 
21

>  <i_i_glide_rotatable_bonds>  (169) 
5

>  <r_i_docking_score>  (169) 
-3.65478

>  <r_i_glide_ligand_efficiency>  (169) 
-0.182739

>  <r_i_glide_ligand_efficiency_sa>  (169) 
-0.496029

>  <r_i_glide_ligand_efficiency_ln>  (169) 
-0.91467

>  <r_i_glide_gscore>  (169) 
-3.65478

>  <r_i_glide_lipo>  (169) 
-0.236638

>  <r_i_glide_hbond>  (169) 
-0.2

>  <r_i_glide_metal>  (169) 
-0

>  <r_i_glide_rewards>  (169) 
-1.59277

>  <r_i_glide_evdw>  (169) 
-22.6987

>  <r_i_glide_ecoul>  (169) 
-8.96943

>  <r_i_glide_erotb>  (169) 
0.924998

>  <r_i_glide_esite>  (169) 
-0.0700221

>  <r_i_glide_emodel>  (169) 
-39.7542

>  <r_i_glide_energy>  (169) 
-31.6681

>  <r_i_glide_einternal>  (169) 
2.86393

>  <r_i_glide_intrahb_reward>  (169) 
-0

>  <i_i_glide_confnum>  (169) 
4

>  <i_i_glide_posenum>  (169) 
19

>  <r_i_glide_eff_state_penalty>  (169) 
0

>  <ligand_id>  (169) 
37

>  <original_smiles>  (169) 
Cn1cncc1CCC(=O)OC1C2OC1C1COCC12

>  <smiles>  (169) 
[H]c1c(C([H])([H])C([H])([H])C(=O)OC2([H])C3([H])OC2([H])C2([H])C([H])([H])OC([H])([H])C32[H])n(C([H])([H])[H])c([H])[n+]1[H]

$$$$
37:0:1
     RDKit          3D

 39 42  0  0  1  0  0  0  0  0999 V2000
    3.6614  -11.4457    3.5813 C   0  0  0  0  0  0  0  0  0  0  0  0
    2.3321  -10.8241    3.6033 N   0  0  0  0  0  0  0  0  0  0  0  0
    1.2947  -11.3532    4.2696 C   0  0  0  0  0  0  0  0  0  0  0  0
    0.2485  -10.5376    4.0787 N   0  0  0  0  0  0  0  0  0  0  0  0
    0.6241   -9.4846    3.2906 C   0  0  0  0  0  0  0  0  0  0  0  0
    1.9589   -9.6483    2.9901 C   0  0  0  0  0  0  0  0  0  0  0  0
    2.9171   -8.8283    2.1733 C   0  0  0  0  0  0  0  0  0  0  0  0
    2.5042   -7.3456    2.0715 C   0  0  0  0  0  0  0  0  0  0  0  0
    3.4381   -6.5101    1.1917 C   0  0  0  0  0  0  0  0  0  0  0  0
    4.5865   -6.8649    0.9252 O   0  0  0  0  0  0  0  0  0  0  0  0
    2.8514   -5.3841    0.7580 O   0  0  0  0  0  0  0  0  0  0  0  0
    3.5542   -4.5397   -0.1490 C   0  0  2  0  0  0  0  0  0  0  0  0
    4.4336   -3.4407    0.4656 C   0  0  2  0  0  0  0  0  0  0  0  0
    3.2030   -2.7508    0.7740 O   0  0  0  0  0  0  0  0  0  0  0  0
    2.8179   -3.2480   -0.5284 C   0  0  1  0  0  0  0  0  0  0  0  0
    3.6748   -2.3196   -1.3762 C   0  0  2  0  0  0  0  0  0  0  0  0
    4.0066   -2.8163   -2.7867 C   0  0  0  0  0  0  0  0  0  0  0  0
    5.4227   -2.7373   -2.8698 O   0  0  0  0  0  0  0  0  0  0  0  0
    5.9652   -3.0434   -1.5909 C   0  0  0  0  0  0  0  0  0  0  0  0
    4.9585   -2.4704   -0.5893 C   0  0  2  0  0  0  0  0  0  0  0  0
    3.6633  -12.3771    4.1537 H   0  0  0  0  0  0  0  0  0  0  0  0
    4.3845  -10.7516    4.0148 H   0  0  0  0  0  0  0  0  0  0  0  0
    3.9387  -11.6480    2.5444 H   0  0  0  0  0  0  0  0  0  0  0  0
    1.3084  -12.2542    4.8576 H   0  0  0  0  0  0  0  0  0  0  0  0
   -0.0697   -8.7032    3.0109 H   0  0  0  0  0  0  0  0  0  0  0  0
    3.9112   -8.8932    2.6181 H   0  0  0  0  0  0  0  0  0  0  0  0
    2.9794   -9.2785    1.1805 H   0  0  0  0  0  0  0  0  0  0  0  0
    1.4955   -7.2699    1.6650 H   0  0  0  0  0  0  0  0  0  0  0  0
    2.4864   -6.8951    3.0653 H   0  0  0  0  0  0  0  0  0  0  0  0
    4.0127   -5.0517   -0.9946 H   0  0  0  0  0  0  0  0  0  0  0  0
    5.0479   -3.6975    1.3296 H   0  0  0  0  0  0  0  0  0  0  0  0
    1.7455   -3.3032   -0.7100 H   0  0  0  0  0  0  0  0  0  0  0  0
    3.3165   -1.2903   -1.3671 H   0  0  0  0  0  0  0  0  0  0  0  0
    3.6809   -3.8472   -2.9414 H   0  0  0  0  0  0  0  0  0  0  0  0
    3.5458   -2.1975   -3.5571 H   0  0  0  0  0  0  0  0  0  0  0  0
    6.0668   -4.1231   -1.4734 H   0  0  0  0  0  0  0  0  0  0  0  0
    6.9541   -2.5981   -1.4786 H   0  0  0  0  0  0  0  0  0  0  0  0
    5.2771   -1.5170   -0.1695 H   0  0  0  0  0  0  0  0  0  0  0  0
   -0.6877  -10.6818    4.4791 H   0  0  0  0  0  0  0  0  0  0  0  0
  1  2  1  0
  1 21  1  0
  1 22  1  0
  1 23  1  0
  2  6  1  0
  2  3  1  0
  3  4  2  0
  3 24  1  0
  4  5  1  0
  4 39  1  0
  5  6  2  0
  5 25  1  0
  6  7  1  0
  7  8  1  0
  7 26  1  0
  7 27  1  0
  8  9  1  0
  8 28  1  0
  8 29  1  0
  9 10  2  0
  9 11  1  0
 11 12  1  0
 12 15  1  0
 12 13  1  0
 12 30  1  6
 13 20  1  0
 13 14  1  0
 13 31  1  1
 14 15  1  0
 15 16  1  0
 15 32  1  6
 16 20  1  0
 16 17  1  0
 16 33  1  6
 17 18  1  0
 17 34  1  0
 17 35  1  0
 18 19  1  0
 19 20  1  0
 19 36  1  0
 19 37  1  0
 20 38  1  1
M  CHG  1   4   1
M  END
>  <i_m_ct_stereo_status>  (170) 
1

>  <s_m_source_file>  (170) 
/var/tmp/pbs.5076255.sched01/tmpstc2q6q5/48db17pvb_.sdf

>  <i_m_source_file_index>  (170) 
21

>  <i_lp_mmshare_version>  (170) 
48012

>  <i_f3d_flags>  (170) 
0

>  <s_epik_input>  (170) 
W0NIM11uMVtjSF1uW2NIXWMxW0NIMl1bQ0gyXUMoPU8pT1tDQEhdMltDQEBIXShPMylbQ0BASF0oW0NASF00W0NASF0yMylbQ0gyXU9bQ0gyXTQ=

>  <s_epik_cmdline>  (170) 
J2VwaWtfcHl0aG9uJywgJy1waHQnLCAnMi4wJywgJy1waCcsICc3LjAnLCAnLXRuJywgJzgnLCAnLW1hJywgJzIwMCcsICctaW1hZScsICc8aW5maWxlLm1hZT4nLCAnLW9tYWUnLCAnPG91dGZpbGUubWFlPic=

>  <r_lp_tautomer_probability>  (170) 
1

>  <r_epik_Ionization_Penalty>  (170) 
0.168184

>  <r_epik_Ionization_Penalty_Charging>  (170) 
0

>  <r_epik_Ionization_Penalty_Neutral>  (170) 
0.168184

>  <r_epik_State_Penalty>  (170) 
0.157546

>  <r_epik_Charging_Adjusted_Penalty>  (170) 
0.157546

>  <i_epik_Tot_Q>  (170) 
1

>  <i_epik_Tot_abs_Q>  (170) 
1

>  <s_epik_Chemistry_Notes>  (170) 
This compound has an ester and may undergo hydrolysis at high or low pH.

>  <s_lp_Force_Field>  (170) 
OPLS3e

>  <r_lp_Energy>  (170) 
29.8766

>  <b_lp_Chiralities_Consistent>  (170) 
1

>  <s_lp_Variant>  (170) 
37:0-1

>  <s_i_glide_gridfile>  (170) 
pfpi4k_grid

>  <i_i_glide_lignum>  (170) 
21

>  <i_i_glide_rotatable_bonds>  (170) 
5

>  <r_i_docking_score>  (170) 
-3.52927

>  <r_i_glide_ligand_efficiency>  (170) 
-0.176463

>  <r_i_glide_ligand_efficiency_sa>  (170) 
-0.478995

>  <r_i_glide_ligand_efficiency_ln>  (170) 
-0.883259

>  <r_i_glide_gscore>  (170) 
-3.52927

>  <r_i_glide_lipo>  (170) 
-0.145014

>  <r_i_glide_hbond>  (170) 
-0.2

>  <r_i_glide_metal>  (170) 
-0

>  <r_i_glide_rewards>  (170) 
-1.77807

>  <r_i_glide_evdw>  (170) 
-21.8819

>  <r_i_glide_ecoul>  (170) 
-7.796

>  <r_i_glide_erotb>  (170) 
0.924998

>  <r_i_glide_esite>  (170) 
-0.0676867

>  <r_i_glide_emodel>  (170) 
-39.2768

>  <r_i_glide_energy>  (170) 
-29.6779

>  <r_i_glide_einternal>  (170) 
0.628004

>  <r_i_glide_intrahb_reward>  (170) 
-0

>  <i_i_glide_confnum>  (170) 
4

>  <i_i_glide_posenum>  (170) 
20

>  <r_i_glide_eff_state_penalty>  (170) 
0

>  <ligand_id>  (170) 
37

>  <original_smiles>  (170) 
Cn1cncc1CCC(=O)OC1C2OC1C1COCC12

>  <smiles>  (170) 
[H]c1c(C([H])([H])C([H])([H])C(=O)OC2([H])C3([H])OC2([H])C2([H])C([H])([H])OC([H])([H])C32[H])n(C([H])([H])[H])c([H])[n+]1[H]

$$$$
37:0:2
     RDKit          3D

 39 42  0  0  1  0  0  0  0  0999 V2000
    0.5356   -8.6078    4.7669 C   0  0  0  0  0  0  0  0  0  0  0  0
    1.2698   -9.7546    4.2271 N   0  0  0  0  0  0  0  0  0  0  0  0
    1.0136  -11.0182    4.6002 C   0  0  0  0  0  0  0  0  0  0  0  0
    1.8495  -11.8018    3.9143 N   0  0  0  0  0  0  0  0  0  0  0  0
    2.6524  -11.0395    3.1166 C   0  0  0  0  0  0  0  0  0  0  0  0
    2.2860   -9.7273    3.3015 C   0  0  0  0  0  0  0  0  0  0  0  0
    2.7991   -8.4524    2.7071 C   0  0  0  0  0  0  0  0  0  0  0  0
    3.8519   -8.6785    1.6074 C   0  0  0  0  0  0  0  0  0  0  0  0
    4.4654   -7.3563    1.1484 C   0  0  0  0  0  0  0  0  0  0  0  0
    5.6694   -7.1362    1.2660 O   0  0  0  0  0  0  0  0  0  0  0  0
    3.5630   -6.5144    0.6195 O   0  0  0  0  0  0  0  0  0  0  0  0
    4.0000   -5.3109   -0.0002 C   0  0  2  0  0  0  0  0  0  0  0  0
    4.2243   -4.0926    0.9074 C   0  0  2  0  0  0  0  0  0  0  0  0
    2.7834   -3.9969    0.9883 O   0  0  0  0  0  0  0  0  0  0  0  0
    2.8699   -4.3555   -0.4094 C   0  0  1  0  0  0  0  0  0  0  0  0
    3.4029   -3.0327   -0.9432 C   0  0  2  0  0  0  0  0  0  0  0  0
    4.1541   -3.0912   -2.2787 C   0  0  0  0  0  0  0  0  0  0  0  0
    5.4067   -2.4653   -2.0222 O   0  0  0  0  0  0  0  0  0  0  0  0
    5.7898   -2.7710   -0.6872 C   0  0  0  0  0  0  0  0  0  0  0  0
    4.4763   -2.8212    0.1019 C   0  0  2  0  0  0  0  0  0  0  0  0
   -0.2140   -8.9388    5.4902 H   0  0  0  0  0  0  0  0  0  0  0  0
    0.0471   -8.0862    3.9424 H   0  0  0  0  0  0  0  0  0  0  0  0
    1.2476   -7.9369    5.2501 H   0  0  0  0  0  0  0  0  0  0  0  0
    0.2673  -11.3434    5.3046 H   0  0  0  0  0  0  0  0  0  0  0  0
    3.4130  -11.4829    2.4897 H   0  0  0  0  0  0  0  0  0  0  0  0
    1.9519   -7.9016    2.2987 H   0  0  0  0  0  0  0  0  0  0  0  0
    3.2209   -7.8490    3.5103 H   0  0  0  0  0  0  0  0  0  0  0  0
    4.6552   -9.3293    1.9669 H   0  0  0  0  0  0  0  0  0  0  0  0
    3.4030   -9.1779    0.7456 H   0  0  0  0  0  0  0  0  0  0  0  0
    4.7585   -5.4508   -0.7732 H   0  0  0  0  0  0  0  0  0  0  0  0
    4.7291   -4.2446    1.8620 H   0  0  0  0  0  0  0  0  0  0  0  0
    1.9587   -4.7829   -0.8290 H   0  0  0  0  0  0  0  0  0  0  0  0
    2.6557   -2.2412   -0.9183 H   0  0  0  0  0  0  0  0  0  0  0  0
    4.3133   -4.1196   -2.6083 H   0  0  0  0  0  0  0  0  0  0  0  0
    3.6177   -2.5654   -3.0694 H   0  0  0  0  0  0  0  0  0  0  0  0
    6.3139   -3.7285   -0.6589 H   0  0  0  0  0  0  0  0  0  0  0  0
    6.4649   -2.0063   -0.3022 H   0  0  0  0  0  0  0  0  0  0  0  0
    4.2949   -1.9107    0.6731 H   0  0  0  0  0  0  0  0  0  0  0  0
    1.8615  -12.8192    3.9593 H   0  0  0  0  0  0  0  0  0  0  0  0
  1  2  1  0
  1 21  1  0
  1 22  1  0
  1 23  1  0
  2  6  1  0
  2  3  1  0
  3  4  2  0
  3 24  1  0
  4  5  1  0
  4 39  1  0
  5  6  2  0
  5 25  1  0
  6  7  1  0
  7  8  1  0
  7 26  1  0
  7 27  1  0
  8  9  1  0
  8 28  1  0
  8 29  1  0
  9 10  2  0
  9 11  1  0
 11 12  1  0
 12 15  1  0
 12 13  1  0
 12 30  1  6
 13 20  1  0
 13 14  1  0
 13 31  1  1
 14 15  1  0
 15 16  1  0
 15 32  1  6
 16 20  1  0
 16 17  1  0
 16 33  1  6
 17 18  1  0
 17 34  1  0
 17 35  1  0
 18 19  1  0
 19 20  1  0
 19 36  1  0
 19 37  1  0
 20 38  1  1
M  CHG  1   4   1
M  END
>  <i_m_ct_stereo_status>  (171) 
1

>  <s_m_source_file>  (171) 
/var/tmp/pbs.5076255.sched01/tmpstc2q6q5/48db17pvb_.sdf

>  <i_m_source_file_index>  (171) 
21

>  <i_lp_mmshare_version>  (171) 
48012

>  <i_f3d_flags>  (171) 
0

>  <s_epik_input>  (171) 
W0NIM11uMVtjSF1uW2NIXWMxW0NIMl1bQ0gyXUMoPU8pT1tDQEhdMltDQEBIXShPMylbQ0BASF0oW0NASF00W0NASF0yMylbQ0gyXU9bQ0gyXTQ=

>  <s_epik_cmdline>  (171) 
J2VwaWtfcHl0aG9uJywgJy1waHQnLCAnMi4wJywgJy1waCcsICc3LjAnLCAnLXRuJywgJzgnLCAnLW1hJywgJzIwMCcsICctaW1hZScsICc8aW5maWxlLm1hZT4nLCAnLW9tYWUnLCAnPG91dGZpbGUubWFlPic=

>  <r_lp_tautomer_probability>  (171) 
1

>  <r_epik_Ionization_Penalty>  (171) 
0.168184

>  <r_epik_Ionization_Penalty_Charging>  (171) 
0

>  <r_epik_Ionization_Penalty_Neutral>  (171) 
0.168184

>  <r_epik_State_Penalty>  (171) 
0.157546

>  <r_epik_Charging_Adjusted_Penalty>  (171) 
0.157546

>  <i_epik_Tot_Q>  (171) 
1

>  <i_epik_Tot_abs_Q>  (171) 
1

>  <s_epik_Chemistry_Notes>  (171) 
This compound has an ester and may undergo hydrolysis at high or low pH.

>  <s_lp_Force_Field>  (171) 
OPLS3e

>  <r_lp_Energy>  (171) 
29.8766

>  <b_lp_Chiralities_Consistent>  (171) 
1

>  <s_lp_Variant>  (171) 
37:0-1

>  <s_i_glide_gridfile>  (171) 
pfpi4k_grid

>  <i_i_glide_lignum>  (171) 
21

>  <i_i_glide_rotatable_bonds>  (171) 
5

>  <r_i_docking_score>  (171) 
-2.8447

>  <r_i_glide_ligand_efficiency>  (171) 
-0.142235

>  <r_i_glide_ligand_efficiency_sa>  (171) 
-0.386086

>  <r_i_glide_ligand_efficiency_ln>  (171) 
-0.711935

>  <r_i_glide_gscore>  (171) 
-2.8447

>  <r_i_glide_lipo>  (171) 
-0.0247364

>  <r_i_glide_hbond>  (171) 
0

>  <r_i_glide_metal>  (171) 
-0

>  <r_i_glide_rewards>  (171) 
-1.64004

>  <r_i_glide_evdw>  (171) 
-19.0919

>  <r_i_glide_ecoul>  (171) 
-7.33833

>  <r_i_glide_erotb>  (171) 
0.924998

>  <r_i_glide_esite>  (171) 
-0.0495789

>  <r_i_glide_emodel>  (171) 
-34.2388

>  <r_i_glide_energy>  (171) 
-26.4303

>  <r_i_glide_einternal>  (171) 
0.280383

>  <r_i_glide_intrahb_reward>  (171) 
-0

>  <i_i_glide_confnum>  (171) 
4

>  <i_i_glide_posenum>  (171) 
33

>  <r_i_glide_eff_state_penalty>  (171) 
0

>  <ligand_id>  (171) 
37

>  <original_smiles>  (171) 
Cn1cncc1CCC(=O)OC1C2OC1C1COCC12

>  <smiles>  (171) 
[H]c1c(C([H])([H])C([H])([H])C(=O)OC2([H])C3([H])OC2([H])C2([H])C([H])([H])OC([H])([H])C32[H])n(C([H])([H])[H])c([H])[n+]1[H]

$$$$
37:1:0
     RDKit          3D

 39 42  0  0  1  0  0  0  0  0999 V2000
   -1.1073   -0.5893    4.2621 C   0  0  0  0  0  0  0  0  0  0  0  0
   -0.2810    0.1734    3.3089 N   0  0  0  0  0  0  0  0  0  0  0  0
   -0.7342    1.2716    2.6882 C   0  0  0  0  0  0  0  0  0  0  0  0
    0.2669    1.7414    1.9345 N   0  0  0  0  0  0  0  0  0  0  0  0
    1.3452    0.9069    2.0370 C   0  0  0  0  0  0  0  0  0  0  0  0
    1.0159   -0.0950    2.9237 C   0  0  0  0  0  0  0  0  0  0  0  0
    1.8161   -1.2563    3.4490 C   0  0  0  0  0  0  0  0  0  0  0  0
    1.4200   -2.5927    2.7877 C   0  0  0  0  0  0  0  0  0  0  0  0
    2.2954   -3.7773    3.2156 C   0  0  0  0  0  0  0  0  0  0  0  0
    2.9260   -3.7861    4.2694 O   0  0  0  0  0  0  0  0  0  0  0  0
    2.2797   -4.7620    2.3025 O   0  0  0  0  0  0  0  0  0  0  0  0
    3.2162   -5.8246    2.4017 C   0  0  1  0  0  0  0  0  0  0  0  0
    2.8561   -7.0635    3.2398 C   0  0  2  0  0  0  0  0  0  0  0  0
    3.7049   -7.7762    2.3109 O   0  0  0  0  0  0  0  0  0  0  0  0
    3.0432   -6.9283    1.3468 C   0  0  1  0  0  0  0  0  0  0  0  0
    1.7089   -7.6761    1.3646 C   0  0  2  0  0  0  0  0  0  0  0  0
    0.4783   -6.8937    0.8979 C   0  0  0  0  0  0  0  0  0  0  0  0
   -0.0409   -6.2560    2.0552 O   0  0  0  0  0  0  0  0  0  0  0  0
    0.2561   -7.0625    3.1874 C   0  0  0  0  0  0  0  0  0  0  0  0
    1.5642   -7.7844    2.8606 C   0  0  2  0  0  0  0  0  0  0  0  0
   -2.1676   -0.4149    4.0675 H   0  0  0  0  0  0  0  0  0  0  0  0
   -0.8541   -0.2764    5.2766 H   0  0  0  0  0  0  0  0  0  0  0  0
   -0.9026   -1.6533    4.1537 H   0  0  0  0  0  0  0  0  0  0  0  0
   -1.7169    1.7048    2.7854 H   0  0  0  0  0  0  0  0  0  0  0  0
    2.2655    1.0790    1.4940 H   0  0  0  0  0  0  0  0  0  0  0  0
    2.8721   -1.0499    3.2691 H   0  0  0  0  0  0  0  0  0  0  0  0
    1.6862   -1.3055    4.5317 H   0  0  0  0  0  0  0  0  0  0  0  0
    0.3827   -2.8465    2.9994 H   0  0  0  0  0  0  0  0  0  0  0  0
    1.4992   -2.4859    1.7059 H   0  0  0  0  0  0  0  0  0  0  0  0
    4.2557   -5.5125    2.5107 H   0  0  0  0  0  0  0  0  0  0  0  0
    3.2091   -7.0946    4.2709 H   0  0  0  0  0  0  0  0  0  0  0  0
    3.5862   -6.8088    0.4088 H   0  0  0  0  0  0  0  0  0  0  0  0
    1.7877   -8.6552    0.8858 H   0  0  0  0  0  0  0  0  0  0  0  0
    0.7283   -6.1656    0.1233 H   0  0  0  0  0  0  0  0  0  0  0  0
   -0.2817   -7.5643    0.4980 H   0  0  0  0  0  0  0  0  0  0  0  0
    0.3370   -6.4590    4.0934 H   0  0  0  0  0  0  0  0  0  0  0  0
   -0.5437   -7.7901    3.3314 H   0  0  0  0  0  0  0  0  0  0  0  0
    1.5618   -8.8228    3.2015 H   0  0  0  0  0  0  0  0  0  0  0  0
    0.2201    2.6032    1.3749 H   0  0  0  0  0  0  0  0  0  0  0  0
  1  2  1  0
  1 21  1  0
  1 22  1  0
  1 23  1  0
  2  6  1  0
  2  3  1  0
  3  4  2  0
  3 24  1  0
  4  5  1  0
  4 39  1  0
  5  6  2  0
  5 25  1  0
  6  7  1  0
  7  8  1  0
  7 26  1  0
  7 27  1  0
  8  9  1  0
  8 28  1  0
  8 29  1  0
  9 10  2  0
  9 11  1  0
 11 12  1  0
 12 15  1  0
 12 13  1  0
 12 30  1  1
 13 20  1  0
 13 14  1  0
 13 31  1  1
 14 15  1  0
 15 16  1  0
 15 32  1  6
 16 20  1  0
 16 17  1  0
 16 33  1  6
 17 18  1  0
 17 34  1  0
 17 35  1  0
 18 19  1  0
 19 20  1  0
 19 36  1  0
 19 37  1  0
 20 38  1  6
M  CHG  1   4   1
M  END
>  <i_m_ct_stereo_status>  (172) 
1

>  <s_m_source_file>  (172) 
/var/tmp/pbs.5076255.sched01/tmpstc2q6q5/48db17pvb_.sdf

>  <i_m_source_file_index>  (172) 
22

>  <i_lp_mmshare_version>  (172) 
48012

>  <i_f3d_flags>  (172) 
0

>  <s_epik_input>  (172) 
W0NIM11uMVtjSF1uW2NIXWMxW0NIMl1bQ0gyXUMoPU8pT1tDQEhdMltDQEBIXShPMylbQ0BASF0oW0NASF00W0NASF0yMylbQ0gyXU9bQ0gyXTQ=

>  <s_epik_cmdline>  (172) 
J2VwaWtfcHl0aG9uJywgJy1waHQnLCAnMi4wJywgJy1waCcsICc3LjAnLCAnLXRuJywgJzgnLCAnLW1hJywgJzIwMCcsICctaW1hZScsICc8aW5maWxlLm1hZT4nLCAnLW9tYWUnLCAnPG91dGZpbGUubWFlPic=

>  <r_lp_tautomer_probability>  (172) 
1

>  <r_epik_Ionization_Penalty>  (172) 
0.168184

>  <r_epik_Ionization_Penalty_Charging>  (172) 
0

>  <r_epik_Ionization_Penalty_Neutral>  (172) 
0.168184

>  <r_epik_State_Penalty>  (172) 
0.157546

>  <r_epik_Charging_Adjusted_Penalty>  (172) 
0.157546

>  <i_epik_Tot_Q>  (172) 
1

>  <i_epik_Tot_abs_Q>  (172) 
1

>  <s_epik_Chemistry_Notes>  (172) 
This compound has an ester and may undergo hydrolysis at high or low pH.

>  <s_lp_Force_Field>  (172) 
OPLS3e

>  <r_lp_Energy>  (172) 
29.4845

>  <b_lp_Chiralities_Consistent>  (172) 
1

>  <s_lp_Variant>  (172) 
37:0-2

>  <s_i_glide_gridfile>  (172) 
pfpi4k_grid

>  <i_i_glide_lignum>  (172) 
22

>  <i_i_glide_rotatable_bonds>  (172) 
5

>  <r_i_docking_score>  (172) 
-3.40826

>  <r_i_glide_ligand_efficiency>  (172) 
-0.170413

>  <r_i_glide_ligand_efficiency_sa>  (172) 
-0.462572

>  <r_i_glide_ligand_efficiency_ln>  (172) 
-0.852976

>  <r_i_glide_gscore>  (172) 
-3.40826

>  <r_i_glide_lipo>  (172) 
-0.0564269

>  <r_i_glide_hbond>  (172) 
-0.462029

>  <r_i_glide_metal>  (172) 
-0

>  <r_i_glide_rewards>  (172) 
-1.50469

>  <r_i_glide_evdw>  (172) 
-17.3262

>  <r_i_glide_ecoul>  (172) 
-8.59068

>  <r_i_glide_erotb>  (172) 
0.924998

>  <r_i_glide_esite>  (172) 
-0.155199

>  <r_i_glide_emodel>  (172) 
-32.2607

>  <r_i_glide_energy>  (172) 
-25.9169

>  <r_i_glide_einternal>  (172) 
1.55052

>  <r_i_glide_intrahb_reward>  (172) 
-0

>  <i_i_glide_confnum>  (172) 
2

>  <i_i_glide_posenum>  (172) 
11

>  <r_i_glide_eff_state_penalty>  (172) 
0

>  <ligand_id>  (172) 
37

>  <original_smiles>  (172) 
Cn1cncc1CCC(=O)OC1C2OC1C1COCC12

>  <smiles>  (172) 
[H]c1c(C([H])([H])C([H])([H])C(=O)OC2([H])C3([H])OC2([H])C2([H])C([H])([H])OC([H])([H])C32[H])n(C([H])([H])[H])c([H])[n+]1[H]

$$$$
37:1:1
     RDKit          3D

 39 42  0  0  1  0  0  0  0  0999 V2000
    0.1195    1.4202    1.9956 C   0  0  0  0  0  0  0  0  0  0  0  0
    1.1713    1.1932    2.9937 N   0  0  0  0  0  0  0  0  0  0  0  0
    0.9803    1.4651    4.2900 C   0  0  0  0  0  0  0  0  0  0  0  0
    2.1163    1.1540    4.9216 N   0  0  0  0  0  0  0  0  0  0  0  0
    3.0350    0.6822    4.0304 C   0  0  0  0  0  0  0  0  0  0  0  0
    2.4396    0.6886    2.7946 C   0  0  0  0  0  0  0  0  0  0  0  0
    2.9651    0.2933    1.4515 C   0  0  0  0  0  0  0  0  0  0  0  0
    4.1486   -0.6911    1.5438 C   0  0  0  0  0  0  0  0  0  0  0  0
    4.8155   -0.9386    0.1898 C   0  0  0  0  0  0  0  0  0  0  0  0
    6.0420   -0.9157    0.0646 O   0  0  0  0  0  0  0  0  0  0  0  0
    3.9365   -1.1688   -0.7961 O   0  0  0  0  0  0  0  0  0  0  0  0
    4.3771   -1.2519   -2.1402 C   0  0  1  0  0  0  0  0  0  0  0  0
    5.1907   -2.4912   -2.5671 C   0  0  2  0  0  0  0  0  0  0  0  0
    4.6008   -2.2716   -3.8689 O   0  0  0  0  0  0  0  0  0  0  0  0
    3.4206   -2.0025   -3.0782 C   0  0  1  0  0  0  0  0  0  0  0  0
    3.1373   -3.4544   -2.7106 C   0  0  2  0  0  0  0  0  0  0  0  0
    2.2884   -3.7183   -1.4626 C   0  0  0  0  0  0  0  0  0  0  0  0
    3.1918   -3.7809   -0.3670 O   0  0  0  0  0  0  0  0  0  0  0  0
    4.4313   -4.2909   -0.8416 C   0  0  0  0  0  0  0  0  0  0  0  0
    4.5379   -3.8459   -2.3065 C   0  0  2  0  0  0  0  0  0  0  0  0
   -0.5864    2.1745    2.3529 H   0  0  0  0  0  0  0  0  0  0  0  0
   -0.3984    0.4788    1.8072 H   0  0  0  0  0  0  0  0  0  0  0  0
    0.5763    1.7732    1.0720 H   0  0  0  0  0  0  0  0  0  0  0  0
    0.0875    1.8596    4.7420 H   0  0  0  0  0  0  0  0  0  0  0  0
    4.0292    0.3780    4.3294 H   0  0  0  0  0  0  0  0  0  0  0  0
    2.1527   -0.1604    0.8826 H   0  0  0  0  0  0  0  0  0  0  0  0
    3.2650    1.2036    0.9343 H   0  0  0  0  0  0  0  0  0  0  0  0
    4.9111   -0.2910    2.2113 H   0  0  0  0  0  0  0  0  0  0  0  0
    3.8141   -1.6403    1.9646 H   0  0  0  0  0  0  0  0  0  0  0  0
    4.7361   -0.3120   -2.5605 H   0  0  0  0  0  0  0  0  0  0  0  0
    6.2771   -2.4146   -2.5455 H   0  0  0  0  0  0  0  0  0  0  0  0
    2.6548   -1.4271   -3.5989 H   0  0  0  0  0  0  0  0  0  0  0  0
    2.7788   -4.0127   -3.5758 H   0  0  0  0  0  0  0  0  0  0  0  0
    1.5232   -2.9723   -1.3208 H   0  0  0  0  0  0  0  0  0  0  0  0
    1.7540   -4.6587   -1.5226 H   0  0  0  0  0  0  0  0  0  0  0  0
    5.2610   -3.9347   -0.2307 H   0  0  0  0  0  0  0  0  0  0  0  0
    4.4099   -5.3795   -0.7720 H   0  0  0  0  0  0  0  0  0  0  0  0
    4.9627   -4.6277   -2.9395 H   0  0  0  0  0  0  0  0  0  0  0  0
    2.2690    1.2602    5.9159 H   0  0  0  0  0  0  0  0  0  0  0  0
  1  2  1  0
  1 21  1  0
  1 22  1  0
  1 23  1  0
  2  6  1  0
  2  3  1  0
  3  4  2  0
  3 24  1  0
  4  5  1  0
  4 39  1  0
  5  6  2  0
  5 25  1  0
  6  7  1  0
  7  8  1  0
  7 26  1  0
  7 27  1  0
  8  9  1  0
  8 28  1  0
  8 29  1  0
  9 10  2  0
  9 11  1  0
 11 12  1  0
 12 15  1  0
 12 13  1  0
 12 30  1  6
 13 20  1  0
 13 14  1  0
 13 31  1  6
 14 15  1  0
 15 16  1  0
 15 32  1  6
 16 20  1  0
 16 17  1  0
 16 33  1  6
 17 18  1  0
 17 34  1  0
 17 35  1  0
 18 19  1  0
 19 20  1  0
 19 36  1  0
 19 37  1  0
 20 38  1  6
M  CHG  1   4   1
M  END
>  <i_m_ct_stereo_status>  (173) 
1

>  <s_m_source_file>  (173) 
/var/tmp/pbs.5076255.sched01/tmpstc2q6q5/48db17pvb_.sdf

>  <i_m_source_file_index>  (173) 
22

>  <i_lp_mmshare_version>  (173) 
48012

>  <i_f3d_flags>  (173) 
0

>  <s_epik_input>  (173) 
W0NIM11uMVtjSF1uW2NIXWMxW0NIMl1bQ0gyXUMoPU8pT1tDQEhdMltDQEBIXShPMylbQ0BASF0oW0NASF00W0NASF0yMylbQ0gyXU9bQ0gyXTQ=

>  <s_epik_cmdline>  (173) 
J2VwaWtfcHl0aG9uJywgJy1waHQnLCAnMi4wJywgJy1waCcsICc3LjAnLCAnLXRuJywgJzgnLCAnLW1hJywgJzIwMCcsICctaW1hZScsICc8aW5maWxlLm1hZT4nLCAnLW9tYWUnLCAnPG91dGZpbGUubWFlPic=

>  <r_lp_tautomer_probability>  (173) 
1

>  <r_epik_Ionization_Penalty>  (173) 
0.168184

>  <r_epik_Ionization_Penalty_Charging>  (173) 
0

>  <r_epik_Ionization_Penalty_Neutral>  (173) 
0.168184

>  <r_epik_State_Penalty>  (173) 
0.157546

>  <r_epik_Charging_Adjusted_Penalty>  (173) 
0.157546

>  <i_epik_Tot_Q>  (173) 
1

>  <i_epik_Tot_abs_Q>  (173) 
1

>  <s_epik_Chemistry_Notes>  (173) 
This compound has an ester and may undergo hydrolysis at high or low pH.

>  <s_lp_Force_Field>  (173) 
OPLS3e

>  <r_lp_Energy>  (173) 
29.4845

>  <b_lp_Chiralities_Consistent>  (173) 
1

>  <s_lp_Variant>  (173) 
37:0-2

>  <s_i_glide_gridfile>  (173) 
pfpi4k_grid

>  <i_i_glide_lignum>  (173) 
22

>  <i_i_glide_rotatable_bonds>  (173) 
5

>  <r_i_docking_score>  (173) 
-3.14259

>  <r_i_glide_ligand_efficiency>  (173) 
-0.15713

>  <r_i_glide_ligand_efficiency_sa>  (173) 
-0.426515

>  <r_i_glide_ligand_efficiency_ln>  (173) 
-0.786487

>  <r_i_glide_gscore>  (173) 
-3.14259

>  <r_i_glide_lipo>  (173) 
-0.325206

>  <r_i_glide_hbond>  (173) 
-0.0976071

>  <r_i_glide_metal>  (173) 
-0

>  <r_i_glide_rewards>  (173) 
-1.5654

>  <r_i_glide_evdw>  (173) 
-22.6671

>  <r_i_glide_ecoul>  (173) 
-6.07352

>  <r_i_glide_erotb>  (173) 
0.924998

>  <r_i_glide_esite>  (173) 
-0.0349921

>  <r_i_glide_emodel>  (173) 
-34.7801

>  <r_i_glide_energy>  (173) 
-28.7407

>  <r_i_glide_einternal>  (173) 
1.05944

>  <r_i_glide_intrahb_reward>  (173) 
-0

>  <i_i_glide_confnum>  (173) 
6

>  <i_i_glide_posenum>  (173) 
4

>  <r_i_glide_eff_state_penalty>  (173) 
0

>  <ligand_id>  (173) 
37

>  <original_smiles>  (173) 
Cn1cncc1CCC(=O)OC1C2OC1C1COCC12

>  <smiles>  (173) 
[H]c1c(C([H])([H])C([H])([H])C(=O)OC2([H])C3([H])OC2([H])C2([H])C([H])([H])OC([H])([H])C32[H])n(C([H])([H])[H])c([H])[n+]1[H]

$$$$
37:1:2
     RDKit          3D

 39 42  0  0  1  0  0  0  0  0999 V2000
   -0.1236    0.5796    2.2108 C   0  0  0  0  0  0  0  0  0  0  0  0
    0.9687    1.3827    2.7641 N   0  0  0  0  0  0  0  0  0  0  0  0
    2.1573    1.4581    2.1500 C   0  0  0  0  0  0  0  0  0  0  0  0
    2.9310    2.2587    2.8900 N   0  0  0  0  0  0  0  0  0  0  0  0
    2.2373    2.6888    3.9882 C   0  0  0  0  0  0  0  0  0  0  0  0
    0.9828    2.1264    3.9289 C   0  0  0  0  0  0  0  0  0  0  0  0
   -0.1936    2.2238    4.8586 C   0  0  0  0  0  0  0  0  0  0  0  0
    0.2464    2.3519    6.3284 C   0  0  0  0  0  0  0  0  0  0  0  0
   -0.8617    1.9656    7.3072 C   0  0  0  0  0  0  0  0  0  0  0  0
   -1.0230    0.7982    7.6647 O   0  0  0  0  0  0  0  0  0  0  0  0
   -1.5981    3.0155    7.6972 O   0  0  0  0  0  0  0  0  0  0  0  0
   -2.6183    2.8437    8.6703 C   0  0  1  0  0  0  0  0  0  0  0  0
   -2.1925    2.7479   10.1513 C   0  0  2  0  0  0  0  0  0  0  0  0
   -3.4804    3.3367   10.4236 O   0  0  0  0  0  0  0  0  0  0  0  0
   -3.1498    4.1516    9.2831 C   0  0  1  0  0  0  0  0  0  0  0  0
   -2.1179    5.0232    9.9945 C   0  0  2  0  0  0  0  0  0  0  0  0
   -1.0828    5.7191    9.1068 C   0  0  0  0  0  0  0  0  0  0  0  0
    0.0019    4.8070    8.9849 O   0  0  0  0  0  0  0  0  0  0  0  0
    0.0701    4.0248   10.1717 C   0  0  0  0  0  0  0  0  0  0  0  0
   -1.3665    3.9147   10.6859 C   0  0  2  0  0  0  0  0  0  0  0  0
    0.2770   -0.1904    1.5449 H   0  0  0  0  0  0  0  0  0  0  0  0
   -0.8081    1.2333    1.6618 H   0  0  0  0  0  0  0  0  0  0  0  0
   -0.6566    0.0804    3.0207 H   0  0  0  0  0  0  0  0  0  0  0  0
    2.4329    0.9642    1.2395 H   0  0  0  0  0  0  0  0  0  0  0  0
    2.6783    3.3479    4.7247 H   0  0  0  0  0  0  0  0  0  0  0  0
   -0.7878    3.0910    4.5679 H   0  0  0  0  0  0  0  0  0  0  0  0
   -0.8336    1.3507    4.7393 H   0  0  0  0  0  0  0  0  0  0  0  0
    1.0852    1.6815    6.5201 H   0  0  0  0  0  0  0  0  0  0  0  0
    0.5930    3.3659    6.5357 H   0  0  0  0  0  0  0  0  0  0  0  0
   -3.4109    2.1536    8.3856 H   0  0  0  0  0  0  0  0  0  0  0  0
   -2.0642    1.7583   10.5919 H   0  0  0  0  0  0  0  0  0  0  0  0
   -4.0194    4.6205    8.8249 H   0  0  0  0  0  0  0  0  0  0  0  0
   -2.5845    5.7126   10.6984 H   0  0  0  0  0  0  0  0  0  0  0  0
   -1.4824    5.9827    8.1255 H   0  0  0  0  0  0  0  0  0  0  0  0
   -0.7275    6.6319    9.5875 H   0  0  0  0  0  0  0  0  0  0  0  0
    0.5182    3.0500    9.9709 H   0  0  0  0  0  0  0  0  0  0  0  0
    0.6930    4.5430   10.9015 H   0  0  0  0  0  0  0  0  0  0  0  0
   -1.4248    3.9834   11.7728 H   0  0  0  0  0  0  0  0  0  0  0  0
    3.8904    2.5164    2.6438 H   0  0  0  0  0  0  0  0  0  0  0  0
  1  2  1  0
  1 21  1  0
  1 22  1  0
  1 23  1  0
  2  6  1  0
  2  3  1  0
  3  4  2  0
  3 24  1  0
  4  5  1  0
  4 39  1  0
  5  6  2  0
  5 25  1  0
  6  7  1  0
  7  8  1  0
  7 26  1  0
  7 27  1  0
  8  9  1  0
  8 28  1  0
  8 29  1  0
  9 10  2  0
  9 11  1  0
 11 12  1  0
 12 15  1  0
 12 13  1  0
 12 30  1  6
 13 20  1  0
 13 14  1  0
 13 31  1  1
 14 15  1  0
 15 16  1  0
 15 32  1  6
 16 20  1  0
 16 17  1  0
 16 33  1  1
 17 18  1  0
 17 34  1  0
 17 35  1  0
 18 19  1  0
 19 20  1  0
 19 36  1  0
 19 37  1  0
 20 38  1  1
M  CHG  1   4   1
M  END
>  <i_m_ct_stereo_status>  (174) 
1

>  <s_m_source_file>  (174) 
/var/tmp/pbs.5076255.sched01/tmpstc2q6q5/48db17pvb_.sdf

>  <i_m_source_file_index>  (174) 
22

>  <i_lp_mmshare_version>  (174) 
48012

>  <i_f3d_flags>  (174) 
0

>  <s_epik_input>  (174) 
W0NIM11uMVtjSF1uW2NIXWMxW0NIMl1bQ0gyXUMoPU8pT1tDQEhdMltDQEBIXShPMylbQ0BASF0oW0NASF00W0NASF0yMylbQ0gyXU9bQ0gyXTQ=

>  <s_epik_cmdline>  (174) 
J2VwaWtfcHl0aG9uJywgJy1waHQnLCAnMi4wJywgJy1waCcsICc3LjAnLCAnLXRuJywgJzgnLCAnLW1hJywgJzIwMCcsICctaW1hZScsICc8aW5maWxlLm1hZT4nLCAnLW9tYWUnLCAnPG91dGZpbGUubWFlPic=

>  <r_lp_tautomer_probability>  (174) 
1

>  <r_epik_Ionization_Penalty>  (174) 
0.168184

>  <r_epik_Ionization_Penalty_Charging>  (174) 
0

>  <r_epik_Ionization_Penalty_Neutral>  (174) 
0.168184

>  <r_epik_State_Penalty>  (174) 
0.157546

>  <r_epik_Charging_Adjusted_Penalty>  (174) 
0.157546

>  <i_epik_Tot_Q>  (174) 
1

>  <i_epik_Tot_abs_Q>  (174) 
1

>  <s_epik_Chemistry_Notes>  (174) 
This compound has an ester and may undergo hydrolysis at high or low pH.

>  <s_lp_Force_Field>  (174) 
OPLS3e

>  <r_lp_Energy>  (174) 
29.4845

>  <b_lp_Chiralities_Consistent>  (174) 
1

>  <s_lp_Variant>  (174) 
37:0-2

>  <s_i_glide_gridfile>  (174) 
pfpi4k_grid

>  <i_i_glide_lignum>  (174) 
22

>  <i_i_glide_rotatable_bonds>  (174) 
5

>  <r_i_docking_score>  (174) 
-2.79722

>  <r_i_glide_ligand_efficiency>  (174) 
-0.139861

>  <r_i_glide_ligand_efficiency_sa>  (174) 
-0.379642

>  <r_i_glide_ligand_efficiency_ln>  (174) 
-0.700053

>  <r_i_glide_gscore>  (174) 
-2.79722

>  <r_i_glide_lipo>  (174) 
-0.0556984

>  <r_i_glide_hbond>  (174) 
-0.0892376

>  <r_i_glide_metal>  (174) 
-0

>  <r_i_glide_rewards>  (174) 
-1.55291

>  <r_i_glide_evdw>  (174) 
-16.1562

>  <r_i_glide_ecoul>  (174) 
-7.56634

>  <r_i_glide_erotb>  (174) 
0.924998

>  <r_i_glide_esite>  (174) 
-0.0816176

>  <r_i_glide_emodel>  (174) 
-28.537

>  <r_i_glide_energy>  (174) 
-23.7225

>  <r_i_glide_einternal>  (174) 
2.01309

>  <r_i_glide_intrahb_reward>  (174) 
-0

>  <i_i_glide_confnum>  (174) 
6

>  <i_i_glide_posenum>  (174) 
36

>  <r_i_glide_eff_state_penalty>  (174) 
0

>  <ligand_id>  (174) 
37

>  <original_smiles>  (174) 
Cn1cncc1CCC(=O)OC1C2OC1C1COCC12

>  <smiles>  (174) 
[H]c1c(C([H])([H])C([H])([H])C(=O)OC2([H])C3([H])OC2([H])C2([H])C([H])([H])OC([H])([H])C32[H])n(C([H])([H])[H])c([H])[n+]1[H]

$$$$
37:2:0
     RDKit          3D

 38 41  0  0  1  0  0  0  0  0999 V2000
    0.6515  -10.2110    2.4790 C   0  0  0  0  0  0  0  0  0  0  0  0
    0.2395   -8.8359    2.6656 N   0  0  0  0  0  0  0  0  0  0  0  0
   -1.0143   -8.3879    2.8198 C   0  0  0  0  0  0  0  0  0  0  0  0
   -1.1117   -7.0693    2.9489 N   0  0  0  0  0  0  0  0  0  0  0  0
    0.2097   -6.6417    2.8912 C   0  0  0  0  0  0  0  0  0  0  0  0
    1.0535   -7.7054    2.6845 C   0  0  0  0  0  0  0  0  0  0  0  0
    2.5411   -7.7321    2.4989 C   0  0  0  0  0  0  0  0  0  0  0  0
    3.2121   -6.3423    2.4217 C   0  0  0  0  0  0  0  0  0  0  0  0
    2.9304   -5.5368    1.1447 C   0  0  0  0  0  0  0  0  0  0  0  0
    1.8822   -5.6488    0.5028 O   0  0  0  0  0  0  0  0  0  0  0  0
    3.9319   -4.7059    0.8447 O   0  0  0  0  0  0  0  0  0  0  0  0
    3.8600   -3.9364   -0.3475 C   0  0  2  0  0  0  0  0  0  0  0  0
    5.0513   -2.9990   -0.5616 C   0  0  2  0  0  0  0  0  0  0  0  0
    4.4487   -2.1421    0.4305 O   0  0  0  0  0  0  0  0  0  0  0  0
    3.2316   -2.5457   -0.2319 C   0  0  1  0  0  0  0  0  0  0  0  0
    3.4128   -1.7247   -1.5027 C   0  0  2  0  0  0  0  0  0  0  0  0
    2.6565   -2.2296   -2.7344 C   0  0  0  0  0  0  0  0  0  0  0  0
    3.5152   -3.1842   -3.3423 O   0  0  0  0  0  0  0  0  0  0  0  0
    4.8561   -2.7748   -3.1252 C   0  0  0  0  0  0  0  0  0  0  0  0
    4.8617   -2.0825   -1.7618 C   0  0  2  0  0  0  0  0  0  0  0  0
   -0.1863  -10.8111    2.1289 H   0  0  0  0  0  0  0  0  0  0  0  0
    1.0211  -10.6190    3.4229 H   0  0  0  0  0  0  0  0  0  0  0  0
    1.4333  -10.2542    1.7240 H   0  0  0  0  0  0  0  0  0  0  0  0
   -1.8714   -9.0499    2.8384 H   0  0  0  0  0  0  0  0  0  0  0  0
    0.4565   -5.5919    2.9744 H   0  0  0  0  0  0  0  0  0  0  0  0
    2.9807   -8.2795    3.3354 H   0  0  0  0  0  0  0  0  0  0  0  0
    2.7901   -8.2977    1.5999 H   0  0  0  0  0  0  0  0  0  0  0  0
    2.9214   -5.7416    3.2822 H   0  0  0  0  0  0  0  0  0  0  0  0
    4.2922   -6.4717    2.4872 H   0  0  0  0  0  0  0  0  0  0  0  0
    3.5671   -4.4899   -1.2365 H   0  0  0  0  0  0  0  0  0  0  0  0
    6.0401   -3.3794   -0.3113 H   0  0  0  0  0  0  0  0  0  0  0  0
    2.3229   -2.4387    0.3603 H   0  0  0  0  0  0  0  0  0  0  0  0
    3.2660   -0.6625   -1.3221 H   0  0  0  0  0  0  0  0  0  0  0  0
    1.6934   -2.6696   -2.4774 H   0  0  0  0  0  0  0  0  0  0  0  0
    2.4932   -1.4048   -3.4300 H   0  0  0  0  0  0  0  0  0  0  0  0
    5.5406   -3.6238   -3.1659 H   0  0  0  0  0  0  0  0  0  0  0  0
    5.1166   -2.0622   -3.9059 H   0  0  0  0  0  0  0  0  0  0  0  0
    5.5236   -1.2171   -1.7231 H   0  0  0  0  0  0  0  0  0  0  0  0
  1  2  1  0
  1 21  1  0
  1 22  1  0
  1 23  1  0
  2  6  1  0
  2  3  1  0
  3  4  2  0
  3 24  1  0
  4  5  1  0
  5  6  2  0
  5 25  1  0
  6  7  1  0
  7  8  1  0
  7 26  1  0
  7 27  1  0
  8  9  1  0
  8 28  1  0
  8 29  1  0
  9 10  2  0
  9 11  1  0
 11 12  1  0
 12 15  1  0
 12 13  1  0
 12 30  1  6
 13 20  1  0
 13 14  1  0
 13 31  1  1
 14 15  1  0
 15 16  1  0
 15 32  1  1
 16 20  1  0
 16 17  1  0
 16 33  1  1
 17 18  1  0
 17 34  1  0
 17 35  1  0
 18 19  1  0
 19 20  1  0
 19 36  1  0
 19 37  1  0
 20 38  1  6
M  END
>  <i_m_ct_stereo_status>  (175) 
1

>  <s_m_source_file>  (175) 
/var/tmp/pbs.5076255.sched01/tmpstc2q6q5/48db17pvb_.sdf

>  <i_m_source_file_index>  (175) 
23

>  <i_lp_mmshare_version>  (175) 
48012

>  <i_f3d_flags>  (175) 
0

>  <s_epik_input>  (175) 
W0NIM11uMVtjSF1uW2NIXWMxW0NIMl1bQ0gyXUMoPU8pT1tDQEhdMltDQEBIXShPMylbQ0BASF0oW0NASF00W0NASF0yMylbQ0gyXU9bQ0gyXTQ=

>  <s_epik_cmdline>  (175) 
J2VwaWtfcHl0aG9uJywgJy1waHQnLCAnMi4wJywgJy1waCcsICc3LjAnLCAnLXRuJywgJzgnLCAnLW1hJywgJzIwMCcsICctaW1hZScsICc8aW5maWxlLm1hZT4nLCAnLW9tYWUnLCAnPG91dGZpbGUubWFlPic=

>  <r_lp_tautomer_probability>  (175) 
1

>  <r_epik_Ionization_Penalty>  (175) 
0.828203

>  <r_epik_Ionization_Penalty_Charging>  (175) 
0.828203

>  <r_epik_Ionization_Penalty_Neutral>  (175) 
2.69839e-12

>  <r_epik_State_Penalty>  (175) 
0.861839

>  <r_epik_Charging_Adjusted_Penalty>  (175) 
1.69004

>  <i_epik_Tot_Q>  (175) 
0

>  <i_epik_Tot_abs_Q>  (175) 
0

>  <s_epik_Chemistry_Notes>  (175) 
This compound has an ester and may undergo hydrolysis at high or low pH.

>  <s_lp_Force_Field>  (175) 
OPLS3e

>  <r_lp_Energy>  (175) 
19.0723

>  <b_lp_Chiralities_Consistent>  (175) 
1

>  <s_lp_Variant>  (175) 
37:0-3

>  <s_i_glide_gridfile>  (175) 
pfpi4k_grid

>  <i_i_glide_lignum>  (175) 
23

>  <i_i_glide_rotatable_bonds>  (175) 
5

>  <r_i_docking_score>  (175) 
-3.17969

>  <r_i_glide_ligand_efficiency>  (175) 
-0.158984

>  <r_i_glide_ligand_efficiency_sa>  (175) 
-0.43155

>  <r_i_glide_ligand_efficiency_ln>  (175) 
-0.795771

>  <r_i_glide_gscore>  (175) 
-3.17969

>  <r_i_glide_lipo>  (175) 
-0.328873

>  <r_i_glide_hbond>  (175) 
-0.229349

>  <r_i_glide_metal>  (175) 
-0

>  <r_i_glide_rewards>  (175) 
-1.51157

>  <r_i_glide_evdw>  (175) 
-24.5748

>  <r_i_glide_ecoul>  (175) 
-4.82064

>  <r_i_glide_erotb>  (175) 
0.930822

>  <r_i_glide_esite>  (175) 
-0.0888893

>  <r_i_glide_emodel>  (175) 
-35.4708

>  <r_i_glide_energy>  (175) 
-29.3954

>  <r_i_glide_einternal>  (175) 
1.55672

>  <r_i_glide_intrahb_reward>  (175) 
-0

>  <i_i_glide_confnum>  (175) 
2

>  <i_i_glide_posenum>  (175) 
28

>  <r_i_glide_eff_state_penalty>  (175) 
0

>  <ligand_id>  (175) 
37

>  <original_smiles>  (175) 
Cn1cncc1CCC(=O)OC1C2OC1C1COCC12

>  <smiles>  (175) 
[H]c1nc([H])n(C([H])([H])[H])c1C([H])([H])C([H])([H])C(=O)OC1([H])C2([H])OC1([H])C1([H])C([H])([H])OC([H])([H])C21[H]

$$$$
37:2:1
     RDKit          3D

 38 41  0  0  1  0  0  0  0  0999 V2000
   -1.5057   -9.1654    2.3598 C   0  0  0  0  0  0  0  0  0  0  0  0
   -0.8033   -8.0851    3.0210 N   0  0  0  0  0  0  0  0  0  0  0  0
   -1.2326   -7.4025    4.0891 C   0  0  0  0  0  0  0  0  0  0  0  0
   -0.4086   -6.4541    4.5117 N   0  0  0  0  0  0  0  0  0  0  0  0
    0.6736   -6.5518    3.6402 C   0  0  0  0  0  0  0  0  0  0  0  0
    0.4452   -7.5480    2.7143 C   0  0  0  0  0  0  0  0  0  0  0  0
    1.3072   -8.0348    1.5841 C   0  0  0  0  0  0  0  0  0  0  0  0
    2.7326   -7.4380    1.5491 C   0  0  0  0  0  0  0  0  0  0  0  0
    2.8193   -6.0104    1.0019 C   0  0  0  0  0  0  0  0  0  0  0  0
    1.8516   -5.4541    0.4788 O   0  0  0  0  0  0  0  0  0  0  0  0
    4.0433   -5.4692    1.1735 O   0  0  0  0  0  0  0  0  0  0  0  0
    4.2694   -4.1261    0.7594 C   0  0  2  0  0  0  0  0  0  0  0  0
    4.7494   -3.9432   -0.6880 C   0  0  2  0  0  0  0  0  0  0  0  0
    6.0488   -4.3728   -0.2283 O   0  0  0  0  0  0  0  0  0  0  0  0
    5.6982   -3.5812    0.9246 C   0  0  1  0  0  0  0  0  0  0  0  0
    5.8766   -2.2095    0.2789 C   0  0  2  0  0  0  0  0  0  0  0  0
    5.1079   -1.0661    0.9461 C   0  0  0  0  0  0  0  0  0  0  0  0
    3.8154   -1.1060    0.3610 O   0  0  0  0  0  0  0  0  0  0  0  0
    3.9463   -1.5130   -0.9955 C   0  0  0  0  0  0  0  0  0  0  0  0
    5.1171   -2.4991   -1.0020 C   0  0  2  0  0  0  0  0  0  0  0  0
   -2.5678   -9.1265    2.6036 H   0  0  0  0  0  0  0  0  0  0  0  0
   -1.1032  -10.1206    2.6978 H   0  0  0  0  0  0  0  0  0  0  0  0
   -1.3899   -9.0749    1.2804 H   0  0  0  0  0  0  0  0  0  0  0  0
   -2.1792   -7.6079    4.5687 H   0  0  0  0  0  0  0  0  0  0  0  0
    1.5292   -5.9052    3.7561 H   0  0  0  0  0  0  0  0  0  0  0  0
    1.3964   -9.1201    1.6542 H   0  0  0  0  0  0  0  0  0  0  0  0
    0.7920   -7.8394    0.6429 H   0  0  0  0  0  0  0  0  0  0  0  0
    3.1721   -7.4668    2.5470 H   0  0  0  0  0  0  0  0  0  0  0  0
    3.3623   -8.0500    0.9028 H   0  0  0  0  0  0  0  0  0  0  0  0
    3.4981   -3.4240    1.0760 H   0  0  0  0  0  0  0  0  0  0  0  0
    4.3024   -4.5729   -1.4577 H   0  0  0  0  0  0  0  0  0  0  0  0
    6.2405   -3.8292    1.8392 H   0  0  0  0  0  0  0  0  0  0  0  0
    6.9259   -1.9690    0.1081 H   0  0  0  0  0  0  0  0  0  0  0  0
    5.0466   -1.1812    2.0293 H   0  0  0  0  0  0  0  0  0  0  0  0
    5.5790   -0.1066    0.7256 H   0  0  0  0  0  0  0  0  0  0  0  0
    3.0217   -1.9624   -1.3602 H   0  0  0  0  0  0  0  0  0  0  0  0
    4.1775   -0.6461   -1.6161 H   0  0  0  0  0  0  0  0  0  0  0  0
    5.7358   -2.4208   -1.8963 H   0  0  0  0  0  0  0  0  0  0  0  0
  1  2  1  0
  1 21  1  0
  1 22  1  0
  1 23  1  0
  2  6  1  0
  2  3  1  0
  3  4  2  0
  3 24  1  0
  4  5  1  0
  5  6  2  0
  5 25  1  0
  6  7  1  0
  7  8  1  0
  7 26  1  0
  7 27  1  0
  8  9  1  0
  8 28  1  0
  8 29  1  0
  9 10  2  0
  9 11  1  0
 11 12  1  0
 12 15  1  0
 12 13  1  0
 12 30  1  6
 13 20  1  0
 13 14  1  0
 13 31  1  6
 14 15  1  0
 15 16  1  0
 15 32  1  1
 16 20  1  0
 16 17  1  0
 16 33  1  6
 17 18  1  0
 17 34  1  0
 17 35  1  0
 18 19  1  0
 19 20  1  0
 19 36  1  0
 19 37  1  0
 20 38  1  6
M  END
>  <i_m_ct_stereo_status>  (176) 
1

>  <s_m_source_file>  (176) 
/var/tmp/pbs.5076255.sched01/tmpstc2q6q5/48db17pvb_.sdf

>  <i_m_source_file_index>  (176) 
23

>  <i_lp_mmshare_version>  (176) 
48012

>  <i_f3d_flags>  (176) 
0

>  <s_epik_input>  (176) 
W0NIM11uMVtjSF1uW2NIXWMxW0NIMl1bQ0gyXUMoPU8pT1tDQEhdMltDQEBIXShPMylbQ0BASF0oW0NASF00W0NASF0yMylbQ0gyXU9bQ0gyXTQ=

>  <s_epik_cmdline>  (176) 
J2VwaWtfcHl0aG9uJywgJy1waHQnLCAnMi4wJywgJy1waCcsICc3LjAnLCAnLXRuJywgJzgnLCAnLW1hJywgJzIwMCcsICctaW1hZScsICc8aW5maWxlLm1hZT4nLCAnLW9tYWUnLCAnPG91dGZpbGUubWFlPic=

>  <r_lp_tautomer_probability>  (176) 
1

>  <r_epik_Ionization_Penalty>  (176) 
0.828203

>  <r_epik_Ionization_Penalty_Charging>  (176) 
0.828203

>  <r_epik_Ionization_Penalty_Neutral>  (176) 
2.69839e-12

>  <r_epik_State_Penalty>  (176) 
0.861839

>  <r_epik_Charging_Adjusted_Penalty>  (176) 
1.69004

>  <i_epik_Tot_Q>  (176) 
0

>  <i_epik_Tot_abs_Q>  (176) 
0

>  <s_epik_Chemistry_Notes>  (176) 
This compound has an ester and may undergo hydrolysis at high or low pH.

>  <s_lp_Force_Field>  (176) 
OPLS3e

>  <r_lp_Energy>  (176) 
19.0723

>  <b_lp_Chiralities_Consistent>  (176) 
1

>  <s_lp_Variant>  (176) 
37:0-3

>  <s_i_glide_gridfile>  (176) 
pfpi4k_grid

>  <i_i_glide_lignum>  (176) 
23

>  <i_i_glide_rotatable_bonds>  (176) 
5

>  <r_i_docking_score>  (176) 
-2.88915

>  <r_i_glide_ligand_efficiency>  (176) 
-0.144458

>  <r_i_glide_ligand_efficiency_sa>  (176) 
-0.392118

>  <r_i_glide_ligand_efficiency_ln>  (176) 
-0.723059

>  <r_i_glide_gscore>  (176) 
-2.88915

>  <r_i_glide_lipo>  (176) 
-0.544579

>  <r_i_glide_hbond>  (176) 
-0.0902834

>  <r_i_glide_metal>  (176) 
-0

>  <r_i_glide_rewards>  (176) 
-1.51157

>  <r_i_glide_evdw>  (176) 
-23.4948

>  <r_i_glide_ecoul>  (176) 
-2.45534

>  <r_i_glide_erotb>  (176) 
0.930822

>  <r_i_glide_esite>  (176) 
-0.130504

>  <r_i_glide_emodel>  (176) 
-31.2378

>  <r_i_glide_energy>  (176) 
-25.9501

>  <r_i_glide_einternal>  (176) 
1.98271

>  <r_i_glide_intrahb_reward>  (176) 
-0

>  <i_i_glide_confnum>  (176) 
2

>  <i_i_glide_posenum>  (176) 
40

>  <r_i_glide_eff_state_penalty>  (176) 
0

>  <ligand_id>  (176) 
37

>  <original_smiles>  (176) 
Cn1cncc1CCC(=O)OC1C2OC1C1COCC12

>  <smiles>  (176) 
[H]c1nc([H])n(C([H])([H])[H])c1C([H])([H])C([H])([H])C(=O)OC1([H])C2([H])OC1([H])C1([H])C([H])([H])OC([H])([H])C21[H]

$$$$
37:2:2
     RDKit          3D

 38 41  0  0  1  0  0  0  0  0999 V2000
    4.6905   -0.9998    0.3753 C   0  0  0  0  0  0  0  0  0  0  0  0
    4.6926   -1.8877   -0.7735 N   0  0  0  0  0  0  0  0  0  0  0  0
    4.4191   -1.5438   -2.0406 C   0  0  0  0  0  0  0  0  0  0  0  0
    4.5306   -2.5303   -2.9197 N   0  0  0  0  0  0  0  0  0  0  0  0
    4.8645   -3.6288   -2.1338 C   0  0  0  0  0  0  0  0  0  0  0  0
    4.9686   -3.2551   -0.8106 C   0  0  0  0  0  0  0  0  0  0  0  0
    5.3341   -4.0878    0.3883 C   0  0  0  0  0  0  0  0  0  0  0  0
    4.7821   -5.5299    0.3580 C   0  0  0  0  0  0  0  0  0  0  0  0
    3.3614   -5.6874    0.9100 C   0  0  0  0  0  0  0  0  0  0  0  0
    2.5777   -4.7391    0.9930 O   0  0  0  0  0  0  0  0  0  0  0  0
    3.0929   -6.9548    1.2826 O   0  0  0  0  0  0  0  0  0  0  0  0
    1.8522   -7.2396    1.9211 C   0  0  2  0  0  0  0  0  0  0  0  0
    1.9256   -7.4062    3.4477 C   0  0  2  0  0  0  0  0  0  0  0  0
    2.4842   -8.7116    3.1946 O   0  0  0  0  0  0  0  0  0  0  0  0
    1.5093   -8.7213    2.1302 C   0  0  1  0  0  0  0  0  0  0  0  0
    0.2635   -8.9074    2.9977 C   0  0  2  0  0  0  0  0  0  0  0  0
   -1.0524   -8.4253    2.3780 C   0  0  0  0  0  0  0  0  0  0  0  0
   -1.1220   -7.0385    2.6886 O   0  0  0  0  0  0  0  0  0  0  0  0
   -0.5346   -6.8436    3.9693 C   0  0  0  0  0  0  0  0  0  0  0  0
    0.6007   -7.8660    4.0459 C   0  0  2  0  0  0  0  0  0  0  0  0
    4.1084   -0.1078    0.1537 H   0  0  0  0  0  0  0  0  0  0  0  0
    5.7124   -0.7076    0.6158 H   0  0  0  0  0  0  0  0  0  0  0  0
    4.2386   -1.4937    1.2342 H   0  0  0  0  0  0  0  0  0  0  0  0
    4.1513   -0.5365   -2.3252 H   0  0  0  0  0  0  0  0  0  0  0  0
    5.0075   -4.6049   -2.5775 H   0  0  0  0  0  0  0  0  0  0  0  0
    6.4236   -4.1338    0.4500 H   0  0  0  0  0  0  0  0  0  0  0  0
    5.0174   -3.5943    1.3073 H   0  0  0  0  0  0  0  0  0  0  0  0
    4.8260   -5.9416   -0.6506 H   0  0  0  0  0  0  0  0  0  0  0  0
    5.4174   -6.1540    0.9845 H   0  0  0  0  0  0  0  0  0  0  0  0
    1.0091   -6.6445    1.5723 H   0  0  0  0  0  0  0  0  0  0  0  0
    2.5724   -6.7314    4.0080 H   0  0  0  0  0  0  0  0  0  0  0  0
    1.7206   -9.4138    1.3141 H   0  0  0  0  0  0  0  0  0  0  0  0
    0.1905   -9.9145    3.4095 H   0  0  0  0  0  0  0  0  0  0  0  0
   -1.0909   -8.5805    1.3005 H   0  0  0  0  0  0  0  0  0  0  0  0
   -1.8991   -8.9451    2.8309 H   0  0  0  0  0  0  0  0  0  0  0  0
   -0.1773   -5.8201    4.0823 H   0  0  0  0  0  0  0  0  0  0  0  0
   -1.2762   -7.0370    4.7460 H   0  0  0  0  0  0  0  0  0  0  0  0
    0.7238   -8.2886    5.0435 H   0  0  0  0  0  0  0  0  0  0  0  0
  1  2  1  0
  1 21  1  0
  1 22  1  0
  1 23  1  0
  2  6  1  0
  2  3  1  0
  3  4  2  0
  3 24  1  0
  4  5  1  0
  5  6  2  0
  5 25  1  0
  6  7  1  0
  7  8  1  0
  7 26  1  0
  7 27  1  0
  8  9  1  0
  8 28  1  0
  8 29  1  0
  9 10  2  0
  9 11  1  0
 11 12  1  0
 12 15  1  0
 12 13  1  0
 12 30  1  1
 13 20  1  0
 13 14  1  0
 13 31  1  1
 14 15  1  0
 15 16  1  0
 15 32  1  6
 16 20  1  0
 16 17  1  0
 16 33  1  1
 17 18  1  0
 17 34  1  0
 17 35  1  0
 18 19  1  0
 19 20  1  0
 19 36  1  0
 19 37  1  0
 20 38  1  1
M  END
>  <i_m_ct_stereo_status>  (177) 
1

>  <s_m_source_file>  (177) 
/var/tmp/pbs.5076255.sched01/tmpstc2q6q5/48db17pvb_.sdf

>  <i_m_source_file_index>  (177) 
23

>  <i_lp_mmshare_version>  (177) 
48012

>  <i_f3d_flags>  (177) 
0

>  <s_epik_input>  (177) 
W0NIM11uMVtjSF1uW2NIXWMxW0NIMl1bQ0gyXUMoPU8pT1tDQEhdMltDQEBIXShPMylbQ0BASF0oW0NASF00W0NASF0yMylbQ0gyXU9bQ0gyXTQ=

>  <s_epik_cmdline>  (177) 
J2VwaWtfcHl0aG9uJywgJy1waHQnLCAnMi4wJywgJy1waCcsICc3LjAnLCAnLXRuJywgJzgnLCAnLW1hJywgJzIwMCcsICctaW1hZScsICc8aW5maWxlLm1hZT4nLCAnLW9tYWUnLCAnPG91dGZpbGUubWFlPic=

>  <r_lp_tautomer_probability>  (177) 
1

>  <r_epik_Ionization_Penalty>  (177) 
0.828203

>  <r_epik_Ionization_Penalty_Charging>  (177) 
0.828203

>  <r_epik_Ionization_Penalty_Neutral>  (177) 
2.69839e-12

>  <r_epik_State_Penalty>  (177) 
0.861839

>  <r_epik_Charging_Adjusted_Penalty>  (177) 
1.69004

>  <i_epik_Tot_Q>  (177) 
0

>  <i_epik_Tot_abs_Q>  (177) 
0

>  <s_epik_Chemistry_Notes>  (177) 
This compound has an ester and may undergo hydrolysis at high or low pH.

>  <s_lp_Force_Field>  (177) 
OPLS3e

>  <r_lp_Energy>  (177) 
19.0723

>  <b_lp_Chiralities_Consistent>  (177) 
1

>  <s_lp_Variant>  (177) 
37:0-3

>  <s_i_glide_gridfile>  (177) 
pfpi4k_grid

>  <i_i_glide_lignum>  (177) 
23

>  <i_i_glide_rotatable_bonds>  (177) 
5

>  <r_i_docking_score>  (177) 
-2.84076

>  <r_i_glide_ligand_efficiency>  (177) 
-0.142038

>  <r_i_glide_ligand_efficiency_sa>  (177) 
-0.38555

>  <r_i_glide_ligand_efficiency_ln>  (177) 
-0.710948

>  <r_i_glide_gscore>  (177) 
-2.84076

>  <r_i_glide_lipo>  (177) 
-0.271271

>  <r_i_glide_hbond>  (177) 
-0.16

>  <r_i_glide_metal>  (177) 
-0

>  <r_i_glide_rewards>  (177) 
-1.51157

>  <r_i_glide_evdw>  (177) 
-24.2261

>  <r_i_glide_ecoul>  (177) 
-3.67802

>  <r_i_glide_erotb>  (177) 
0.930822

>  <r_i_glide_esite>  (177) 
-0.0657351

>  <r_i_glide_emodel>  (177) 
-32.6488

>  <r_i_glide_energy>  (177) 
-27.9041

>  <r_i_glide_einternal>  (177) 
2.63128

>  <r_i_glide_intrahb_reward>  (177) 
-0

>  <i_i_glide_confnum>  (177) 
2

>  <i_i_glide_posenum>  (177) 
19

>  <r_i_glide_eff_state_penalty>  (177) 
0

>  <ligand_id>  (177) 
37

>  <original_smiles>  (177) 
Cn1cncc1CCC(=O)OC1C2OC1C1COCC12

>  <smiles>  (177) 
[H]c1nc([H])n(C([H])([H])[H])c1C([H])([H])C([H])([H])C(=O)OC1([H])C2([H])OC1([H])C1([H])C([H])([H])OC([H])([H])C21[H]

$$$$
37:3:0
     RDKit          3D

 38 41  0  0  1  0  0  0  0  0999 V2000
    2.4013   -9.0014    1.8007 C   0  0  0  0  0  0  0  0  0  0  0  0
    1.5586   -7.9117    2.2605 N   0  0  0  0  0  0  0  0  0  0  0  0
    0.2282   -7.9618    2.4419 C   0  0  0  0  0  0  0  0  0  0  0  0
   -0.3207   -6.8161    2.8284 N   0  0  0  0  0  0  0  0  0  0  0  0
    0.7745   -5.9538    2.9537 C   0  0  0  0  0  0  0  0  0  0  0  0
    1.9315   -6.6116    2.5845 C   0  0  0  0  0  0  0  0  0  0  0  0
    3.3217   -6.0555    2.4447 C   0  0  0  0  0  0  0  0  0  0  0  0
    3.3913   -4.6497    1.8085 C   0  0  0  0  0  0  0  0  0  0  0  0
    2.8150   -4.5790    0.3813 C   0  0  0  0  0  0  0  0  0  0  0  0
    1.8718   -5.2884    0.0239 O   0  0  0  0  0  0  0  0  0  0  0  0
    3.4023   -3.6456   -0.3775 O   0  0  0  0  0  0  0  0  0  0  0  0
    2.9957   -3.4820   -1.7323 C   0  0  1  0  0  0  0  0  0  0  0  0
    3.1563   -2.0734   -2.3204 C   0  0  2  0  0  0  0  0  0  0  0  0
    3.3545   -2.7475   -3.5772 O   0  0  0  0  0  0  0  0  0  0  0  0
    4.1281   -3.6465   -2.7632 C   0  0  1  0  0  0  0  0  0  0  0  0
    5.3237   -2.7245   -2.5941 C   0  0  2  0  0  0  0  0  0  0  0  0
    6.2389   -2.9884   -1.3966 C   0  0  0  0  0  0  0  0  0  0  0  0
    5.7272   -2.2015   -0.3304 O   0  0  0  0  0  0  0  0  0  0  0  0
    5.0705   -1.0589   -0.8679 C   0  0  0  0  0  0  0  0  0  0  0  0
    4.5540   -1.4706   -2.2503 C   0  0  2  0  0  0  0  0  0  0  0  0
    1.8158   -9.7186    1.2315 H   0  0  0  0  0  0  0  0  0  0  0  0
    2.8457   -9.5052    2.6572 H   0  0  0  0  0  0  0  0  0  0  0  0
    3.1898   -8.6335    1.1457 H   0  0  0  0  0  0  0  0  0  0  0  0
   -0.3509   -8.8542    2.2597 H   0  0  0  0  0  0  0  0  0  0  0  0
    0.6364   -4.9231    3.2359 H   0  0  0  0  0  0  0  0  0  0  0  0
    3.7853   -6.0247    3.4315 H   0  0  0  0  0  0  0  0  0  0  0  0
    3.9476   -6.7204    1.8539 H   0  0  0  0  0  0  0  0  0  0  0  0
    2.8547   -3.9371    2.4359 H   0  0  0  0  0  0  0  0  0  0  0  0
    4.4300   -4.3195    1.7957 H   0  0  0  0  0  0  0  0  0  0  0  0
    2.0600   -3.9534   -2.0439 H   0  0  0  0  0  0  0  0  0  0  0  0
    2.2816   -1.4255   -2.3096 H   0  0  0  0  0  0  0  0  0  0  0  0
    4.2896   -4.6211   -3.2224 H   0  0  0  0  0  0  0  0  0  0  0  0
    5.8862   -2.6597   -3.5199 H   0  0  0  0  0  0  0  0  0  0  0  0
    6.2731   -4.0435   -1.1259 H   0  0  0  0  0  0  0  0  0  0  0  0
    7.2486   -2.6544   -1.6368 H   0  0  0  0  0  0  0  0  0  0  0  0
    4.2746   -0.7113   -0.2077 H   0  0  0  0  0  0  0  0  0  0  0  0
    5.8053   -0.2623   -0.9703 H   0  0  0  0  0  0  0  0  0  0  0  0
    4.6767   -0.6815   -2.9902 H   0  0  0  0  0  0  0  0  0  0  0  0
  1  2  1  0
  1 21  1  0
  1 22  1  0
  1 23  1  0
  2  6  1  0
  2  3  1  0
  3  4  2  0
  3 24  1  0
  4  5  1  0
  5  6  2  0
  5 25  1  0
  6  7  1  0
  7  8  1  0
  7 26  1  0
  7 27  1  0
  8  9  1  0
  8 28  1  0
  8 29  1  0
  9 10  2  0
  9 11  1  0
 11 12  1  0
 12 15  1  0
 12 13  1  0
 12 30  1  6
 13 20  1  0
 13 14  1  0
 13 31  1  6
 14 15  1  0
 15 16  1  0
 15 32  1  6
 16 20  1  0
 16 17  1  0
 16 33  1  6
 17 18  1  0
 17 34  1  0
 17 35  1  0
 18 19  1  0
 19 20  1  0
 19 36  1  0
 19 37  1  0
 20 38  1  6
M  END
>  <i_m_ct_stereo_status>  (178) 
1

>  <s_m_source_file>  (178) 
/var/tmp/pbs.5076255.sched01/tmpstc2q6q5/48db17pvb_.sdf

>  <i_m_source_file_index>  (178) 
24

>  <i_lp_mmshare_version>  (178) 
48012

>  <i_f3d_flags>  (178) 
0

>  <s_epik_input>  (178) 
W0NIM11uMVtjSF1uW2NIXWMxW0NIMl1bQ0gyXUMoPU8pT1tDQEhdMltDQEBIXShPMylbQ0BASF0oW0NASF00W0NASF0yMylbQ0gyXU9bQ0gyXTQ=

>  <s_epik_cmdline>  (178) 
J2VwaWtfcHl0aG9uJywgJy1waHQnLCAnMi4wJywgJy1waCcsICc3LjAnLCAnLXRuJywgJzgnLCAnLW1hJywgJzIwMCcsICctaW1hZScsICc8aW5maWxlLm1hZT4nLCAnLW9tYWUnLCAnPG91dGZpbGUubWFlPic=

>  <r_lp_tautomer_probability>  (178) 
1

>  <r_epik_Ionization_Penalty>  (178) 
0.828203

>  <r_epik_Ionization_Penalty_Charging>  (178) 
0.828203

>  <r_epik_Ionization_Penalty_Neutral>  (178) 
2.69839e-12

>  <r_epik_State_Penalty>  (178) 
0.861839

>  <r_epik_Charging_Adjusted_Penalty>  (178) 
1.69004

>  <i_epik_Tot_Q>  (178) 
0

>  <i_epik_Tot_abs_Q>  (178) 
0

>  <s_epik_Chemistry_Notes>  (178) 
This compound has an ester and may undergo hydrolysis at high or low pH.

>  <s_lp_Force_Field>  (178) 
OPLS3e

>  <r_lp_Energy>  (178) 
21.8501

>  <b_lp_Chiralities_Consistent>  (178) 
1

>  <s_lp_Variant>  (178) 
37:0-4

>  <s_i_glide_gridfile>  (178) 
pfpi4k_grid

>  <i_i_glide_lignum>  (178) 
24

>  <i_i_glide_rotatable_bonds>  (178) 
5

>  <r_i_docking_score>  (178) 
-3.3237

>  <r_i_glide_ligand_efficiency>  (178) 
-0.166185

>  <r_i_glide_ligand_efficiency_sa>  (178) 
-0.451095

>  <r_i_glide_ligand_efficiency_ln>  (178) 
-0.831812

>  <r_i_glide_gscore>  (178) 
-3.3237

>  <r_i_glide_lipo>  (178) 
-0.299083

>  <r_i_glide_hbond>  (178) 
-0.220575

>  <r_i_glide_metal>  (178) 
-0

>  <r_i_glide_rewards>  (178) 
-1.51157

>  <r_i_glide_evdw>  (178) 
-21.3549

>  <r_i_glide_ecoul>  (178) 
-7.03872

>  <r_i_glide_erotb>  (178) 
0.930822

>  <r_i_glide_esite>  (178) 
-0.0997447

>  <r_i_glide_emodel>  (178) 
-32.87

>  <r_i_glide_energy>  (178) 
-28.3936

>  <r_i_glide_einternal>  (178) 
3.73002

>  <r_i_glide_intrahb_reward>  (178) 
-0

>  <i_i_glide_confnum>  (178) 
4

>  <i_i_glide_posenum>  (178) 
11

>  <r_i_glide_eff_state_penalty>  (178) 
0

>  <ligand_id>  (178) 
37

>  <original_smiles>  (178) 
Cn1cncc1CCC(=O)OC1C2OC1C1COCC12

>  <smiles>  (178) 
[H]c1nc([H])n(C([H])([H])[H])c1C([H])([H])C([H])([H])C(=O)OC1([H])C2([H])OC1([H])C1([H])C([H])([H])OC([H])([H])C21[H]

$$$$
37:3:1
     RDKit          3D

 38 41  0  0  1  0  0  0  0  0999 V2000
    1.5120  -10.0194    2.4471 C   0  0  0  0  0  0  0  0  0  0  0  0
    0.9284   -8.6934    2.4829 N   0  0  0  0  0  0  0  0  0  0  0  0
   -0.3462   -8.3936    2.7471 C   0  0  0  0  0  0  0  0  0  0  0  0
   -0.6351   -7.0979    2.7206 N   0  0  0  0  0  0  0  0  0  0  0  0
    0.5990   -6.5118    2.4537 C   0  0  0  0  0  0  0  0  0  0  0  0
    1.5638   -7.4720    2.2679 C   0  0  0  0  0  0  0  0  0  0  0  0
    3.0133   -7.3139    1.8769 C   0  0  0  0  0  0  0  0  0  0  0  0
    3.4912   -5.8488    1.7485 C   0  0  0  0  0  0  0  0  0  0  0  0
    2.9333   -5.1167    0.5114 C   0  0  0  0  0  0  0  0  0  0  0  0
    1.8692   -5.4385   -0.0204 O   0  0  0  0  0  0  0  0  0  0  0  0
    3.7022   -4.1139    0.1097 O   0  0  0  0  0  0  0  0  0  0  0  0
    3.4322   -3.5018   -1.1429 C   0  0  1  0  0  0  0  0  0  0  0  0
    3.8116   -2.0294   -1.2817 C   0  0  2  0  0  0  0  0  0  0  0  0
    4.0794   -2.3641   -2.6629 O   0  0  0  0  0  0  0  0  0  0  0  0
    4.6511   -3.5435   -2.0629 C   0  0  1  0  0  0  0  0  0  0  0  0
    5.9165   -2.8621   -1.5395 C   0  0  2  0  0  0  0  0  0  0  0  0
    6.6335   -3.5462   -0.3709 C   0  0  0  0  0  0  0  0  0  0  0  0
    6.0717   -3.0040    0.8171 O   0  0  0  0  0  0  0  0  0  0  0  0
    5.6202   -1.6842    0.5477 C   0  0  0  0  0  0  0  0  0  0  0  0
    5.2501   -1.6554   -0.9353 C   0  0  2  0  0  0  0  0  0  0  0  0
    0.7342  -10.7406    2.2170 H   0  0  0  0  0  0  0  0  0  0  0  0
    1.9504  -10.2539    3.4150 H   0  0  0  0  0  0  0  0  0  0  0  0
    2.2751  -10.0729    1.6783 H   0  0  0  0  0  0  0  0  0  0  0  0
   -1.1015   -9.1408    2.9649 H   0  0  0  0  0  0  0  0  0  0  0  0
    0.6881   -5.4263    2.3623 H   0  0  0  0  0  0  0  0  0  0  0  0
    3.6326   -7.8190    2.6121 H   0  0  0  0  0  0  0  0  0  0  0  0
    3.1960   -7.8359    0.9399 H   0  0  0  0  0  0  0  0  0  0  0  0
    3.2418   -5.3046    2.6611 H   0  0  0  0  0  0  0  0  0  0  0  0
    4.5821   -5.8364    1.6918 H   0  0  0  0  0  0  0  0  0  0  0  0
    2.4934   -3.7419   -1.6726 H   0  0  0  0  0  0  0  0  0  0  0  0
    3.0127   -1.3121   -1.1466 H   0  0  0  0  0  0  0  0  0  0  0  0
    4.7240   -4.3993   -2.7235 H   0  0  0  0  0  0  0  0  0  0  0  0
    6.5965   -2.6137   -2.3542 H   0  0  0  0  0  0  0  0  0  0  0  0
    6.5246   -4.6323   -0.3750 H   0  0  0  0  0  0  0  0  0  0  0  0
    7.6955   -3.3019   -0.3994 H   0  0  0  0  0  0  0  0  0  0  0  0
    4.7857   -1.4128    1.1977 H   0  0  0  0  0  0  0  0  0  0  0  0
    6.4453   -0.9971    0.7341 H   0  0  0  0  0  0  0  0  0  0  0  0
    5.5356   -0.7210   -1.4173 H   0  0  0  0  0  0  0  0  0  0  0  0
  1  2  1  0
  1 21  1  0
  1 22  1  0
  1 23  1  0
  2  6  1  0
  2  3  1  0
  3  4  2  0
  3 24  1  0
  4  5  1  0
  5  6  2  0
  5 25  1  0
  6  7  1  0
  7  8  1  0
  7 26  1  0
  7 27  1  0
  8  9  1  0
  8 28  1  0
  8 29  1  0
  9 10  2  0
  9 11  1  0
 11 12  1  0
 12 15  1  0
 12 13  1  0
 12 30  1  6
 13 20  1  0
 13 14  1  0
 13 31  1  6
 14 15  1  0
 15 16  1  0
 15 32  1  6
 16 20  1  0
 16 17  1  0
 16 33  1  6
 17 18  1  0
 17 34  1  0
 17 35  1  0
 18 19  1  0
 19 20  1  0
 19 36  1  0
 19 37  1  0
 20 38  1  6
M  END
>  <i_m_ct_stereo_status>  (179) 
1

>  <s_m_source_file>  (179) 
/var/tmp/pbs.5076255.sched01/tmpstc2q6q5/48db17pvb_.sdf

>  <i_m_source_file_index>  (179) 
24

>  <i_lp_mmshare_version>  (179) 
48012

>  <i_f3d_flags>  (179) 
0

>  <s_epik_input>  (179) 
W0NIM11uMVtjSF1uW2NIXWMxW0NIMl1bQ0gyXUMoPU8pT1tDQEhdMltDQEBIXShPMylbQ0BASF0oW0NASF00W0NASF0yMylbQ0gyXU9bQ0gyXTQ=

>  <s_epik_cmdline>  (179) 
J2VwaWtfcHl0aG9uJywgJy1waHQnLCAnMi4wJywgJy1waCcsICc3LjAnLCAnLXRuJywgJzgnLCAnLW1hJywgJzIwMCcsICctaW1hZScsICc8aW5maWxlLm1hZT4nLCAnLW9tYWUnLCAnPG91dGZpbGUubWFlPic=

>  <r_lp_tautomer_probability>  (179) 
1

>  <r_epik_Ionization_Penalty>  (179) 
0.828203

>  <r_epik_Ionization_Penalty_Charging>  (179) 
0.828203

>  <r_epik_Ionization_Penalty_Neutral>  (179) 
2.69839e-12

>  <r_epik_State_Penalty>  (179) 
0.861839

>  <r_epik_Charging_Adjusted_Penalty>  (179) 
1.69004

>  <i_epik_Tot_Q>  (179) 
0

>  <i_epik_Tot_abs_Q>  (179) 
0

>  <s_epik_Chemistry_Notes>  (179) 
This compound has an ester and may undergo hydrolysis at high or low pH.

>  <s_lp_Force_Field>  (179) 
OPLS3e

>  <r_lp_Energy>  (179) 
21.8501

>  <b_lp_Chiralities_Consistent>  (179) 
1

>  <s_lp_Variant>  (179) 
37:0-4

>  <s_i_glide_gridfile>  (179) 
pfpi4k_grid

>  <i_i_glide_lignum>  (179) 
24

>  <i_i_glide_rotatable_bonds>  (179) 
5

>  <r_i_docking_score>  (179) 
-3.20539

>  <r_i_glide_ligand_efficiency>  (179) 
-0.160269

>  <r_i_glide_ligand_efficiency_sa>  (179) 
-0.435038

>  <r_i_glide_ligand_efficiency_ln>  (179) 
-0.802203

>  <r_i_glide_gscore>  (179) 
-3.20539

>  <r_i_glide_lipo>  (179) 
-0.420213

>  <r_i_glide_hbond>  (179) 
-0.184224

>  <r_i_glide_metal>  (179) 
-0

>  <r_i_glide_rewards>  (179) 
-1.51157

>  <r_i_glide_evdw>  (179) 
-23.5061

>  <r_i_glide_ecoul>  (179) 
-5.05122

>  <r_i_glide_erotb>  (179) 
0.930822

>  <r_i_glide_esite>  (179) 
-0.0872206

>  <r_i_glide_emodel>  (179) 
-32.7217

>  <r_i_glide_energy>  (179) 
-28.5573

>  <r_i_glide_einternal>  (179) 
3.55501

>  <r_i_glide_intrahb_reward>  (179) 
-0

>  <i_i_glide_confnum>  (179) 
4

>  <i_i_glide_posenum>  (179) 
26

>  <r_i_glide_eff_state_penalty>  (179) 
0

>  <ligand_id>  (179) 
37

>  <original_smiles>  (179) 
Cn1cncc1CCC(=O)OC1C2OC1C1COCC12

>  <smiles>  (179) 
[H]c1nc([H])n(C([H])([H])[H])c1C([H])([H])C([H])([H])C(=O)OC1([H])C2([H])OC1([H])C1([H])C([H])([H])OC([H])([H])C21[H]

$$$$
37:3:2
     RDKit          3D

 38 41  0  0  1  0  0  0  0  0999 V2000
    0.1258    1.7441    2.0975 C   0  0  0  0  0  0  0  0  0  0  0  0
    0.6139    0.6392    2.8931 N   0  0  0  0  0  0  0  0  0  0  0  0
    0.0070    0.1179    3.9708 C   0  0  0  0  0  0  0  0  0  0  0  0
    0.6428   -0.9100    4.5126 N   0  0  0  0  0  0  0  0  0  0  0  0
    1.7798   -1.0674    3.7179 C   0  0  0  0  0  0  0  0  0  0  0  0
    1.7654   -0.1197    2.7049 C   0  0  0  0  0  0  0  0  0  0  0  0
    2.7416    0.1026    1.5840 C   0  0  0  0  0  0  0  0  0  0  0  0
    3.8823   -0.9339    1.5365 C   0  0  0  0  0  0  0  0  0  0  0  0
    4.6253   -0.9773    0.1981 C   0  0  0  0  0  0  0  0  0  0  0  0
    5.8489   -0.8645    0.1201 O   0  0  0  0  0  0  0  0  0  0  0  0
    3.8046   -1.2006   -0.8318 O   0  0  0  0  0  0  0  0  0  0  0  0
    4.2933   -1.2451   -2.1578 C   0  0  1  0  0  0  0  0  0  0  0  0
    5.1178   -2.4837   -2.5423 C   0  0  2  0  0  0  0  0  0  0  0  0
    4.5945   -2.2555   -3.8704 O   0  0  0  0  0  0  0  0  0  0  0  0
    3.3809   -1.9997   -3.1289 C   0  0  1  0  0  0  0  0  0  0  0  0
    3.0824   -3.4583   -2.7886 C   0  0  2  0  0  0  0  0  0  0  0  0
    2.1795   -3.7237   -1.5817 C   0  0  0  0  0  0  0  0  0  0  0  0
    3.0241   -3.7960   -0.4387 O   0  0  0  0  0  0  0  0  0  0  0  0
    4.2908   -4.2887   -0.8593 C   0  0  0  0  0  0  0  0  0  0  0  0
    4.4644   -3.8423   -2.3186 C   0  0  2  0  0  0  0  0  0  0  0  0
   -0.4955    2.4009    2.7024 H   0  0  0  0  0  0  0  0  0  0  0  0
   -0.4737    1.3623    1.2735 H   0  0  0  0  0  0  0  0  0  0  0  0
    0.9611    2.3222    1.7093 H   0  0  0  0  0  0  0  0  0  0  0  0
   -0.9245    0.4952    4.3631 H   0  0  0  0  0  0  0  0  0  0  0  0
    2.5093   -1.8430    3.9194 H   0  0  0  0  0  0  0  0  0  0  0  0
    2.1890    0.1199    0.6490 H   0  0  0  0  0  0  0  0  0  0  0  0
    3.1708    1.0950    1.6939 H   0  0  0  0  0  0  0  0  0  0  0  0
    4.5831   -0.7516    2.3527 H   0  0  0  0  0  0  0  0  0  0  0  0
    3.4709   -1.9304    1.7018 H   0  0  0  0  0  0  0  0  0  0  0  0
    4.6696   -0.3019   -2.5730 H   0  0  0  0  0  0  0  0  0  0  0  0
    6.1943   -2.3869   -2.4590 H   0  0  0  0  0  0  0  0  0  0  0  0
    2.6472   -1.4210   -3.6753 H   0  0  0  0  0  0  0  0  0  0  0  0
    2.7664   -4.0117   -3.6720 H   0  0  0  0  0  0  0  0  0  0  0  0
    1.4083   -2.9771   -1.4852 H   0  0  0  0  0  0  0  0  0  0  0  0
    1.6366   -4.6575   -1.6749 H   0  0  0  0  0  0  0  0  0  0  0  0
    5.0937   -3.9313   -0.2112 H   0  0  0  0  0  0  0  0  0  0  0  0
    4.2715   -5.3754   -0.7913 H   0  0  0  0  0  0  0  0  0  0  0  0
    4.9251   -4.6195   -2.9359 H   0  0  0  0  0  0  0  0  0  0  0  0
  1  2  1  0
  1 21  1  0
  1 22  1  0
  1 23  1  0
  2  6  1  0
  2  3  1  0
  3  4  2  0
  3 24  1  0
  4  5  1  0
  5  6  2  0
  5 25  1  0
  6  7  1  0
  7  8  1  0
  7 26  1  0
  7 27  1  0
  8  9  1  0
  8 28  1  0
  8 29  1  0
  9 10  2  0
  9 11  1  0
 11 12  1  0
 12 15  1  0
 12 13  1  0
 12 30  1  6
 13 20  1  0
 13 14  1  0
 13 31  1  6
 14 15  1  0
 15 16  1  0
 15 32  1  6
 16 20  1  0
 16 17  1  0
 16 33  1  6
 17 18  1  0
 17 34  1  0
 17 35  1  0
 18 19  1  0
 19 20  1  0
 19 36  1  0
 19 37  1  0
 20 38  1  6
M  END
>  <i_m_ct_stereo_status>  (180) 
1

>  <s_m_source_file>  (180) 
/var/tmp/pbs.5076255.sched01/tmpstc2q6q5/48db17pvb_.sdf

>  <i_m_source_file_index>  (180) 
24

>  <i_lp_mmshare_version>  (180) 
48012

>  <i_f3d_flags>  (180) 
0

>  <s_epik_input>  (180) 
W0NIM11uMVtjSF1uW2NIXWMxW0NIMl1bQ0gyXUMoPU8pT1tDQEhdMltDQEBIXShPMylbQ0BASF0oW0NASF00W0NASF0yMylbQ0gyXU9bQ0gyXTQ=

>  <s_epik_cmdline>  (180) 
J2VwaWtfcHl0aG9uJywgJy1waHQnLCAnMi4wJywgJy1waCcsICc3LjAnLCAnLXRuJywgJzgnLCAnLW1hJywgJzIwMCcsICctaW1hZScsICc8aW5maWxlLm1hZT4nLCAnLW9tYWUnLCAnPG91dGZpbGUubWFlPic=

>  <r_lp_tautomer_probability>  (180) 
1

>  <r_epik_Ionization_Penalty>  (180) 
0.828203

>  <r_epik_Ionization_Penalty_Charging>  (180) 
0.828203

>  <r_epik_Ionization_Penalty_Neutral>  (180) 
2.69839e-12

>  <r_epik_State_Penalty>  (180) 
0.861839

>  <r_epik_Charging_Adjusted_Penalty>  (180) 
1.69004

>  <i_epik_Tot_Q>  (180) 
0

>  <i_epik_Tot_abs_Q>  (180) 
0

>  <s_epik_Chemistry_Notes>  (180) 
This compound has an ester and may undergo hydrolysis at high or low pH.

>  <s_lp_Force_Field>  (180) 
OPLS3e

>  <r_lp_Energy>  (180) 
21.8501

>  <b_lp_Chiralities_Consistent>  (180) 
1

>  <s_lp_Variant>  (180) 
37:0-4

>  <s_i_glide_gridfile>  (180) 
pfpi4k_grid

>  <i_i_glide_lignum>  (180) 
24

>  <i_i_glide_rotatable_bonds>  (180) 
5

>  <r_i_docking_score>  (180) 
-2.84105

>  <r_i_glide_ligand_efficiency>  (180) 
-0.142053

>  <r_i_glide_ligand_efficiency_sa>  (180) 
-0.38559

>  <r_i_glide_ligand_efficiency_ln>  (180) 
-0.711021

>  <r_i_glide_gscore>  (180) 
-2.84105

>  <r_i_glide_lipo>  (180) 
-0.266956

>  <r_i_glide_hbond>  (180) 
-0.0993829

>  <r_i_glide_metal>  (180) 
-0

>  <r_i_glide_rewards>  (180) 
-1.54489

>  <r_i_glide_evdw>  (180) 
-23.7306

>  <r_i_glide_ecoul>  (180) 
-4.17883

>  <r_i_glide_erotb>  (180) 
0.930822

>  <r_i_glide_esite>  (180) 
-0.0472876

>  <r_i_glide_emodel>  (180) 
-33.0718

>  <r_i_glide_energy>  (180) 
-27.9095

>  <r_i_glide_einternal>  (180) 
0.905685

>  <r_i_glide_intrahb_reward>  (180) 
-0

>  <i_i_glide_confnum>  (180) 
6

>  <i_i_glide_posenum>  (180) 
18

>  <r_i_glide_eff_state_penalty>  (180) 
0

>  <ligand_id>  (180) 
37

>  <original_smiles>  (180) 
Cn1cncc1CCC(=O)OC1C2OC1C1COCC12

>  <smiles>  (180) 
[H]c1nc([H])n(C([H])([H])[H])c1C([H])([H])C([H])([H])C(=O)OC1([H])C2([H])OC1([H])C1([H])C([H])([H])OC([H])([H])C21[H]

$$$$
38:0:0
     RDKit          3D

 96107  0  0  1  0  0  0  0  0999 V2000
    7.4270   -6.0449    1.0361 C   0  0  0  0  0  0  0  0  0  0  0  0
    6.3378   -5.2596    1.0176 C   0  0  0  0  0  0  0  0  0  0  0  0
    5.4136   -4.9351   -0.0800 C   0  0  1  0  0  0  0  0  0  0  0  0
    4.0938   -5.6852    0.4483 C   0  0  0  0  0  0  0  0  0  0  0  0
    3.6043   -5.0187    1.7810 C   0  0  1  0  0  0  0  0  0  0  0  0
    2.2077   -5.0906    2.0990 O   0  0  0  0  0  0  0  0  0  0  0  0
    3.1109   -5.7350    3.0137 C   0  0  1  0  0  0  0  0  0  0  0  0
    2.9707   -7.2413    3.1275 C   0  0  0  0  0  0  0  0  0  0  0  0
    1.6396   -7.6937    3.7697 C   0  0  2  0  0  0  0  0  0  0  0  0
    1.4459   -7.1881    5.2539 C   0  0  2  0  0  0  0  0  0  0  0  0
    0.8423   -5.8227    5.4565 C   0  0  0  0  0  0  0  0  0  0  0  0
    1.0757   -5.1924    6.6186 C   0  0  0  0  0  0  0  0  0  0  0  0
    1.9874   -5.8001    7.6855 C   0  0  1  0  0  0  0  0  0  0  0  0
    1.4834   -5.5378    9.1157 C   0  0  0  0  0  0  0  0  0  0  0  0
    2.5492   -7.2355    7.3207 C   0  0  2  0  0  0  0  0  0  0  0  0
    2.6908   -7.1929    5.9087 O   0  0  0  0  0  0  0  0  0  0  0  0
    1.8556   -8.6340    7.6450 C   0  0  0  0  0  0  0  0  0  0  0  0
    2.9045   -9.6126    8.2316 C   0  0  0  0  0  0  0  0  0  0  0  0
    0.7481   -8.5050    8.7136 C   0  0  0  0  0  0  0  0  0  0  0  0
    1.1571   -9.2347    6.3619 C   0  0  1  0  0  0  0  0  0  0  0  0
    0.5361   -8.0586    5.8710 O   0  0  0  0  0  0  0  0  0  0  0  0
    1.9383   -9.8561    5.1388 C   0  0  1  0  0  0  0  0  0  0  0  0
    3.3442   -9.6649    5.2366 O   0  0  0  0  0  0  0  0  0  0  0  0
    1.9339  -11.3565    4.9158 C   0  0  1  0  0  0  0  0  0  0  0  0
    0.9478  -11.9954    4.0903 O   0  0  0  0  0  0  0  0  0  0  0  0
    2.1403  -11.5333    3.4390 C   0  0  1  0  0  0  0  0  0  0  0  0
    2.0993  -10.1792    2.7476 C   0  0  0  0  0  0  0  0  0  0  0  0
    1.4138   -9.2477    3.7871 C   0  0  2  0  0  0  0  0  0  0  0  0
   -0.1284   -9.4302    3.5499 C   0  0  0  0  0  0  0  0  0  0  0  0
    4.3265   -3.6971    1.8457 C   0  0  1  0  0  0  0  0  0  0  0  0
    5.8163   -4.3559    2.0984 C   0  0  2  0  0  0  0  0  0  0  0  0
    6.0490   -3.0348    1.5782 C   0  0  1  0  0  0  0  0  0  0  0  0
    5.4644   -3.3366    0.1231 C   0  0  2  0  0  0  0  0  0  0  0  0
    4.0994   -2.9152    0.4995 C   0  0  1  0  0  0  0  0  0  0  0  0
    3.0287   -3.3022   -0.3678 O   0  0  0  0  0  0  0  0  0  0  0  0
    4.0291   -1.3576    0.5918 C   0  0  1  0  0  0  0  0  0  0  0  0
    3.4205   -0.7825   -0.5189 O   0  0  0  0  0  0  0  0  0  0  0  0
    3.4723   -0.8384    1.9195 C   0  0  1  0  0  0  0  0  0  0  0  0
    2.0291   -1.3299    2.2195 C   0  0  0  0  0  0  0  0  0  0  0  0
    1.1367   -0.2719    2.8616 C   0  0  0  0  0  0  0  0  0  0  0  0
    0.9301   -0.2803    4.2537 C   0  0  0  0  0  0  0  0  0  0  0  0
    0.0991    0.6807    4.8586 C   0  0  0  0  0  0  0  0  0  0  0  0
   -0.5402    1.6562    4.0709 C   0  0  0  0  0  0  0  0  0  0  0  0
   -0.3412    1.6716    2.6801 C   0  0  0  0  0  0  0  0  0  0  0  0
    0.4956    0.7117    2.0760 C   0  0  0  0  0  0  0  0  0  0  0  0
    4.5294   -1.2597    2.9600 C   0  0  1  0  0  0  0  0  0  0  0  0
    4.0814   -1.0055    4.2722 O   0  0  0  0  0  0  0  0  0  0  0  0
    5.0221   -2.7099    2.7929 C   0  0  1  0  0  0  0  0  0  0  0  0
    8.0334   -6.1262    1.9294 H   0  0  0  0  0  0  0  0  0  0  0  0
    7.7475   -6.6068    0.1653 H   0  0  0  0  0  0  0  0  0  0  0  0
    5.7338   -5.2713   -1.0644 H   0  0  0  0  0  0  0  0  0  0  0  0
    3.2921   -5.6826   -0.2904 H   0  0  0  0  0  0  0  0  0  0  0  0
    4.3086   -6.7378    0.6255 H   0  0  0  0  0  0  0  0  0  0  0  0
    3.2707   -5.2098    3.9541 H   0  0  0  0  0  0  0  0  0  0  0  0
    3.0168   -7.6535    2.1207 H   0  0  0  0  0  0  0  0  0  0  0  0
    3.8396   -7.6287    3.6622 H   0  0  0  0  0  0  0  0  0  0  0  0
    0.8520   -7.2435    3.1671 H   0  0  0  0  0  0  0  0  0  0  0  0
    0.2165   -5.4062    4.6835 H   0  0  0  0  0  0  0  0  0  0  0  0
    0.6544   -4.2185    6.8143 H   0  0  0  0  0  0  0  0  0  0  0  0
    2.8665   -5.1588    7.6051 H   0  0  0  0  0  0  0  0  0  0  0  0
    1.5087   -4.4696    9.3413 H   0  0  0  0  0  0  0  0  0  0  0  0
    2.1109   -6.0341    9.8573 H   0  0  0  0  0  0  0  0  0  0  0  0
    0.4502   -5.8562    9.2569 H   0  0  0  0  0  0  0  0  0  0  0  0
    3.5563   -7.2651    7.7398 H   0  0  0  0  0  0  0  0  0  0  0  0
    2.5510  -10.6436    8.2366 H   0  0  0  0  0  0  0  0  0  0  0  0
    3.1587   -9.3552    9.2624 H   0  0  0  0  0  0  0  0  0  0  0  0
    3.8410   -9.5982    7.6760 H   0  0  0  0  0  0  0  0  0  0  0  0
    0.2835   -9.4704    8.9175 H   0  0  0  0  0  0  0  0  0  0  0  0
   -0.0506   -7.8411    8.3771 H   0  0  0  0  0  0  0  0  0  0  0  0
    1.1323   -8.1378    9.6664 H   0  0  0  0  0  0  0  0  0  0  0  0
    0.3668   -9.9309    6.6508 H   0  0  0  0  0  0  0  0  0  0  0  0
    3.6465  -10.1579    5.9844 H   0  0  0  0  0  0  0  0  0  0  0  0
    2.4544  -12.0084    5.6194 H   0  0  0  0  0  0  0  0  0  0  0  0
    2.8286  -12.2903    3.0734 H   0  0  0  0  0  0  0  0  0  0  0  0
    3.1297   -9.8831    2.5382 H   0  0  0  0  0  0  0  0  0  0  0  0
    1.5760  -10.2463    1.7924 H   0  0  0  0  0  0  0  0  0  0  0  0
   -0.5436  -10.2916    4.0622 H   0  0  0  0  0  0  0  0  0  0  0  0
   -0.3830   -9.5308    2.4921 H   0  0  0  0  0  0  0  0  0  0  0  0
   -0.7283   -8.6014    3.9238 H   0  0  0  0  0  0  0  0  0  0  0  0
    6.1701   -4.6657    3.0840 H   0  0  0  0  0  0  0  0  0  0  0  0
    7.0825   -2.7078    1.6603 H   0  0  0  0  0  0  0  0  0  0  0  0
    5.9372   -2.7802   -0.6915 H   0  0  0  0  0  0  0  0  0  0  0  0
    3.1793   -4.1903   -0.6526 H   0  0  0  0  0  0  0  0  0  0  0  0
    5.0341   -0.9474    0.5133 H   0  0  0  0  0  0  0  0  0  0  0  0
    2.4854   -1.0136   -0.5169 H   0  0  0  0  0  0  0  0  0  0  0  0
    3.4557    0.2518    1.8598 H   0  0  0  0  0  0  0  0  0  0  0  0
    1.5449   -1.6369    1.2952 H   0  0  0  0  0  0  0  0  0  0  0  0
    2.0616   -2.2272    2.8390 H   0  0  0  0  0  0  0  0  0  0  0  0
    1.4133   -1.0306    4.8597 H   0  0  0  0  0  0  0  0  0  0  0  0
   -0.0416    0.6695    5.9271 H   0  0  0  0  0  0  0  0  0  0  0  0
   -1.1747    2.3967    4.5342 H   0  0  0  0  0  0  0  0  0  0  0  0
   -0.8277    2.4238    2.0767 H   0  0  0  0  0  0  0  0  0  0  0  0
    0.6267    0.7305    1.0031 H   0  0  0  0  0  0  0  0  0  0  0  0
    5.3934   -0.6007    2.8299 H   0  0  0  0  0  0  0  0  0  0  0  0
    3.8179   -0.0958    4.3147 H   0  0  0  0  0  0  0  0  0  0  0  0
    5.2506   -3.0787    3.8026 H   0  0  0  0  0  0  0  0  0  0  0  0
  1  2  2  0
  1 49  1  0
  1 50  1  0
  2 31  1  0
  2  3  1  0
  3 33  1  0
  3  4  1  0
  3 51  1  6
  4  5  1  0
  4 52  1  0
  4 53  1  0
  5  7  1  0
  5  6  1  6
 30  5  1  1
  6  7  1  0
  7  8  1  0
  7 54  1  1
  8  9  1  0
  8 55  1  0
  8 56  1  0
  9 28  1  0
  9 10  1  0
  9 57  1  6
 10 16  1  0
 10 21  1  0
 10 11  1  6
 11 12  2  0
 11 58  1  0
 12 13  1  0
 12 59  1  0
 13 14  1  0
 13 15  1  0
 13 60  1  1
 14 61  1  0
 14 62  1  0
 14 63  1  0
 15 16  1  0
 15 17  1  0
 15 64  1  1
 17 18  1  0
 17 19  1  0
 17 20  1  0
 18 65  1  0
 18 66  1  0
 18 67  1  0
 19 68  1  0
 19 69  1  0
 19 70  1  0
 20 21  1  0
 20 22  1  0
 20 71  1  1
 22 28  1  0
 22 23  1  1
 22 24  1  0
 23 72  1  0
 24 26  1  0
 24 25  1  0
 24 73  1  1
 25 26  1  0
 26 27  1  0
 26 74  1  1
 27 28  1  0
 27 75  1  0
 27 76  1  0
 28 29  1  1
 29 77  1  0
 29 78  1  0
 29 79  1  0
 30 34  1  0
 30 48  1  0
 30 31  1  0
 31 32  1  0
 31 80  1  1
 32 48  1  0
 32 33  1  0
 32 81  1  6
 33 34  1  0
 33 82  1  6
 34 35  1  6
 34 36  1  0
 35 83  1  0
 36 37  1  0
 36 38  1  0
 36 84  1  1
 37 85  1  0
 38 39  1  0
 38 46  1  0
 38 86  1  6
 39 40  1  0
 39 87  1  0
 39 88  1  0
 40 45  1  0
 40 41  2  0
 41 42  1  0
 41 89  1  0
 42 43  2  0
 42 90  1  0
 43 44  1  0
 43 91  1  0
 44 45  2  0
 44 92  1  0
 45 93  1  0
 46 47  1  0
 46 48  1  0
 46 94  1  6
 47 95  1  0
 48 96  1  1
M  END
>  <i_m_ct_stereo_status>  (181) 
1

>  <s_m_source_file>  (181) 
/var/tmp/pbs.5076255.sched01/tmpstc2q6q5/48db17pvb_.sdf

>  <i_m_source_file_index>  (181) 
25

>  <i_lp_mmshare_version>  (181) 
48012

>  <i_f3d_flags>  (181) 
2

>  <s_epik_input>  (181) 
W2NIXTFbY0hdW2NIXVtjSF1bY0hdYzFbQ0gyXVtDQEBIXShbQ0BASF0oW09IXSlbQ0BASF0yMylbQ0BIXShbT0hdKVtDQEBdNChbT0hdKVtDQEhdKFtDQEhdKFtDSDJdNSlDNj1bQ0gyXSlbQ0BASF0zW0NASF02QzI0W0NAQF01N09bQ0BIXTdbQ0gyXVtDQEhdKFtDQF0xODkpW0NAXTIoW0NIM10pW0NAXShbT0hdKShbQ0BASF0zW0NAQEhdKE8zKVtDSDJdMilbQ0BIXShPMSlDKFtDSDNdKShbQ0gzXSlbQ0hdKE85KVtDQEhdKFtDSDNdKVtDSF09W0NIXTg=

>  <s_epik_cmdline>  (181) 
J2VwaWtfcHl0aG9uJywgJy1waHQnLCAnMi4wJywgJy1waCcsICc3LjAnLCAnLXRuJywgJzgnLCAnLW1hJywgJzIwMCcsICctaW1hZScsICc8aW5maWxlLm1hZT4nLCAnLW9tYWUnLCAnPG91dGZpbGUubWFlPic=

>  <r_lp_tautomer_probability>  (181) 
1

>  <r_epik_Ionization_Penalty>  (181) 
6.23238e-07

>  <r_epik_Ionization_Penalty_Charging>  (181) 
0

>  <r_epik_Ionization_Penalty_Neutral>  (181) 
6.23238e-07

>  <r_epik_State_Penalty>  (181) 
-0

>  <r_epik_Charging_Adjusted_Penalty>  (181) 
0

>  <i_epik_Tot_Q>  (181) 
0

>  <i_epik_Tot_abs_Q>  (181) 
0

>  <s_lp_Force_Field>  (181) 
OPLS3e

>  <r_lp_Energy>  (181) 
270.945

>  <b_lp_Chiralities_Consistent>  (181) 
0

>  <s_lp_Variant>  (181) 
38:0-1

>  <s_i_glide_gridfile>  (181) 
pfpi4k_grid

>  <i_i_glide_lignum>  (181) 
25

>  <i_i_glide_rotatable_bonds>  (181) 
8

>  <r_i_docking_score>  (181) 
-2.89939

>  <r_i_glide_ligand_efficiency>  (181) 
-0.060404

>  <r_i_glide_ligand_efficiency_sa>  (181) 
-0.219523

>  <r_i_glide_ligand_efficiency_ln>  (181) 
-0.595211

>  <r_i_glide_gscore>  (181) 
-2.89939

>  <r_i_glide_lipo>  (181) 
-0.645864

>  <r_i_glide_hbond>  (181) 
0

>  <r_i_glide_metal>  (181) 
-0

>  <r_i_glide_rewards>  (181) 
0

>  <r_i_glide_evdw>  (181) 
-28.1982

>  <r_i_glide_ecoul>  (181) 
-5.8807

>  <r_i_glide_erotb>  (181) 
0.0425811

>  <r_i_glide_esite>  (181) 
-0.00409534

>  <r_i_glide_emodel>  (181) 
-38.8035

>  <r_i_glide_energy>  (181) 
-34.0789

>  <r_i_glide_einternal>  (181) 
2.67523

>  <r_i_glide_intrahb_reward>  (181) 
-0

>  <i_i_glide_confnum>  (181) 
2

>  <i_i_glide_posenum>  (181) 
18

>  <r_i_glide_eff_state_penalty>  (181) 
0

>  <ligand_id>  (181) 
38

>  <original_smiles>  (181) 
C=C1C2CC3(OC3CC3C45C=CC(C)C(O4)C(C)(C)C(O5)C4(O)C5OC5CC34C)C34C1C1C2C3(O)C(O)C(Cc2ccccc2)C(O)C14

>  <smiles>  (181) 
[H]OC1([H])C([H])(C([H])([H])c2c([H])c([H])c([H])c([H])c2[H])C([H])(O[H])C2(O[H])C3([H])C4([H])C(=C([H])[H])C5([H])C3([H])C1([H])C52C1(OC1([H])C([H])([H])C1([H])C23OC([H])(C([H])(C([H])([H])[H])C([H])=C2[H])C(C([H])([H])[H])(C([H])([H])[H])C([H])(O3)C2(O[H])C3([H])OC3([H])C([H])([H])C12C([H])([H])[H])C4([H])[H]

$$$$
38:0:1
     RDKit          3D

 96107  0  0  1  0  0  0  0  0999 V2000
    7.3967   -5.9744    1.4566 C   0  0  0  0  0  0  0  0  0  0  0  0
    6.2922   -5.2161    1.3602 C   0  0  0  0  0  0  0  0  0  0  0  0
    5.4576   -4.8927    0.1948 C   0  0  1  0  0  0  0  0  0  0  0  0
    4.1171   -5.6755    0.5878 C   0  0  0  0  0  0  0  0  0  0  0  0
    3.4906   -5.0416    1.8767 C   0  0  1  0  0  0  0  0  0  0  0  0
    2.0711   -5.1567    2.0809 O   0  0  0  0  0  0  0  0  0  0  0  0
    2.9204   -5.7972    3.0455 C   0  0  1  0  0  0  0  0  0  0  0  0
    2.8155   -7.3090    3.1228 C   0  0  0  0  0  0  0  0  0  0  0  0
    1.5286   -7.8048    3.8182 C   0  0  2  0  0  0  0  0  0  0  0  0
    1.3483   -7.2725    5.2949 C   0  0  2  0  0  0  0  0  0  0  0  0
    0.6747   -5.9389    5.4796 C   0  0  0  0  0  0  0  0  0  0  0  0
    0.9091   -5.2604    6.6137 C   0  0  0  0  0  0  0  0  0  0  0  0
    1.8835   -5.7860    7.6682 C   0  0  1  0  0  0  0  0  0  0  0  0
    1.4084   -5.5069    9.1051 C   0  0  0  0  0  0  0  0  0  0  0  0
    2.5112   -7.1998    7.3289 C   0  0  2  0  0  0  0  0  0  0  0  0
    2.6091   -7.1921    5.9127 O   0  0  0  0  0  0  0  0  0  0  0  0
    1.9010   -8.6206    7.7135 C   0  0  0  0  0  0  0  0  0  0  0  0
    3.0094   -9.5316    8.2952 C   0  0  0  0  0  0  0  0  0  0  0  0
    0.8216   -8.5187    8.8126 C   0  0  0  0  0  0  0  0  0  0  0  0
    1.2005   -9.2978    6.4685 C   0  0  1  0  0  0  0  0  0  0  0  0
    0.5038   -8.1717    5.9616 O   0  0  0  0  0  0  0  0  0  0  0  0
    1.9815   -9.9106    5.2424 C   0  0  1  0  0  0  0  0  0  0  0  0
    3.3773   -9.6420    5.2948 O   0  0  0  0  0  0  0  0  0  0  0  0
    2.0580  -11.4148    5.0630 C   0  0  1  0  0  0  0  0  0  0  0  0
    1.0800  -12.1391    4.3034 O   0  0  0  0  0  0  0  0  0  0  0  0
    2.2191  -11.6291    3.5879 C   0  0  1  0  0  0  0  0  0  0  0  0
    2.0932  -10.2977    2.8639 C   0  0  0  0  0  0  0  0  0  0  0  0
    1.3927   -9.3662    3.8878 C   0  0  2  0  0  0  0  0  0  0  0  0
   -0.1347   -9.6283    3.6780 C   0  0  0  0  0  0  0  0  0  0  0  0
    4.1793   -3.7087    2.0347 C   0  0  1  0  0  0  0  0  0  0  0  0
    5.6592   -4.3407    2.4062 C   0  0  2  0  0  0  0  0  0  0  0  0
    5.9003   -3.0068    1.9188 C   0  0  1  0  0  0  0  0  0  0  0  0
    5.4477   -3.2979    0.4215 C   0  0  2  0  0  0  0  0  0  0  0  0
    4.0496   -2.9037    0.6876 C   0  0  1  0  0  0  0  0  0  0  0  0
    3.0699   -3.2905   -0.2692 O   0  0  0  0  0  0  0  0  0  0  0  0
    3.9347   -1.3487    0.7976 C   0  0  1  0  0  0  0  0  0  0  0  0
    3.4188   -0.7600   -0.3622 O   0  0  0  0  0  0  0  0  0  0  0  0
    3.2611   -0.8706    2.0838 C   0  0  1  0  0  0  0  0  0  0  0  0
    1.8125   -1.4026    2.2534 C   0  0  0  0  0  0  0  0  0  0  0  0
    0.8497   -0.3837    2.8532 C   0  0  0  0  0  0  0  0  0  0  0  0
    0.3907   -0.5532    4.1740 C   0  0  0  0  0  0  0  0  0  0  0  0
   -0.5139    0.3634    4.7383 C   0  0  0  0  0  0  0  0  0  0  0  0
   -0.9722    1.4573    3.9803 C   0  0  0  0  0  0  0  0  0  0  0  0
   -0.5243    1.6318    2.6584 C   0  0  0  0  0  0  0  0  0  0  0  0
    0.3814    0.7117    2.0914 C   0  0  0  0  0  0  0  0  0  0  0  0
    4.2288   -1.2949    3.2111 C   0  0  1  0  0  0  0  0  0  0  0  0
    3.6549   -1.0796    4.4808 O   0  0  0  0  0  0  0  0  0  0  0  0
    4.7701   -2.7263    3.0554 C   0  0  1  0  0  0  0  0  0  0  0  0
    7.9281   -6.0574    2.3965 H   0  0  0  0  0  0  0  0  0  0  0  0
    7.7986   -6.5101    0.6050 H   0  0  0  0  0  0  0  0  0  0  0  0
    5.8553   -5.2111   -0.7650 H   0  0  0  0  0  0  0  0  0  0  0  0
    3.3969   -5.6527   -0.2297 H   0  0  0  0  0  0  0  0  0  0  0  0
    4.3295   -6.7295    0.7638 H   0  0  0  0  0  0  0  0  0  0  0  0
    3.0082   -5.2862    4.0031 H   0  0  0  0  0  0  0  0  0  0  0  0
    2.8222   -7.6941    2.1019 H   0  0  0  0  0  0  0  0  0  0  0  0
    3.7144   -7.6899    3.6085 H   0  0  0  0  0  0  0  0  0  0  0  0
    0.7019   -7.4134    3.2300 H   0  0  0  0  0  0  0  0  0  0  0  0
    0.0045   -5.5808    4.7143 H   0  0  0  0  0  0  0  0  0  0  0  0
    0.4425   -4.3050    6.7938 H   0  0  0  0  0  0  0  0  0  0  0  0
    2.7237   -5.1019    7.5410 H   0  0  0  0  0  0  0  0  0  0  0  0
    1.3831   -4.4324    9.2982 H   0  0  0  0  0  0  0  0  0  0  0  0
    2.0835   -5.9464    9.8407 H   0  0  0  0  0  0  0  0  0  0  0  0
    0.3983   -5.8749    9.2879 H   0  0  0  0  0  0  0  0  0  0  0  0
    3.5303   -7.1648    7.7171 H   0  0  0  0  0  0  0  0  0  0  0  0
    2.6873  -10.5739    8.3369 H   0  0  0  0  0  0  0  0  0  0  0  0
    3.2840   -9.2317    9.3084 H   0  0  0  0  0  0  0  0  0  0  0  0
    3.9294   -9.4907    7.7123 H   0  0  0  0  0  0  0  0  0  0  0  0
    0.4185   -9.5011    9.0590 H   0  0  0  0  0  0  0  0  0  0  0  0
   -0.0208   -7.9088    8.4803 H   0  0  0  0  0  0  0  0  0  0  0  0
    1.2145   -8.1022    9.7408 H   0  0  0  0  0  0  0  0  0  0  0  0
    0.4575  -10.0260    6.8029 H   0  0  0  0  0  0  0  0  0  0  0  0
    3.7238  -10.0952    6.0485 H   0  0  0  0  0  0  0  0  0  0  0  0
    2.6600  -12.0158    5.7423 H   0  0  0  0  0  0  0  0  0  0  0  0
    2.9376  -12.3620    3.2272 H   0  0  0  0  0  0  0  0  0  0  0  0
    3.0986   -9.9562    2.6051 H   0  0  0  0  0  0  0  0  0  0  0  0
    1.5345  -10.4101    1.9377 H   0  0  0  0  0  0  0  0  0  0  0  0
   -0.4455  -10.5236    4.1854 H   0  0  0  0  0  0  0  0  0  0  0  0
   -0.4201   -9.7690    2.6331 H   0  0  0  0  0  0  0  0  0  0  0  0
   -0.7825   -8.8462    4.0756 H   0  0  0  0  0  0  0  0  0  0  0  0
    5.9348   -4.6598    3.4124 H   0  0  0  0  0  0  0  0  0  0  0  0
    6.9149   -2.6465    2.0633 H   0  0  0  0  0  0  0  0  0  0  0  0
    5.9814   -2.7138   -0.3324 H   0  0  0  0  0  0  0  0  0  0  0  0
    2.5095   -2.5437   -0.4193 H   0  0  0  0  0  0  0  0  0  0  0  0
    4.9353   -0.9247    0.8235 H   0  0  0  0  0  0  0  0  0  0  0  0
    2.4596   -0.8180   -0.3773 H   0  0  0  0  0  0  0  0  0  0  0  0
    3.2262    0.2178    2.0490 H   0  0  0  0  0  0  0  0  0  0  0  0
    1.4084   -1.6811    1.2861 H   0  0  0  0  0  0  0  0  0  0  0  0
    1.8149   -2.3249    2.8392 H   0  0  0  0  0  0  0  0  0  0  0  0
    0.7375   -1.3940    4.7525 H   0  0  0  0  0  0  0  0  0  0  0  0
   -0.8492    0.2280    5.7525 H   0  0  0  0  0  0  0  0  0  0  0  0
   -1.6616    2.1641    4.4169 H   0  0  0  0  0  0  0  0  0  0  0  0
   -0.8740    2.4733    2.0778 H   0  0  0  0  0  0  0  0  0  0  0  0
    0.6985    0.8510    1.0680 H   0  0  0  0  0  0  0  0  0  0  0  0
    5.0840   -0.6156    3.1760 H   0  0  0  0  0  0  0  0  0  0  0  0
    3.4408   -0.1587    4.5549 H   0  0  0  0  0  0  0  0  0  0  0  0
    4.9142   -3.1110    4.0762 H   0  0  0  0  0  0  0  0  0  0  0  0
  1  2  2  0
  1 49  1  0
  1 50  1  0
  2 31  1  0
  2  3  1  0
  3 33  1  0
  3  4  1  0
  3 51  1  6
  4  5  1  0
  4 52  1  0
  4 53  1  0
  5  7  1  0
  5  6  1  6
 30  5  1  1
  6  7  1  0
  7  8  1  0
  7 54  1  1
  8  9  1  0
  8 55  1  0
  8 56  1  0
  9 28  1  0
  9 10  1  0
  9 57  1  6
 10 16  1  0
 10 21  1  0
 10 11  1  6
 11 12  2  0
 11 58  1  0
 12 13  1  0
 12 59  1  0
 13 14  1  0
 13 15  1  0
 13 60  1  6
 14 61  1  0
 14 62  1  0
 14 63  1  0
 15 16  1  0
 15 17  1  0
 15 64  1  1
 17 18  1  0
 17 19  1  0
 17 20  1  0
 18 65  1  0
 18 66  1  0
 18 67  1  0
 19 68  1  0
 19 69  1  0
 19 70  1  0
 20 21  1  0
 20 22  1  0
 20 71  1  1
 22 28  1  0
 22 23  1  1
 22 24  1  0
 23 72  1  0
 24 26  1  0
 24 25  1  0
 24 73  1  1
 25 26  1  0
 26 27  1  0
 26 74  1  1
 27 28  1  0
 27 75  1  0
 27 76  1  0
 28 29  1  1
 29 77  1  0
 29 78  1  0
 29 79  1  0
 30 34  1  0
 30 48  1  0
 30 31  1  0
 31 32  1  0
 31 80  1  1
 32 48  1  0
 32 33  1  0
 32 81  1  6
 33 34  1  0
 33 82  1  6
 34 35  1  6
 34 36  1  0
 35 83  1  0
 36 37  1  0
 36 38  1  0
 36 84  1  1
 37 85  1  0
 38 39  1  0
 38 46  1  0
 38 86  1  6
 39 40  1  0
 39 87  1  0
 39 88  1  0
 40 45  1  0
 40 41  2  0
 41 42  1  0
 41 89  1  0
 42 43  2  0
 42 90  1  0
 43 44  1  0
 43 91  1  0
 44 45  2  0
 44 92  1  0
 45 93  1  0
 46 47  1  0
 46 48  1  0
 46 94  1  1
 47 95  1  0
 48 96  1  1
M  END
>  <i_m_ct_stereo_status>  (182) 
1

>  <s_m_source_file>  (182) 
/var/tmp/pbs.5076255.sched01/tmpstc2q6q5/48db17pvb_.sdf

>  <i_m_source_file_index>  (182) 
25

>  <i_lp_mmshare_version>  (182) 
48012

>  <i_f3d_flags>  (182) 
2

>  <s_epik_input>  (182) 
W2NIXTFbY0hdW2NIXVtjSF1bY0hdYzFbQ0gyXVtDQEBIXShbQ0BASF0oW09IXSlbQ0BASF0yMylbQ0BIXShbT0hdKVtDQEBdNChbT0hdKVtDQEhdKFtDQEhdKFtDSDJdNSlDNj1bQ0gyXSlbQ0BASF0zW0NASF02QzI0W0NAQF01N09bQ0BIXTdbQ0gyXVtDQEhdKFtDQF0xODkpW0NAXTIoW0NIM10pW0NAXShbT0hdKShbQ0BASF0zW0NAQEhdKE8zKVtDSDJdMilbQ0BIXShPMSlDKFtDSDNdKShbQ0gzXSlbQ0hdKE85KVtDQEhdKFtDSDNdKVtDSF09W0NIXTg=

>  <s_epik_cmdline>  (182) 
J2VwaWtfcHl0aG9uJywgJy1waHQnLCAnMi4wJywgJy1waCcsICc3LjAnLCAnLXRuJywgJzgnLCAnLW1hJywgJzIwMCcsICctaW1hZScsICc8aW5maWxlLm1hZT4nLCAnLW9tYWUnLCAnPG91dGZpbGUubWFlPic=

>  <r_lp_tautomer_probability>  (182) 
1

>  <r_epik_Ionization_Penalty>  (182) 
6.23238e-07

>  <r_epik_Ionization_Penalty_Charging>  (182) 
0

>  <r_epik_Ionization_Penalty_Neutral>  (182) 
6.23238e-07

>  <r_epik_State_Penalty>  (182) 
-0

>  <r_epik_Charging_Adjusted_Penalty>  (182) 
0

>  <i_epik_Tot_Q>  (182) 
0

>  <i_epik_Tot_abs_Q>  (182) 
0

>  <s_lp_Force_Field>  (182) 
OPLS3e

>  <r_lp_Energy>  (182) 
270.945

>  <b_lp_Chiralities_Consistent>  (182) 
0

>  <s_lp_Variant>  (182) 
38:0-1

>  <s_i_glide_gridfile>  (182) 
pfpi4k_grid

>  <i_i_glide_lignum>  (182) 
25

>  <i_i_glide_rotatable_bonds>  (182) 
8

>  <r_i_docking_score>  (182) 
-2.77998

>  <r_i_glide_ligand_efficiency>  (182) 
-0.0579161

>  <r_i_glide_ligand_efficiency_sa>  (182) 
-0.210481

>  <r_i_glide_ligand_efficiency_ln>  (182) 
-0.570696

>  <r_i_glide_gscore>  (182) 
-2.77998

>  <r_i_glide_lipo>  (182) 
-0.529444

>  <r_i_glide_hbond>  (182) 
0

>  <r_i_glide_metal>  (182) 
-0

>  <r_i_glide_rewards>  (182) 
0

>  <r_i_glide_evdw>  (182) 
-27.7073

>  <r_i_glide_ecoul>  (182) 
-6.0187

>  <r_i_glide_erotb>  (182) 
0.0425811

>  <r_i_glide_esite>  (182) 
-0.00494069

>  <r_i_glide_emodel>  (182) 
-37.4908

>  <r_i_glide_energy>  (182) 
-33.726

>  <r_i_glide_einternal>  (182) 
3.88342

>  <r_i_glide_intrahb_reward>  (182) 
-0

>  <i_i_glide_confnum>  (182) 
2

>  <i_i_glide_posenum>  (182) 
10

>  <r_i_glide_eff_state_penalty>  (182) 
0

>  <ligand_id>  (182) 
38

>  <original_smiles>  (182) 
C=C1C2CC3(OC3CC3C45C=CC(C)C(O4)C(C)(C)C(O5)C4(O)C5OC5CC34C)C34C1C1C2C3(O)C(O)C(Cc2ccccc2)C(O)C14

>  <smiles>  (182) 
[H]OC1([H])C([H])(C([H])([H])c2c([H])c([H])c([H])c([H])c2[H])C([H])(O[H])C2(O[H])C3([H])C4([H])C(=C([H])[H])C5([H])C3([H])C1([H])C52C1(OC1([H])C([H])([H])C1([H])C23OC([H])(C([H])(C([H])([H])[H])C([H])=C2[H])C(C([H])([H])[H])(C([H])([H])[H])C([H])(O3)C2(O[H])C3([H])OC3([H])C([H])([H])C12C([H])([H])[H])C4([H])[H]

$$$$
38:0:2
     RDKit          3D

 96107  0  0  1  0  0  0  0  0999 V2000
    6.9973   -5.2622    1.6674 C   0  0  0  0  0  0  0  0  0  0  0  0
    5.8802   -4.5363    1.7489 C   0  0  0  0  0  0  0  0  0  0  0  0
    5.0325   -4.0277    0.6534 C   0  0  1  0  0  0  0  0  0  0  0  0
    3.7203   -4.9187    0.9245 C   0  0  0  0  0  0  0  0  0  0  0  0
    3.0879   -4.5450    2.2931 C   0  0  1  0  0  0  0  0  0  0  0  0
    1.6840   -4.7650    2.4904 O   0  0  0  0  0  0  0  0  0  0  0  0
    2.5736   -5.5276    3.3176 C   0  0  1  0  0  0  0  0  0  0  0  0
    2.5062   -7.0421    3.1365 C   0  0  0  0  0  0  0  0  0  0  0  0
    1.2603   -7.6981    3.7733 C   0  0  2  0  0  0  0  0  0  0  0  0
    1.0048   -7.2876    5.2750 C   0  0  2  0  0  0  0  0  0  0  0  0
    0.1945   -6.0460    5.5295 C   0  0  0  0  0  0  0  0  0  0  0  0
    0.3420   -5.4199    6.7049 C   0  0  0  0  0  0  0  0  0  0  0  0
    1.3451   -5.9166    7.7436 C   0  0  1  0  0  0  0  0  0  0  0  0
    0.8218   -5.7816    9.1846 C   0  0  0  0  0  0  0  0  0  0  0  0
    2.1191   -7.2339    7.3342 C   0  0  2  0  0  0  0  0  0  0  0  0
    2.2362   -7.1285    5.9301 O   0  0  0  0  0  0  0  0  0  0  0  0
    1.6465   -8.7270    7.6066 C   0  0  0  0  0  0  0  0  0  0  0  0
    2.8273   -9.5588    8.1611 C   0  0  0  0  0  0  0  0  0  0  0  0
    0.5509   -8.8105    8.6845 C   0  0  0  0  0  0  0  0  0  0  0  0
    1.0400   -9.3866    6.3129 C   0  0  1  0  0  0  0  0  0  0  0  0
    0.2524   -8.3060    5.8540 O   0  0  0  0  0  0  0  0  0  0  0  0
    1.9095   -9.8230    5.0789 C   0  0  1  0  0  0  0  0  0  0  0  0
    3.2654   -9.4276    5.1746 O   0  0  0  0  0  0  0  0  0  0  0  0
    2.1246  -11.2944    4.7965 C   0  0  1  0  0  0  0  0  0  0  0  0
    1.2271  -12.0419    3.9824 O   0  0  0  0  0  0  0  0  0  0  0  0
    2.3277  -11.4023    3.3240 C   0  0  1  0  0  0  0  0  0  0  0  0
    2.0984  -10.0496    2.6571 C   0  0  0  0  0  0  0  0  0  0  0  0
    1.2948   -9.2693    3.7375 C   0  0  2  0  0  0  0  0  0  0  0  0
   -0.1980   -9.6771    3.4842 C   0  0  0  0  0  0  0  0  0  0  0  0
    3.7486   -3.2398    2.6894 C   0  0  1  0  0  0  0  0  0  0  0  0
    5.2499   -3.8696    2.9309 C   0  0  2  0  0  0  0  0  0  0  0  0
    5.4261   -2.4697    2.6740 C   0  0  1  0  0  0  0  0  0  0  0  0
    4.9593   -2.4980    1.1567 C   0  0  2  0  0  0  0  0  0  0  0  0
    3.5618   -2.2155    1.5027 C   0  0  1  0  0  0  0  0  0  0  0  0
    2.6157   -2.4847    0.4964 O   0  0  0  0  0  0  0  0  0  0  0  0
    3.3816   -0.7228    1.9078 C   0  0  1  0  0  0  0  0  0  0  0  0
    2.7877    0.0652    0.8995 O   0  0  0  0  0  0  0  0  0  0  0  0
    2.7283   -0.5079    3.2716 C   0  0  1  0  0  0  0  0  0  0  0  0
    1.2992   -1.1080    3.3645 C   0  0  0  0  0  0  0  0  0  0  0  0
    0.2344   -0.0844    3.7451 C   0  0  0  0  0  0  0  0  0  0  0  0
   -0.3027   -0.0763    5.0489 C   0  0  0  0  0  0  0  0  0  0  0  0
   -1.3063    0.8501    5.4056 C   0  0  0  0  0  0  0  0  0  0  0  0
   -1.7797    1.7728    4.4581 C   0  0  0  0  0  0  0  0  0  0  0  0
   -1.2518    1.7737    3.1528 C   0  0  0  0  0  0  0  0  0  0  0  0
   -0.2485    0.8489    2.7944 C   0  0  0  0  0  0  0  0  0  0  0  0
    3.7305   -1.0925    4.2917 C   0  0  1  0  0  0  0  0  0  0  0  0
    3.1771   -1.1300    5.5892 O   0  0  0  0  0  0  0  0  0  0  0  0
    4.3166   -2.4481    3.8544 C   0  0  1  0  0  0  0  0  0  0  0  0
    7.5604   -5.5001    2.5606 H   0  0  0  0  0  0  0  0  0  0  0  0
    7.3982   -5.6219    0.7143 H   0  0  0  0  0  0  0  0  0  0  0  0
    5.4710   -4.1701   -0.3468 H   0  0  0  0  0  0  0  0  0  0  0  0
    2.9782   -4.7893    0.1348 H   0  0  0  0  0  0  0  0  0  0  0  0
    3.9580   -5.9875    0.9099 H   0  0  0  0  0  0  0  0  0  0  0  0
    2.6731   -5.1856    4.3363 H   0  0  0  0  0  0  0  0  0  0  0  0
    2.5004   -7.2458    2.0687 H   0  0  0  0  0  0  0  0  0  0  0  0
    3.4389   -7.4477    3.5335 H   0  0  0  0  0  0  0  0  0  0  0  0
    0.4041   -7.3512    3.1913 H   0  0  0  0  0  0  0  0  0  0  0  0
   -0.4814   -5.7016    4.7669 H   0  0  0  0  0  0  0  0  0  0  0  0
   -0.2128   -4.5267    6.9394 H   0  0  0  0  0  0  0  0  0  0  0  0
    2.1160   -5.1475    7.6806 H   0  0  0  0  0  0  0  0  0  0  0  0
    0.6854   -4.7292    9.4459 H   0  0  0  0  0  0  0  0  0  0  0  0
    1.5259   -6.2001    9.9073 H   0  0  0  0  0  0  0  0  0  0  0  0
   -0.1494   -6.2591    9.3182 H   0  0  0  0  0  0  0  0  0  0  0  0
    3.1232   -7.1280    7.7492 H   0  0  0  0  0  0  0  0  0  0  0  0
    2.6134  -10.6296    8.1274 H   0  0  0  0  0  0  0  0  0  0  0  0
    3.0591   -9.3014    9.1995 H   0  0  0  0  0  0  0  0  0  0  0  0
    3.7441   -9.3974    7.5957 H   0  0  0  0  0  0  0  0  0  0  0  0
    0.2542   -9.8496    8.8483 H   0  0  0  0  0  0  0  0  0  0  0  0
   -0.3471   -8.2731    8.3754 H   0  0  0  0  0  0  0  0  0  0  0  0
    0.8828   -8.4208    9.6500 H   0  0  0  0  0  0  0  0  0  0  0  0
    0.3704  -10.2093    6.5752 H   0  0  0  0  0  0  0  0  0  0  0  0
    3.7456   -9.8038    4.4383 H   0  0  0  0  0  0  0  0  0  0  0  0
    2.7215  -11.9008    5.4867 H   0  0  0  0  0  0  0  0  0  0  0  0
    3.1050  -12.0582    2.9292 H   0  0  0  0  0  0  0  0  0  0  0  0
    3.0659   -9.6008    2.4397 H   0  0  0  0  0  0  0  0  0  0  0  0
    1.5768  -10.1976    1.7125 H   0  0  0  0  0  0  0  0  0  0  0  0
   -0.4622  -10.6181    3.9508 H   0  0  0  0  0  0  0  0  0  0  0  0
   -0.4524   -9.7831    2.4260 H   0  0  0  0  0  0  0  0  0  0  0  0
   -0.9276   -8.9823    3.9021 H   0  0  0  0  0  0  0  0  0  0  0  0
    5.5556   -4.3625    3.8621 H   0  0  0  0  0  0  0  0  0  0  0  0
    6.4026   -2.0844    2.8645 H   0  0  0  0  0  0  0  0  0  0  0  0
    5.4718   -1.7620    0.5267 H   0  0  0  0  0  0  0  0  0  0  0  0
    2.4252   -1.6901   -0.0024 H   0  0  0  0  0  0  0  0  0  0  0  0
    4.3636   -0.2541    1.9993 H   0  0  0  0  0  0  0  0  0  0  0  0
    1.9136   -0.2358    0.6703 H   0  0  0  0  0  0  0  0  0  0  0  0
    2.6617    0.5686    3.4671 H   0  0  0  0  0  0  0  0  0  0  0  0
    0.9987   -1.5356    2.4131 H   0  0  0  0  0  0  0  0  0  0  0  0
    1.2757   -1.9462    4.0626 H   0  0  0  0  0  0  0  0  0  0  0  0
    0.0551   -0.7913    5.7798 H   0  0  0  0  0  0  0  0  0  0  0  0
   -1.7159    0.8492    6.4076 H   0  0  0  0  0  0  0  0  0  0  0  0
   -2.5557    2.4822    4.7298 H   0  0  0  0  0  0  0  0  0  0  0  0
   -1.6289    2.4742    2.4171 H   0  0  0  0  0  0  0  0  0  0  0  0
    0.1313    0.8527    1.7787 H   0  0  0  0  0  0  0  0  0  0  0  0
    4.5615   -0.3888    4.3711 H   0  0  0  0  0  0  0  0  0  0  0  0
    2.9570   -0.2354    5.8429 H   0  0  0  0  0  0  0  0  0  0  0  0
    4.4930   -3.0056    4.7973 H   0  0  0  0  0  0  0  0  0  0  0  0
  1  2  2  0
  1 49  1  0
  1 50  1  0
  2 31  1  0
  2  3  1  0
  3 33  1  0
  3  4  1  0
  3 51  1  6
  4  5  1  0
  4 52  1  0
  4 53  1  0
  5  7  1  0
  5  6  1  6
 30  5  1  1
  6  7  1  0
  7  8  1  0
  7 54  1  1
  8  9  1  0
  8 55  1  0
  8 56  1  0
  9 28  1  0
  9 10  1  0
  9 57  1  6
 10 16  1  0
 10 21  1  0
 10 11  1  6
 11 12  2  0
 11 58  1  0
 12 13  1  0
 12 59  1  0
 13 14  1  0
 13 15  1  0
 13 60  1  1
 14 61  1  0
 14 62  1  0
 14 63  1  0
 15 16  1  0
 15 17  1  0
 15 64  1  1
 17 18  1  0
 17 19  1  0
 17 20  1  0
 18 65  1  0
 18 66  1  0
 18 67  1  0
 19 68  1  0
 19 69  1  0
 19 70  1  0
 20 21  1  0
 20 22  1  0
 20 71  1  1
 22 28  1  0
 22 23  1  1
 22 24  1  0
 23 72  1  0
 24 26  1  0
 24 25  1  0
 24 73  1  1
 25 26  1  0
 26 27  1  0
 26 74  1  1
 27 28  1  0
 27 75  1  0
 27 76  1  0
 28 29  1  1
 29 77  1  0
 29 78  1  0
 29 79  1  0
 30 34  1  0
 30 48  1  0
 30 31  1  0
 31 32  1  0
 31 80  1  1
 32 48  1  0
 32 33  1  0
 32 81  1  6
 33 34  1  0
 33 82  1  6
 34 35  1  6
 34 36  1  0
 35 83  1  0
 36 37  1  0
 36 38  1  0
 36 84  1  1
 37 85  1  0
 38 39  1  0
 38 46  1  0
 38 86  1  1
 39 40  1  0
 39 87  1  0
 39 88  1  0
 40 45  1  0
 40 41  2  0
 41 42  1  0
 41 89  1  0
 42 43  2  0
 42 90  1  0
 43 44  1  0
 43 91  1  0
 44 45  2  0
 44 92  1  0
 45 93  1  0
 46 47  1  0
 46 48  1  0
 46 94  1  1
 47 95  1  0
 48 96  1  1
M  END
>  <i_m_ct_stereo_status>  (183) 
1

>  <s_m_source_file>  (183) 
/var/tmp/pbs.5076255.sched01/tmpstc2q6q5/48db17pvb_.sdf

>  <i_m_source_file_index>  (183) 
25

>  <i_lp_mmshare_version>  (183) 
48012

>  <i_f3d_flags>  (183) 
2

>  <s_epik_input>  (183) 
W2NIXTFbY0hdW2NIXVtjSF1bY0hdYzFbQ0gyXVtDQEBIXShbQ0BASF0oW09IXSlbQ0BASF0yMylbQ0BIXShbT0hdKVtDQEBdNChbT0hdKVtDQEhdKFtDQEhdKFtDSDJdNSlDNj1bQ0gyXSlbQ0BASF0zW0NASF02QzI0W0NAQF01N09bQ0BIXTdbQ0gyXVtDQEhdKFtDQF0xODkpW0NAXTIoW0NIM10pW0NAXShbT0hdKShbQ0BASF0zW0NAQEhdKE8zKVtDSDJdMilbQ0BIXShPMSlDKFtDSDNdKShbQ0gzXSlbQ0hdKE85KVtDQEhdKFtDSDNdKVtDSF09W0NIXTg=

>  <s_epik_cmdline>  (183) 
J2VwaWtfcHl0aG9uJywgJy1waHQnLCAnMi4wJywgJy1waCcsICc3LjAnLCAnLXRuJywgJzgnLCAnLW1hJywgJzIwMCcsICctaW1hZScsICc8aW5maWxlLm1hZT4nLCAnLW9tYWUnLCAnPG91dGZpbGUubWFlPic=

>  <r_lp_tautomer_probability>  (183) 
1

>  <r_epik_Ionization_Penalty>  (183) 
6.23238e-07

>  <r_epik_Ionization_Penalty_Charging>  (183) 
0

>  <r_epik_Ionization_Penalty_Neutral>  (183) 
6.23238e-07

>  <r_epik_State_Penalty>  (183) 
-0

>  <r_epik_Charging_Adjusted_Penalty>  (183) 
0

>  <i_epik_Tot_Q>  (183) 
0

>  <i_epik_Tot_abs_Q>  (183) 
0

>  <s_lp_Force_Field>  (183) 
OPLS3e

>  <r_lp_Energy>  (183) 
270.945

>  <b_lp_Chiralities_Consistent>  (183) 
0

>  <s_lp_Variant>  (183) 
38:0-1

>  <s_i_glide_gridfile>  (183) 
pfpi4k_grid

>  <i_i_glide_lignum>  (183) 
25

>  <i_i_glide_rotatable_bonds>  (183) 
8

>  <r_i_docking_score>  (183) 
-2.41764

>  <r_i_glide_ligand_efficiency>  (183) 
-0.0503674

>  <r_i_glide_ligand_efficiency_sa>  (183) 
-0.183047

>  <r_i_glide_ligand_efficiency_ln>  (183) 
-0.496312

>  <r_i_glide_gscore>  (183) 
-2.41764

>  <r_i_glide_lipo>  (183) 
-0.415528

>  <r_i_glide_hbond>  (183) 
0

>  <r_i_glide_metal>  (183) 
-0

>  <r_i_glide_rewards>  (183) 
0

>  <r_i_glide_evdw>  (183) 
-29.4783

>  <r_i_glide_ecoul>  (183) 
-3.75157

>  <r_i_glide_erotb>  (183) 
0.0425811

>  <r_i_glide_esite>  (183) 
-0.00803857

>  <r_i_glide_emodel>  (183) 
-35.9703

>  <r_i_glide_energy>  (183) 
-33.2299

>  <r_i_glide_einternal>  (183) 
3.96146

>  <r_i_glide_intrahb_reward>  (183) 
-0

>  <i_i_glide_confnum>  (183) 
2

>  <i_i_glide_posenum>  (183) 
24

>  <r_i_glide_eff_state_penalty>  (183) 
0

>  <ligand_id>  (183) 
38

>  <original_smiles>  (183) 
C=C1C2CC3(OC3CC3C45C=CC(C)C(O4)C(C)(C)C(O5)C4(O)C5OC5CC34C)C34C1C1C2C3(O)C(O)C(Cc2ccccc2)C(O)C14

>  <smiles>  (183) 
[H]OC1([H])C([H])(C([H])([H])c2c([H])c([H])c([H])c([H])c2[H])C([H])(O[H])C2(O[H])C3([H])C4([H])C(=C([H])[H])C5([H])C3([H])C1([H])C52C1(OC1([H])C([H])([H])C1([H])C23OC([H])(C([H])(C([H])([H])[H])C([H])=C2[H])C(C([H])([H])[H])(C([H])([H])[H])C([H])(O3)C2(O[H])C3([H])OC3([H])C([H])([H])C12C([H])([H])[H])C4([H])[H]

$$$$
39:0:0
     RDKit          3D

 26 31  0  0  1  0  0  0  0  0999 V2000
    5.1477   -1.0000    0.1475 C   0  0  0  0  0  0  0  0  0  0  0  0
    6.4165   -1.8791    0.0798 C   0  0  2  0  0  0  0  0  0  0  0  0
    6.7234   -2.6596   -1.1488 C   0  0  1  0  0  0  0  0  0  0  0  0
    5.6890   -3.4872   -1.8805 C   0  0  2  0  0  0  0  0  0  0  0  0
    4.5466   -2.6443   -2.4725 C   0  0  0  0  0  0  0  0  0  0  0  0
    3.4343   -2.3194   -1.4787 C   0  0  2  0  0  0  0  0  0  0  0  0
    3.8006   -1.6514   -0.1249 C   0  0  1  0  0  0  0  0  0  0  0  0
    3.5176   -2.9696    0.5791 C   0  0  1  0  0  0  0  0  0  0  0  0
    3.0463   -3.5627   -0.6949 C   0  0  2  0  0  0  0  0  0  0  0  0
    4.0906   -4.2530    0.0828 C   0  0  1  0  0  0  0  0  0  0  0  0
    5.4695   -4.2852   -0.5661 C   0  0  2  0  0  0  0  0  0  0  0  0
    6.4535   -3.3810    0.1362 C   0  0  2  0  0  0  0  0  0  0  0  0
    5.2960   -0.1852   -0.5489 H   0  0  0  0  0  0  0  0  0  0  0  0
    5.1276   -0.5288    1.1306 H   0  0  0  0  0  0  0  0  0  0  0  0
    7.2536   -1.3674    0.5384 H   0  0  0  0  0  0  0  0  0  0  0  0
    7.7522   -2.6507   -1.5609 H   0  0  0  0  0  0  0  0  0  0  0  0
    6.1463   -4.1075   -2.6409 H   0  0  0  0  0  0  0  0  0  0  0  0
    4.9439   -1.7181   -2.8953 H   0  0  0  0  0  0  0  0  0  0  0  0
    4.1114   -3.1817   -3.3210 H   0  0  0  0  0  0  0  0  0  0  0  0
    2.5934   -1.8357   -1.9424 H   0  0  0  0  0  0  0  0  0  0  0  0
    3.0148   -0.9324    0.0959 H   0  0  0  0  0  0  0  0  0  0  0  0
    2.8530   -2.9610    1.4632 H   0  0  0  0  0  0  0  0  0  0  0  0
    2.0332   -4.0012   -0.8047 H   0  0  0  0  0  0  0  0  0  0  0  0
    3.8449   -5.1695    0.6302 H   0  0  0  0  0  0  0  0  0  0  0  0
    5.8319   -5.2978   -0.6697 H   0  0  0  0  0  0  0  0  0  0  0  0
    7.2708   -3.8595    0.7108 H   0  0  0  0  0  0  0  0  0  0  0  0
  1  7  1  0
  1  2  1  0
  1 13  1  0
  1 14  1  0
  2 12  1  0
  2  3  1  0
  2 15  1  1
  3 12  1  0
  3  4  1  0
  3 16  1  6
  4 11  1  0
  4  5  1  0
  4 17  1  6
  5  6  1  0
  5 18  1  0
  5 19  1  0
  6  9  1  0
  6  7  1  0
  6 20  1  6
  7  8  1  0
  7 21  1  1
  8 10  1  0
  8  9  1  0
  8 22  1  1
  9 10  1  0
  9 23  1  1
 10 11  1  0
 10 24  1  1
 11 12  1  0
 11 25  1  6
 12 26  1  1
M  END
>  <i_m_ct_stereo_status>  (184) 
1

>  <s_m_source_file>  (184) 
/var/tmp/pbs.5076255.sched01/tmpstc2q6q5/48db17pvb_.sdf

>  <i_m_source_file_index>  (184) 
26

>  <i_lp_mmshare_version>  (184) 
48012

>  <i_f3d_flags>  (184) 
0

>  <s_epik_input>  (184) 
W0NIMl0xW0NAQEhdKFtDQEhdMjMpW0NASF0oW0NIMl00KVtDQEBIXTJbQ0BASF0zW0NASF0oW0NASF01NilbQ0BASF0xW0NASF02W0NAQEhdNDU=

>  <s_epik_cmdline>  (184) 
J2VwaWtfcHl0aG9uJywgJy1waHQnLCAnMi4wJywgJy1waCcsICc3LjAnLCAnLXRuJywgJzgnLCAnLW1hJywgJzIwMCcsICctaW1hZScsICc8aW5maWxlLm1hZT4nLCAnLW9tYWUnLCAnPG91dGZpbGUubWFlPic=

>  <r_lp_tautomer_probability>  (184) 
1

>  <r_epik_Ionization_Penalty>  (184) 
0

>  <r_epik_Ionization_Penalty_Charging>  (184) 
0

>  <r_epik_Ionization_Penalty_Neutral>  (184) 
0

>  <r_epik_State_Penalty>  (184) 
-0

>  <r_epik_Charging_Adjusted_Penalty>  (184) 
0

>  <i_epik_Tot_Q>  (184) 
0

>  <i_epik_Tot_abs_Q>  (184) 
0

>  <s_lp_Force_Field>  (184) 
OPLS3e

>  <r_lp_Energy>  (184) 
47.395

>  <b_lp_Chiralities_Consistent>  (184) 
1

>  <s_lp_Variant>  (184) 
39:0-1

>  <s_i_glide_gridfile>  (184) 
pfpi4k_grid

>  <i_i_glide_lignum>  (184) 
26

>  <i_i_glide_rotatable_bonds>  (184) 
0

>  <r_i_docking_score>  (184) 
-3.50702

>  <r_i_glide_ligand_efficiency>  (184) 
-0.292252

>  <r_i_glide_ligand_efficiency_sa>  (184) 
-0.669089

>  <r_i_glide_ligand_efficiency_ln>  (184) 
-1.00635

>  <r_i_glide_gscore>  (184) 
-3.50702

>  <r_i_glide_lipo>  (184) 
-0.454251

>  <r_i_glide_hbond>  (184) 
0

>  <r_i_glide_metal>  (184) 
-0

>  <r_i_glide_rewards>  (184) 
-2.25

>  <r_i_glide_evdw>  (184) 
-16.4069

>  <r_i_glide_ecoul>  (184) 
0.117189

>  <r_i_glide_erotb>  (184) 
0

>  <r_i_glide_esite>  (184) 
0

>  <r_i_glide_emodel>  (184) 
-19.9186

>  <r_i_glide_energy>  (184) 
-16.2897

>  <r_i_glide_einternal>  (184) 
0

>  <r_i_glide_intrahb_reward>  (184) 
-0

>  <i_i_glide_confnum>  (184) 
1

>  <i_i_glide_posenum>  (184) 
39

>  <r_i_glide_eff_state_penalty>  (184) 
0

>  <ligand_id>  (184) 
39

>  <original_smiles>  (184) 
C1C2C3C4CC5C1C1C5C1C4C23

>  <smiles>  (184) 
[H]C1([H])C2([H])C3([H])C4([H])C([H])([H])C5([H])C1([H])C1([H])C5([H])C1([H])C4([H])C23[H]

$$$$
39:0:1
     RDKit          3D

 26 31  0  0  1  0  0  0  0  0999 V2000
    3.9972   -1.4690   -1.3434 C   0  0  0  0  0  0  0  0  0  0  0  0
    4.6031   -0.8556   -0.0715 C   0  0  2  0  0  0  0  0  0  0  0  0
    6.0377   -1.0717    0.3033 C   0  0  2  0  0  0  0  0  0  0  0  0
    6.6720   -2.4386    0.2581 C   0  0  2  0  0  0  0  0  0  0  0  0
    6.7260   -3.0486   -1.1655 C   0  0  0  0  0  0  0  0  0  0  0  0
    5.4237   -3.7440   -1.5788 C   0  0  2  0  0  0  0  0  0  0  0  0
    4.0720   -2.9873   -1.5094 C   0  0  1  0  0  0  0  0  0  0  0  0
    3.6861   -3.8471   -0.3168 C   0  0  1  0  0  0  0  0  0  0  0  0
    4.9138   -4.6639   -0.4914 C   0  0  2  0  0  0  0  0  0  0  0  0
    4.6485   -4.0423    0.8390 C   0  0  1  0  0  0  0  0  0  0  0  0
    5.5986   -2.9281    1.2619 C   0  0  2  0  0  0  0  0  0  0  0  0
    4.9580   -1.5650    1.2316 C   0  0  2  0  0  0  0  0  0  0  0  0
    4.4537   -0.9744   -2.1992 H   0  0  0  0  0  0  0  0  0  0  0  0
    2.9537   -1.1712   -1.4052 H   0  0  0  0  0  0  0  0  0  0  0  0
    4.2394    0.1527    0.0416 H   0  0  0  0  0  0  0  0  0  0  0  0
    6.6574   -0.2125    0.6015 H   0  0  0  0  0  0  0  0  0  0  0  0
    7.6456   -2.4272    0.7052 H   0  0  0  0  0  0  0  0  0  0  0  0
    6.9749   -2.2690   -1.8884 H   0  0  0  0  0  0  0  0  0  0  0  0
    7.5471   -3.7716   -1.2270 H   0  0  0  0  0  0  0  0  0  0  0  0
    5.5238   -4.2333   -2.5360 H   0  0  0  0  0  0  0  0  0  0  0  0
    3.4834   -3.2840   -2.3716 H   0  0  0  0  0  0  0  0  0  0  0  0
    2.7013   -4.3433   -0.3153 H   0  0  0  0  0  0  0  0  0  0  0  0
    4.8597   -5.7565   -0.6334 H   0  0  0  0  0  0  0  0  0  0  0  0
    4.3155   -4.6557    1.6684 H   0  0  0  0  0  0  0  0  0  0  0  0
    6.0435   -3.1185    2.2391 H   0  0  0  0  0  0  0  0  0  0  0  0
    4.7613   -1.0421    2.1812 H   0  0  0  0  0  0  0  0  0  0  0  0
  1  7  1  0
  1  2  1  0
  1 13  1  0
  1 14  1  0
  2 12  1  0
  2  3  1  0
  2 15  1  1
  3 12  1  0
  3  4  1  0
  3 16  1  1
  4 11  1  0
  4  5  1  0
  4 17  1  1
  5  6  1  0
  5 18  1  0
  5 19  1  0
  6  9  1  0
  6  7  1  0
  6 20  1  6
  7  8  1  0
  7 21  1  6
  8 10  1  0
  8  9  1  0
  8 22  1  1
  9 10  1  0
  9 23  1  1
 10 11  1  0
 10 24  1  1
 11 12  1  0
 11 25  1  1
 12 26  1  1
M  END
>  <i_m_ct_stereo_status>  (185) 
1

>  <s_m_source_file>  (185) 
/var/tmp/pbs.5076255.sched01/tmpstc2q6q5/48db17pvb_.sdf

>  <i_m_source_file_index>  (185) 
26

>  <i_lp_mmshare_version>  (185) 
48012

>  <i_f3d_flags>  (185) 
0

>  <s_epik_input>  (185) 
W0NIMl0xW0NAQEhdKFtDQEhdMjMpW0NASF0oW0NIMl00KVtDQEBIXTJbQ0BASF0zW0NASF0oW0NASF01NilbQ0BASF0xW0NASF02W0NAQEhdNDU=

>  <s_epik_cmdline>  (185) 
J2VwaWtfcHl0aG9uJywgJy1waHQnLCAnMi4wJywgJy1waCcsICc3LjAnLCAnLXRuJywgJzgnLCAnLW1hJywgJzIwMCcsICctaW1hZScsICc8aW5maWxlLm1hZT4nLCAnLW9tYWUnLCAnPG91dGZpbGUubWFlPic=

>  <r_lp_tautomer_probability>  (185) 
1

>  <r_epik_Ionization_Penalty>  (185) 
0

>  <r_epik_Ionization_Penalty_Charging>  (185) 
0

>  <r_epik_Ionization_Penalty_Neutral>  (185) 
0

>  <r_epik_State_Penalty>  (185) 
-0

>  <r_epik_Charging_Adjusted_Penalty>  (185) 
0

>  <i_epik_Tot_Q>  (185) 
0

>  <i_epik_Tot_abs_Q>  (185) 
0

>  <s_lp_Force_Field>  (185) 
OPLS3e

>  <r_lp_Energy>  (185) 
47.395

>  <b_lp_Chiralities_Consistent>  (185) 
1

>  <s_lp_Variant>  (185) 
39:0-1

>  <s_i_glide_gridfile>  (185) 
pfpi4k_grid

>  <i_i_glide_lignum>  (185) 
26

>  <i_i_glide_rotatable_bonds>  (185) 
0

>  <r_i_docking_score>  (185) 
-3.47248

>  <r_i_glide_ligand_efficiency>  (185) 
-0.289374

>  <r_i_glide_ligand_efficiency_sa>  (185) 
-0.6625

>  <r_i_glide_ligand_efficiency_ln>  (185) 
-0.996435

>  <r_i_glide_gscore>  (185) 
-3.47248

>  <r_i_glide_lipo>  (185) 
-0.402626

>  <r_i_glide_hbond>  (185) 
0

>  <r_i_glide_metal>  (185) 
-0

>  <r_i_glide_rewards>  (185) 
-2.25

>  <r_i_glide_evdw>  (185) 
-16.2095

>  <r_i_glide_ecoul>  (185) 
-0.0625553

>  <r_i_glide_erotb>  (185) 
0

>  <r_i_glide_esite>  (185) 
0

>  <r_i_glide_emodel>  (185) 
-19.8257

>  <r_i_glide_energy>  (185) 
-16.272

>  <r_i_glide_einternal>  (185) 
0

>  <r_i_glide_intrahb_reward>  (185) 
-0

>  <i_i_glide_confnum>  (185) 
2

>  <i_i_glide_posenum>  (185) 
15

>  <r_i_glide_eff_state_penalty>  (185) 
0

>  <ligand_id>  (185) 
39

>  <original_smiles>  (185) 
C1C2C3C4CC5C1C1C5C1C4C23

>  <smiles>  (185) 
[H]C1([H])C2([H])C3([H])C4([H])C([H])([H])C5([H])C1([H])C1([H])C5([H])C1([H])C4([H])C23[H]

$$$$
39:0:2
     RDKit          3D

 26 31  0  0  1  0  0  0  0  0999 V2000
    2.5678   -3.4697   -0.9741 C   0  0  0  0  0  0  0  0  0  0  0  0
    2.9387   -2.8312   -2.3189 C   0  0  2  0  0  0  0  0  0  0  0  0
    4.3235   -2.9364   -2.8857 C   0  0  2  0  0  0  0  0  0  0  0  0
    5.5488   -2.6977   -2.0302 C   0  0  2  0  0  0  0  0  0  0  0  0
    5.7012   -3.7214   -0.8851 C   0  0  0  0  0  0  0  0  0  0  0  0
    4.9018   -3.3738    0.3779 C   0  0  2  0  0  0  0  0  0  0  0  0
    3.3815   -3.1088    0.2685 C   0  0  1  0  0  0  0  0  0  0  0  0
    3.6401   -1.6280    0.4995 C   0  0  1  0  0  0  0  0  0  0  0  0
    5.0872   -1.9150    0.7466 C   0  0  2  0  0  0  0  0  0  0  0  0
    4.7067   -0.9039   -0.2816 C   0  0  1  0  0  0  0  0  0  0  0  0
    5.0115   -1.2736   -1.7252 C   0  0  2  0  0  0  0  0  0  0  0  0
    3.7649   -1.5799   -2.5248 C   0  0  2  0  0  0  0  0  0  0  0  0
    2.5943   -4.5467   -1.1140 H   0  0  0  0  0  0  0  0  0  0  0  0
    1.5230   -3.2465   -0.7843 H   0  0  0  0  0  0  0  0  0  0  0  0
    2.1333   -2.9715   -3.0302 H   0  0  0  0  0  0  0  0  0  0  0  0
    4.4584   -3.2082   -3.9422 H   0  0  0  0  0  0  0  0  0  0  0  0
    6.4452   -2.6673   -2.6420 H   0  0  0  0  0  0  0  0  0  0  0  0
    5.4132   -4.7143   -1.2388 H   0  0  0  0  0  0  0  0  0  0  0  0
    6.7576   -3.8077   -0.6144 H   0  0  0  0  0  0  0  0  0  0  0  0
    5.1271   -4.0374    1.1976 H   0  0  0  0  0  0  0  0  0  0  0  0
    2.9036   -3.5388    1.1457 H   0  0  0  0  0  0  0  0  0  0  0  0
    3.0423   -1.0921    1.2493 H   0  0  0  0  0  0  0  0  0  0  0  0
    5.5764   -1.6168    1.6864 H   0  0  0  0  0  0  0  0  0  0  0  0
    4.8434    0.1459   -0.0530 H   0  0  0  0  0  0  0  0  0  0  0  0
    5.6091   -0.5202   -2.2156 H   0  0  0  0  0  0  0  0  0  0  0  0
    3.4508   -0.8667   -3.3044 H   0  0  0  0  0  0  0  0  0  0  0  0
  1  7  1  0
  1  2  1  0
  1 13  1  0
  1 14  1  0
  2 12  1  0
  2  3  1  0
  2 15  1  6
  3 12  1  0
  3  4  1  0
  3 16  1  6
  4 11  1  0
  4  5  1  0
  4 17  1  6
  5  6  1  0
  5 18  1  0
  5 19  1  0
  6  9  1  0
  6  7  1  0
  6 20  1  1
  7  8  1  0
  7 21  1  1
  8 10  1  0
  8  9  1  0
  8 22  1  1
  9 10  1  0
  9 23  1  1
 10 11  1  0
 10 24  1  1
 11 12  1  0
 11 25  1  6
 12 26  1  6
M  END
>  <i_m_ct_stereo_status>  (186) 
1

>  <s_m_source_file>  (186) 
/var/tmp/pbs.5076255.sched01/tmpstc2q6q5/48db17pvb_.sdf

>  <i_m_source_file_index>  (186) 
26

>  <i_lp_mmshare_version>  (186) 
48012

>  <i_f3d_flags>  (186) 
0

>  <s_epik_input>  (186) 
W0NIMl0xW0NAQEhdKFtDQEhdMjMpW0NASF0oW0NIMl00KVtDQEBIXTJbQ0BASF0zW0NASF0oW0NASF01NilbQ0BASF0xW0NASF02W0NAQEhdNDU=

>  <s_epik_cmdline>  (186) 
J2VwaWtfcHl0aG9uJywgJy1waHQnLCAnMi4wJywgJy1waCcsICc3LjAnLCAnLXRuJywgJzgnLCAnLW1hJywgJzIwMCcsICctaW1hZScsICc8aW5maWxlLm1hZT4nLCAnLW9tYWUnLCAnPG91dGZpbGUubWFlPic=

>  <r_lp_tautomer_probability>  (186) 
1

>  <r_epik_Ionization_Penalty>  (186) 
0

>  <r_epik_Ionization_Penalty_Charging>  (186) 
0

>  <r_epik_Ionization_Penalty_Neutral>  (186) 
0

>  <r_epik_State_Penalty>  (186) 
-0

>  <r_epik_Charging_Adjusted_Penalty>  (186) 
0

>  <i_epik_Tot_Q>  (186) 
0

>  <i_epik_Tot_abs_Q>  (186) 
0

>  <s_lp_Force_Field>  (186) 
OPLS3e

>  <r_lp_Energy>  (186) 
47.395

>  <b_lp_Chiralities_Consistent>  (186) 
1

>  <s_lp_Variant>  (186) 
39:0-1

>  <s_i_glide_gridfile>  (186) 
pfpi4k_grid

>  <i_i_glide_lignum>  (186) 
26

>  <i_i_glide_rotatable_bonds>  (186) 
0

>  <r_i_docking_score>  (186) 
-3.37006

>  <r_i_glide_ligand_efficiency>  (186) 
-0.280838

>  <r_i_glide_ligand_efficiency_sa>  (186) 
-0.642959

>  <r_i_glide_ligand_efficiency_ln>  (186) 
-0.967044

>  <r_i_glide_gscore>  (186) 
-3.37006

>  <r_i_glide_lipo>  (186) 
-0.247082

>  <r_i_glide_hbond>  (186) 
0

>  <r_i_glide_metal>  (186) 
-0

>  <r_i_glide_rewards>  (186) 
-2.25

>  <r_i_glide_evdw>  (186) 
-17.6761

>  <r_i_glide_ecoul>  (186) 
0.0721879

>  <r_i_glide_erotb>  (186) 
0

>  <r_i_glide_esite>  (186) 
0

>  <r_i_glide_emodel>  (186) 
-21.0875

>  <r_i_glide_energy>  (186) 
-17.6039

>  <r_i_glide_einternal>  (186) 
0

>  <r_i_glide_intrahb_reward>  (186) 
-0

>  <i_i_glide_confnum>  (186) 
1

>  <i_i_glide_posenum>  (186) 
28

>  <r_i_glide_eff_state_penalty>  (186) 
0

>  <ligand_id>  (186) 
39

>  <original_smiles>  (186) 
C1C2C3C4CC5C1C1C5C1C4C23

>  <smiles>  (186) 
[H]C1([H])C2([H])C3([H])C4([H])C([H])([H])C5([H])C1([H])C1([H])C5([H])C1([H])C4([H])C23[H]

$$$$
40:0:0
     RDKit          3D

 24 25  0  0  1  0  0  0  0  0999 V2000
    2.9347   -0.2918   -4.6976 C   0  0  0  0  0  0  0  0  0  0  0  0
    3.7012   -1.1929   -3.8683 N   0  0  0  0  0  0  0  0  0  0  0  0
    4.3880   -0.9280   -2.7014 C   0  0  0  0  0  0  0  0  0  0  0  0
    4.8970   -2.1286   -2.3051 C   0  0  0  0  0  0  0  0  0  0  0  0
    5.7864   -2.3972   -1.1396 C   0  0  0  0  0  0  0  0  0  0  0  0
    6.4206   -1.4935   -0.5938 O   0  0  0  0  0  0  0  0  0  0  0  0
    5.7971   -3.6772   -0.7458 N   0  0  0  0  0  0  0  0  0  0  0  0
    6.7518   -4.2567    0.1203 C   0  0  0  0  0  0  0  0  0  0  0  0
    8.1162   -3.8892    0.1153 C   0  0  0  0  0  0  0  0  0  0  0  0
    9.0189   -4.5199    0.8859 N   0  0  0  0  0  0  0  0  0  0  0  0
    8.5672   -5.4998    1.6720 C   0  0  0  0  0  0  0  0  0  0  0  0
    7.3147   -5.9417    1.7437 N   0  0  0  0  0  0  0  0  0  0  0  0
    6.4008   -5.3329    0.9622 C   0  0  0  0  0  0  0  0  0  0  0  0
    4.5097   -3.0696   -3.2901 C   0  0  0  0  0  0  0  0  0  0  0  0
    3.7983   -2.4888   -4.2377 N   0  0  0  0  0  0  0  0  0  0  0  0
    2.9489    0.7171   -4.2833 H   0  0  0  0  0  0  0  0  0  0  0  0
    1.9006   -0.6377   -4.7418 H   0  0  0  0  0  0  0  0  0  0  0  0
    3.3427   -0.2678   -5.7105 H   0  0  0  0  0  0  0  0  0  0  0  0
    4.4593    0.0591   -2.2756 H   0  0  0  0  0  0  0  0  0  0  0  0
    5.1318   -4.2969   -1.1873 H   0  0  0  0  0  0  0  0  0  0  0  0
    8.5173   -3.1314   -0.5486 H   0  0  0  0  0  0  0  0  0  0  0  0
    9.2828   -5.9607    2.3334 H   0  0  0  0  0  0  0  0  0  0  0  0
    5.3932   -5.7180    0.9870 H   0  0  0  0  0  0  0  0  0  0  0  0
    4.7359   -4.1225   -3.3652 H   0  0  0  0  0  0  0  0  0  0  0  0
  1  2  1  0
  1 16  1  0
  1 17  1  0
  1 18  1  0
  2 15  1  0
  2  3  1  0
  3  4  2  0
  3 19  1  0
  4  5  1  0
  4 14  1  0
  5  6  2  0
  5  7  1  0
  7  8  1  0
  7 20  1  0
  8 13  1  0
  8  9  2  0
  9 10  1  0
  9 21  1  0
 10 11  2  0
 11 12  1  0
 11 22  1  0
 12 13  2  0
 13 23  1  0
 14 15  2  0
 14 24  1  0
M  END
>  <i_m_ct_stereo_status>  (187) 
1

>  <s_m_source_file>  (187) 
/var/tmp/pbs.5076255.sched01/tmpstc2q6q5/48db17pvb_.sdf

>  <i_m_source_file_index>  (187) 
27

>  <i_lp_mmshare_version>  (187) 
48012

>  <i_f3d_flags>  (187) 
0

>  <s_epik_input>  (187) 
W0NIM11uMVtjSF1jKFtjSF1uMSlDKD1PKVtOSF1jMltjSF1uW2NIXW5bY0hdMg==

>  <s_epik_cmdline>  (187) 
J2VwaWtfcHl0aG9uJywgJy1waHQnLCAnMi4wJywgJy1waCcsICc3LjAnLCAnLXRuJywgJzgnLCAnLW1hJywgJzIwMCcsICctaW1hZScsICc8aW5maWxlLm1hZT4nLCAnLW9tYWUnLCAnPG91dGZpbGUubWFlPic=

>  <r_lp_tautomer_probability>  (187) 
1

>  <r_epik_Ionization_Penalty>  (187) 
9.14925e-06

>  <r_epik_Ionization_Penalty_Charging>  (187) 
0

>  <r_epik_Ionization_Penalty_Neutral>  (187) 
9.14925e-06

>  <r_epik_State_Penalty>  (187) 
-0

>  <r_epik_Charging_Adjusted_Penalty>  (187) 
0

>  <i_epik_Tot_Q>  (187) 
0

>  <i_epik_Tot_abs_Q>  (187) 
0

>  <s_lp_Force_Field>  (187) 
OPLS3e

>  <r_lp_Energy>  (187) 
21.2042

>  <b_lp_Chiralities_Consistent>  (187) 
1

>  <s_lp_Variant>  (187) 
40:0-1

>  <s_i_glide_gridfile>  (187) 
pfpi4k_grid

>  <i_i_glide_lignum>  (187) 
27

>  <i_i_glide_rotatable_bonds>  (187) 
3

>  <r_i_docking_score>  (187) 
-4.67874

>  <r_i_glide_ligand_efficiency>  (187) 
-0.311916

>  <r_i_glide_ligand_efficiency_sa>  (187) 
-0.769251

>  <r_i_glide_ligand_efficiency_ln>  (187) 
-1.26178

>  <r_i_glide_gscore>  (187) 
-4.67874

>  <r_i_glide_lipo>  (187) 
-0.834218

>  <r_i_glide_hbond>  (187) 
-0.44795

>  <r_i_glide_metal>  (187) 
-0

>  <r_i_glide_rewards>  (187) 
-2.2221

>  <r_i_glide_evdw>  (187) 
-24.719

>  <r_i_glide_ecoul>  (187) 
-7.25457

>  <r_i_glide_erotb>  (187) 
1.19298

>  <r_i_glide_esite>  (187) 
-0.0433184

>  <r_i_glide_emodel>  (187) 
-39.4716

>  <r_i_glide_energy>  (187) 
-31.9736

>  <r_i_glide_einternal>  (187) 
4.36106

>  <r_i_glide_intrahb_reward>  (187) 
-0

>  <i_i_glide_confnum>  (187) 
2

>  <i_i_glide_posenum>  (187) 
13

>  <r_i_glide_eff_state_penalty>  (187) 
0

>  <ligand_id>  (187) 
40

>  <original_smiles>  (187) 
Cn1cc(C(=O)Nc2cncnc2)cn1

>  <smiles>  (187) 
[H]c1nc([H])c(N([H])C(=O)c2c([H])nn(C([H])([H])[H])c2[H])c([H])n1

$$$$
40:0:1
     RDKit          3D

 24 25  0  0  1  0  0  0  0  0999 V2000
    3.2920    0.0716   -4.5471 C   0  0  0  0  0  0  0  0  0  0  0  0
    3.8110   -1.0586   -3.8088 N   0  0  0  0  0  0  0  0  0  0  0  0
    4.4768   -1.0724   -2.5968 C   0  0  0  0  0  0  0  0  0  0  0  0
    4.7329   -2.3902   -2.3592 C   0  0  0  0  0  0  0  0  0  0  0  0
    5.4584   -2.9689   -1.1942 C   0  0  0  0  0  0  0  0  0  0  0  0
    6.3409   -2.3327   -0.6211 O   0  0  0  0  0  0  0  0  0  0  0  0
    5.0128   -4.1950   -0.8657 N   0  0  0  0  0  0  0  0  0  0  0  0
    5.4118   -5.0505    0.1915 C   0  0  0  0  0  0  0  0  0  0  0  0
    4.7097   -6.2566    0.3835 C   0  0  0  0  0  0  0  0  0  0  0  0
    5.0461   -7.1277    1.3519 N   0  0  0  0  0  0  0  0  0  0  0  0
    6.0714   -6.7928    2.1295 C   0  0  0  0  0  0  0  0  0  0  0  0
    6.8025   -5.6847    2.0484 N   0  0  0  0  0  0  0  0  0  0  0  0
    6.4803   -4.8063    1.0803 C   0  0  0  0  0  0  0  0  0  0  0  0
    4.2059   -3.1227   -3.4541 C   0  0  0  0  0  0  0  0  0  0  0  0
    3.6482   -2.3022   -4.3198 N   0  0  0  0  0  0  0  0  0  0  0  0
    3.4857    0.9877   -3.9943 H   0  0  0  0  0  0  0  0  0  0  0  0
    2.2155   -0.0416   -4.6873 H   0  0  0  0  0  0  0  0  0  0  0  0
    3.7742    0.1346   -5.5242 H   0  0  0  0  0  0  0  0  0  0  0  0
    4.7005   -0.1760   -2.0343 H   0  0  0  0  0  0  0  0  0  0  0  0
    4.2637   -4.5459   -1.4476 H   0  0  0  0  0  0  0  0  0  0  0  0
    3.8840   -6.5393   -0.2529 H   0  0  0  0  0  0  0  0  0  0  0  0
    6.3310   -7.4829    2.9148 H   0  0  0  0  0  0  0  0  0  0  0  0
    7.1022   -3.9271    1.0351 H   0  0  0  0  0  0  0  0  0  0  0  0
    4.2128   -4.1890   -3.6469 H   0  0  0  0  0  0  0  0  0  0  0  0
  1  2  1  0
  1 16  1  0
  1 17  1  0
  1 18  1  0
  2 15  1  0
  2  3  1  0
  3  4  2  0
  3 19  1  0
  4  5  1  0
  4 14  1  0
  5  6  2  0
  5  7  1  0
  7  8  1  0
  7 20  1  0
  8 13  1  0
  8  9  2  0
  9 10  1  0
  9 21  1  0
 10 11  2  0
 11 12  1  0
 11 22  1  0
 12 13  2  0
 13 23  1  0
 14 15  2  0
 14 24  1  0
M  END
>  <i_m_ct_stereo_status>  (188) 
1

>  <s_m_source_file>  (188) 
/var/tmp/pbs.5076255.sched01/tmpstc2q6q5/48db17pvb_.sdf

>  <i_m_source_file_index>  (188) 
27

>  <i_lp_mmshare_version>  (188) 
48012

>  <i_f3d_flags>  (188) 
0

>  <s_epik_input>  (188) 
W0NIM11uMVtjSF1jKFtjSF1uMSlDKD1PKVtOSF1jMltjSF1uW2NIXW5bY0hdMg==

>  <s_epik_cmdline>  (188) 
J2VwaWtfcHl0aG9uJywgJy1waHQnLCAnMi4wJywgJy1waCcsICc3LjAnLCAnLXRuJywgJzgnLCAnLW1hJywgJzIwMCcsICctaW1hZScsICc8aW5maWxlLm1hZT4nLCAnLW9tYWUnLCAnPG91dGZpbGUubWFlPic=

>  <r_lp_tautomer_probability>  (188) 
1

>  <r_epik_Ionization_Penalty>  (188) 
9.14925e-06

>  <r_epik_Ionization_Penalty_Charging>  (188) 
0

>  <r_epik_Ionization_Penalty_Neutral>  (188) 
9.14925e-06

>  <r_epik_State_Penalty>  (188) 
-0

>  <r_epik_Charging_Adjusted_Penalty>  (188) 
0

>  <i_epik_Tot_Q>  (188) 
0

>  <i_epik_Tot_abs_Q>  (188) 
0

>  <s_lp_Force_Field>  (188) 
OPLS3e

>  <r_lp_Energy>  (188) 
21.2042

>  <b_lp_Chiralities_Consistent>  (188) 
1

>  <s_lp_Variant>  (188) 
40:0-1

>  <s_i_glide_gridfile>  (188) 
pfpi4k_grid

>  <i_i_glide_lignum>  (188) 
27

>  <i_i_glide_rotatable_bonds>  (188) 
3

>  <r_i_docking_score>  (188) 
-4.47167

>  <r_i_glide_ligand_efficiency>  (188) 
-0.298111

>  <r_i_glide_ligand_efficiency_sa>  (188) 
-0.735206

>  <r_i_glide_ligand_efficiency_ln>  (188) 
-1.20594

>  <r_i_glide_gscore>  (188) 
-4.47167

>  <r_i_glide_lipo>  (188) 
-0.739947

>  <r_i_glide_hbond>  (188) 
-0.3944

>  <r_i_glide_metal>  (188) 
-0

>  <r_i_glide_rewards>  (188) 
-2.3699

>  <r_i_glide_evdw>  (188) 
-25.2682

>  <r_i_glide_ecoul>  (188) 
-5.97995

>  <r_i_glide_erotb>  (188) 
1.19298

>  <r_i_glide_esite>  (188) 
0

>  <r_i_glide_emodel>  (188) 
-40.3567

>  <r_i_glide_energy>  (188) 
-31.2481

>  <r_i_glide_einternal>  (188) 
0.583489

>  <r_i_glide_intrahb_reward>  (188) 
-0

>  <i_i_glide_confnum>  (188) 
2

>  <i_i_glide_posenum>  (188) 
5

>  <r_i_glide_eff_state_penalty>  (188) 
0

>  <ligand_id>  (188) 
40

>  <original_smiles>  (188) 
Cn1cc(C(=O)Nc2cncnc2)cn1

>  <smiles>  (188) 
[H]c1nc([H])c(N([H])C(=O)c2c([H])nn(C([H])([H])[H])c2[H])c([H])n1

$$$$
40:0:2
     RDKit          3D

 24 25  0  0  1  0  0  0  0  0999 V2000
    3.4424    0.2647   -4.6869 C   0  0  0  0  0  0  0  0  0  0  0  0
    3.8157   -0.8333   -3.8195 N   0  0  0  0  0  0  0  0  0  0  0  0
    4.2119   -0.7988   -2.4982 C   0  0  0  0  0  0  0  0  0  0  0  0
    4.4296   -2.1049   -2.1662 C   0  0  0  0  0  0  0  0  0  0  0  0
    4.8916   -2.6313   -0.8536 C   0  0  0  0  0  0  0  0  0  0  0  0
    5.6085   -1.9578   -0.1162 O   0  0  0  0  0  0  0  0  0  0  0  0
    4.4255   -3.8680   -0.6010 N   0  0  0  0  0  0  0  0  0  0  0  0
    4.6838   -4.7234    0.4971 C   0  0  0  0  0  0  0  0  0  0  0  0
    4.0989   -6.0039    0.5022 C   0  0  0  0  0  0  0  0  0  0  0  0
    4.2883   -6.8720    1.5118 N   0  0  0  0  0  0  0  0  0  0  0  0
    5.0666   -6.4636    2.5116 C   0  0  0  0  0  0  0  0  0  0  0  0
    5.6761   -5.2842    2.6169 N   0  0  0  0  0  0  0  0  0  0  0  0
    5.4895   -4.4072    1.6124 C   0  0  0  0  0  0  0  0  0  0  0  0
    4.1796   -2.8781   -3.3261 C   0  0  0  0  0  0  0  0  0  0  0  0
    3.8138   -2.0926   -4.3204 N   0  0  0  0  0  0  0  0  0  0  0  0
    3.4960    1.2068   -4.1443 H   0  0  0  0  0  0  0  0  0  0  0  0
    2.4268    0.1155   -5.0610 H   0  0  0  0  0  0  0  0  0  0  0  0
    4.1346    0.3233   -5.5240 H   0  0  0  0  0  0  0  0  0  0  0  0
    4.2925    0.1184   -1.9301 H   0  0  0  0  0  0  0  0  0  0  0  0
    3.8267   -4.2522   -1.3189 H   0  0  0  0  0  0  0  0  0  0  0  0
    3.4629   -6.3324   -0.3051 H   0  0  0  0  0  0  0  0  0  0  0  0
    5.2149   -7.1541    3.3247 H   0  0  0  0  0  0  0  0  0  0  0  0
    5.9975   -3.4644    1.7302 H   0  0  0  0  0  0  0  0  0  0  0  0
    4.2537   -3.9470   -3.4846 H   0  0  0  0  0  0  0  0  0  0  0  0
  1  2  1  0
  1 16  1  0
  1 17  1  0
  1 18  1  0
  2 15  1  0
  2  3  1  0
  3  4  2  0
  3 19  1  0
  4  5  1  0
  4 14  1  0
  5  6  2  0
  5  7  1  0
  7  8  1  0
  7 20  1  0
  8 13  1  0
  8  9  2  0
  9 10  1  0
  9 21  1  0
 10 11  2  0
 11 12  1  0
 11 22  1  0
 12 13  2  0
 13 23  1  0
 14 15  2  0
 14 24  1  0
M  END
>  <i_m_ct_stereo_status>  (189) 
1

>  <s_m_source_file>  (189) 
/var/tmp/pbs.5076255.sched01/tmpstc2q6q5/48db17pvb_.sdf

>  <i_m_source_file_index>  (189) 
27

>  <i_lp_mmshare_version>  (189) 
48012

>  <i_f3d_flags>  (189) 
0

>  <s_epik_input>  (189) 
W0NIM11uMVtjSF1jKFtjSF1uMSlDKD1PKVtOSF1jMltjSF1uW2NIXW5bY0hdMg==

>  <s_epik_cmdline>  (189) 
J2VwaWtfcHl0aG9uJywgJy1waHQnLCAnMi4wJywgJy1waCcsICc3LjAnLCAnLXRuJywgJzgnLCAnLW1hJywgJzIwMCcsICctaW1hZScsICc8aW5maWxlLm1hZT4nLCAnLW9tYWUnLCAnPG91dGZpbGUubWFlPic=

>  <r_lp_tautomer_probability>  (189) 
1

>  <r_epik_Ionization_Penalty>  (189) 
9.14925e-06

>  <r_epik_Ionization_Penalty_Charging>  (189) 
0

>  <r_epik_Ionization_Penalty_Neutral>  (189) 
9.14925e-06

>  <r_epik_State_Penalty>  (189) 
-0

>  <r_epik_Charging_Adjusted_Penalty>  (189) 
0

>  <i_epik_Tot_Q>  (189) 
0

>  <i_epik_Tot_abs_Q>  (189) 
0

>  <s_lp_Force_Field>  (189) 
OPLS3e

>  <r_lp_Energy>  (189) 
21.2042

>  <b_lp_Chiralities_Consistent>  (189) 
1

>  <s_lp_Variant>  (189) 
40:0-1

>  <s_i_glide_gridfile>  (189) 
pfpi4k_grid

>  <i_i_glide_lignum>  (189) 
27

>  <i_i_glide_rotatable_bonds>  (189) 
3

>  <r_i_docking_score>  (189) 
-3.98982

>  <r_i_glide_ligand_efficiency>  (189) 
-0.265988

>  <r_i_glide_ligand_efficiency_sa>  (189) 
-0.655983

>  <r_i_glide_ligand_efficiency_ln>  (189) 
-1.07599

>  <r_i_glide_gscore>  (189) 
-3.98982

>  <r_i_glide_lipo>  (189) 
-0.471794

>  <r_i_glide_hbond>  (189) 
-0.329164

>  <r_i_glide_metal>  (189) 
-0

>  <r_i_glide_rewards>  (189) 
-2.31227

>  <r_i_glide_evdw>  (189) 
-23.4411

>  <r_i_glide_ecoul>  (189) 
-5.93546

>  <r_i_glide_erotb>  (189) 
1.19298

>  <r_i_glide_esite>  (189) 
-0.00719451

>  <r_i_glide_emodel>  (189) 
-37.4411

>  <r_i_glide_energy>  (189) 
-29.3766

>  <r_i_glide_einternal>  (189) 
0.613441

>  <r_i_glide_intrahb_reward>  (189) 
-0

>  <i_i_glide_confnum>  (189) 
2

>  <i_i_glide_posenum>  (189) 
33

>  <r_i_glide_eff_state_penalty>  (189) 
0

>  <ligand_id>  (189) 
40

>  <original_smiles>  (189) 
Cn1cc(C(=O)Nc2cncnc2)cn1

>  <smiles>  (189) 
[H]c1nc([H])c(N([H])C(=O)c2c([H])nn(C([H])([H])[H])c2[H])c([H])n1

$$$$
41:0:0
     RDKit          3D

 19 21  0  0  1  0  0  0  0  0999 V2000
   -1.8215    3.3097    6.4678 C   0  0  0  0  0  0  0  0  0  0  0  0
   -2.3784    2.2587    7.1974 C   0  0  0  0  0  0  0  0  0  0  0  0
   -2.1705    0.9660    6.8607 N   0  0  0  0  0  0  0  0  0  0  0  0
   -1.3972    0.6433    5.7935 C   0  0  0  0  0  0  0  0  0  0  0  0
   -1.1807   -0.6763    5.4678 N   0  0  0  0  0  0  0  0  0  0  0  0
   -0.4030   -1.0373    4.4178 C   0  0  0  0  0  0  0  0  0  0  0  0
    0.1769   -0.0148    3.6375 C   0  0  0  0  0  0  0  0  0  0  0  0
    0.9819   -0.1183    2.5238 C   0  0  0  0  0  0  0  0  0  0  0  0
    1.2781    1.2175    2.1595 N   0  0  0  0  0  0  0  0  0  0  0  0
    0.6412    2.0324    3.0269 C   0  0  0  0  0  0  0  0  0  0  0  0
   -0.0050    1.2598    3.9006 N   0  0  0  0  0  0  0  0  0  0  0  0
   -0.7835    1.6552    4.9777 C   0  0  0  0  0  0  0  0  0  0  0  0
   -1.0287    2.9911    5.3552 C   0  0  0  0  0  0  0  0  0  0  0  0
   -1.9838    4.3418    6.7607 H   0  0  0  0  0  0  0  0  0  0  0  0
   -2.9925    2.4522    8.0604 H   0  0  0  0  0  0  0  0  0  0  0  0
   -0.2651   -2.0832    4.1957 H   0  0  0  0  0  0  0  0  0  0  0  0
    1.3336   -1.0065    1.9982 H   0  0  0  0  0  0  0  0  0  0  0  0
    0.6526    3.1130    3.0238 H   0  0  0  0  0  0  0  0  0  0  0  0
   -0.5917    3.7965    4.7847 H   0  0  0  0  0  0  0  0  0  0  0  0
  1 13  2  0
  1  2  1  0
  1 14  1  0
  2  3  2  0
  2 15  1  0
  3  4  1  0
  4 12  2  0
  4  5  1  0
  5  6  2  0
  6  7  1  0
  6 16  1  0
  7 11  1  0
  7  8  2  0
  8  9  1  0
  8 17  1  0
  9 10  2  0
 10 11  1  0
 10 18  1  0
 11 12  1  0
 12 13  1  0
 13 19  1  0
M  END
>  <i_m_ct_stereo_status>  (190) 
1

>  <s_m_source_file>  (190) 
/var/tmp/pbs.5076255.sched01/tmpstc2q6q5/48db17pvb_.sdf

>  <i_m_source_file_index>  (190) 
28

>  <i_lp_mmshare_version>  (190) 
48012

>  <i_f3d_flags>  (190) 
0

>  <s_epik_input>  (190) 
bjFbY0hdW2NIXVtjSF1jKGMxMiluM2MoW2NIXW4yKVtjSF1uW2NIXTM=

>  <s_epik_cmdline>  (190) 
J2VwaWtfcHl0aG9uJywgJy1waHQnLCAnMi4wJywgJy1waCcsICc3LjAnLCAnLXRuJywgJzgnLCAnLW1hJywgJzIwMCcsICctaW1hZScsICc8aW5maWxlLm1hZT4nLCAnLW9tYWUnLCAnPG91dGZpbGUubWFlPic=

>  <r_epik_Ionization_Penalty>  (190) 
0.009511

>  <r_epik_Ionization_Penalty_Charging>  (190) 
0

>  <r_epik_Ionization_Penalty_Neutral>  (190) 
0.009511

>  <r_epik_State_Penalty>  (190) 
0.00722628

>  <r_epik_Charging_Adjusted_Penalty>  (190) 
0.00722628

>  <i_epik_Tot_Q>  (190) 
0

>  <i_epik_Tot_abs_Q>  (190) 
0

>  <s_lp_Force_Field>  (190) 
OPLS3e

>  <r_lp_Energy>  (190) 
22.2163

>  <b_lp_Chiralities_Consistent>  (190) 
1

>  <s_lp_Variant>  (190) 
41:0-1

>  <s_i_glide_gridfile>  (190) 
pfpi4k_grid

>  <i_i_glide_lignum>  (190) 
28

>  <i_i_glide_rotatable_bonds>  (190) 
0

>  <r_i_docking_score>  (190) 
-4.11574

>  <r_i_glide_ligand_efficiency>  (190) 
-0.316595

>  <r_i_glide_ligand_efficiency_sa>  (190) 
-0.744422

>  <r_i_glide_ligand_efficiency_ln>  (190) 
-1.1545

>  <r_i_glide_gscore>  (190) 
-4.11574

>  <r_i_glide_lipo>  (190) 
-0.0826173

>  <r_i_glide_hbond>  (190) 
-0.16

>  <r_i_glide_metal>  (190) 
-0

>  <r_i_glide_rewards>  (190) 
-2.24884

>  <r_i_glide_evdw>  (190) 
-14.9204

>  <r_i_glide_ecoul>  (190) 
-5.01404

>  <r_i_glide_erotb>  (190) 
0

>  <r_i_glide_esite>  (190) 
-0.126162

>  <r_i_glide_emodel>  (190) 
-26.604

>  <r_i_glide_energy>  (190) 
-19.9344

>  <r_i_glide_einternal>  (190) 
0

>  <r_i_glide_intrahb_reward>  (190) 
-0

>  <i_i_glide_confnum>  (190) 
2

>  <i_i_glide_posenum>  (190) 
33

>  <r_i_glide_eff_state_penalty>  (190) 
0

>  <ligand_id>  (190) 
41

>  <original_smiles>  (190) 
c1cnc2ncc3cncn3c2c1

>  <smiles>  (190) 
[H]c1nc2nc([H])c3c([H])nc([H])n3c2c([H])c1[H]

$$$$
41:0:1
     RDKit          3D

 19 21  0  0  1  0  0  0  0  0999 V2000
    3.3934   -6.5652    0.9622 C   0  0  0  0  0  0  0  0  0  0  0  0
    2.2170   -5.8393    0.7369 C   0  0  0  0  0  0  0  0  0  0  0  0
    1.0094   -6.2767    1.1462 N   0  0  0  0  0  0  0  0  0  0  0  0
    0.8786   -7.4498    1.8108 C   0  0  0  0  0  0  0  0  0  0  0  0
   -0.3535   -7.8747    2.2467 N   0  0  0  0  0  0  0  0  0  0  0  0
   -0.5130   -9.0600    2.9036 C   0  0  0  0  0  0  0  0  0  0  0  0
    0.6325   -9.8489    3.1419 C   0  0  0  0  0  0  0  0  0  0  0  0
    0.7421  -11.0580    3.7863 C   0  0  0  0  0  0  0  0  0  0  0  0
    2.1246  -11.3770    3.7441 N   0  0  0  0  0  0  0  0  0  0  0  0
    2.7511  -10.3726    3.0926 C   0  0  0  0  0  0  0  0  0  0  0  0
    1.8298   -9.4692    2.7474 N   0  0  0  0  0  0  0  0  0  0  0  0
    2.0290   -8.2736    2.0801 C   0  0  0  0  0  0  0  0  0  0  0  0
    3.2779   -7.7866    1.6378 C   0  0  0  0  0  0  0  0  0  0  0  0
    4.3547   -6.2110    0.6093 H   0  0  0  0  0  0  0  0  0  0  0  0
    2.2520   -4.8909    0.2158 H   0  0  0  0  0  0  0  0  0  0  0  0
   -1.4954   -9.3664    3.2304 H   0  0  0  0  0  0  0  0  0  0  0  0
   -0.0240  -11.6657    4.2473 H   0  0  0  0  0  0  0  0  0  0  0  0
    3.8148  -10.3084    2.8889 H   0  0  0  0  0  0  0  0  0  0  0  0
    4.1657   -8.3697    1.8044 H   0  0  0  0  0  0  0  0  0  0  0  0
  1 13  2  0
  1  2  1  0
  1 14  1  0
  2  3  2  0
  2 15  1  0
  3  4  1  0
  4 12  2  0
  4  5  1  0
  5  6  2  0
  6  7  1  0
  6 16  1  0
  7 11  1  0
  7  8  2  0
  8  9  1  0
  8 17  1  0
  9 10  2  0
 10 11  1  0
 10 18  1  0
 11 12  1  0
 12 13  1  0
 13 19  1  0
M  END
>  <i_m_ct_stereo_status>  (191) 
1

>  <s_m_source_file>  (191) 
/var/tmp/pbs.5076255.sched01/tmpstc2q6q5/48db17pvb_.sdf

>  <i_m_source_file_index>  (191) 
28

>  <i_lp_mmshare_version>  (191) 
48012

>  <i_f3d_flags>  (191) 
0

>  <s_epik_input>  (191) 
bjFbY0hdW2NIXVtjSF1jKGMxMiluM2MoW2NIXW4yKVtjSF1uW2NIXTM=

>  <s_epik_cmdline>  (191) 
J2VwaWtfcHl0aG9uJywgJy1waHQnLCAnMi4wJywgJy1waCcsICc3LjAnLCAnLXRuJywgJzgnLCAnLW1hJywgJzIwMCcsICctaW1hZScsICc8aW5maWxlLm1hZT4nLCAnLW9tYWUnLCAnPG91dGZpbGUubWFlPic=

>  <r_epik_Ionization_Penalty>  (191) 
0.009511

>  <r_epik_Ionization_Penalty_Charging>  (191) 
0

>  <r_epik_Ionization_Penalty_Neutral>  (191) 
0.009511

>  <r_epik_State_Penalty>  (191) 
0.00722628

>  <r_epik_Charging_Adjusted_Penalty>  (191) 
0.00722628

>  <i_epik_Tot_Q>  (191) 
0

>  <i_epik_Tot_abs_Q>  (191) 
0

>  <s_lp_Force_Field>  (191) 
OPLS3e

>  <r_lp_Energy>  (191) 
22.2163

>  <b_lp_Chiralities_Consistent>  (191) 
1

>  <s_lp_Variant>  (191) 
41:0-1

>  <s_i_glide_gridfile>  (191) 
pfpi4k_grid

>  <i_i_glide_lignum>  (191) 
28

>  <i_i_glide_rotatable_bonds>  (191) 
0

>  <r_i_docking_score>  (191) 
-4.0248

>  <r_i_glide_ligand_efficiency>  (191) 
-0.3096

>  <r_i_glide_ligand_efficiency_sa>  (191) 
-0.727973

>  <r_i_glide_ligand_efficiency_ln>  (191) 
-1.12899

>  <r_i_glide_gscore>  (191) 
-4.0248

>  <r_i_glide_lipo>  (191) 
-0.100427

>  <r_i_glide_hbond>  (191) 
-0.16

>  <r_i_glide_metal>  (191) 
-0

>  <r_i_glide_rewards>  (191) 
-2.30607

>  <r_i_glide_evdw>  (191) 
-19.1828

>  <r_i_glide_ecoul>  (191) 
-2.89386

>  <r_i_glide_erotb>  (191) 
0

>  <r_i_glide_esite>  (191) 
-0.0650792

>  <r_i_glide_emodel>  (191) 
-28.5965

>  <r_i_glide_energy>  (191) 
-22.0767

>  <r_i_glide_einternal>  (191) 
0

>  <r_i_glide_intrahb_reward>  (191) 
-0

>  <i_i_glide_confnum>  (191) 
2

>  <i_i_glide_posenum>  (191) 
13

>  <r_i_glide_eff_state_penalty>  (191) 
0

>  <ligand_id>  (191) 
41

>  <original_smiles>  (191) 
c1cnc2ncc3cncn3c2c1

>  <smiles>  (191) 
[H]c1nc2nc([H])c3c([H])nc([H])n3c2c([H])c1[H]

$$$$
41:0:2
     RDKit          3D

 19 21  0  0  1  0  0  0  0  0999 V2000
   -0.4663   -9.0822    2.6174 C   0  0  0  0  0  0  0  0  0  0  0  0
   -0.4937   -7.8045    2.0563 C   0  0  0  0  0  0  0  0  0  0  0  0
   -0.2805   -6.6928    2.7872 N   0  0  0  0  0  0  0  0  0  0  0  0
    0.0012   -6.7802    4.1187 C   0  0  0  0  0  0  0  0  0  0  0  0
    0.2231   -5.6464    4.8674 N   0  0  0  0  0  0  0  0  0  0  0  0
    0.5017   -5.7032    6.1969 C   0  0  0  0  0  0  0  0  0  0  0  0
    0.5518   -6.9650    6.8076 C   0  0  0  0  0  0  0  0  0  0  0  0
    0.7885   -7.2738    8.1215 C   0  0  0  0  0  0  0  0  0  0  0  0
    0.6760   -8.6916    8.1893 N   0  0  0  0  0  0  0  0  0  0  0  0
    0.4195   -9.1425    6.9385 C   0  0  0  0  0  0  0  0  0  0  0  0
    0.3420   -8.0829    6.1412 N   0  0  0  0  0  0  0  0  0  0  0  0
    0.0604   -8.0502    4.7869 C   0  0  0  0  0  0  0  0  0  0  0  0
   -0.1820   -9.1858    3.9848 C   0  0  0  0  0  0  0  0  0  0  0  0
   -0.6421   -9.9709    2.0203 H   0  0  0  0  0  0  0  0  0  0  0  0
   -0.6902   -7.6694    1.0035 H   0  0  0  0  0  0  0  0  0  0  0  0
    0.6792   -4.7825    6.7370 H   0  0  0  0  0  0  0  0  0  0  0  0
    1.0094   -6.6180    8.9624 H   0  0  0  0  0  0  0  0  0  0  0  0
    0.2864  -10.1774    6.6364 H   0  0  0  0  0  0  0  0  0  0  0  0
   -0.1643  -10.1673    4.4247 H   0  0  0  0  0  0  0  0  0  0  0  0
  1 13  2  0
  1  2  1  0
  1 14  1  0
  2  3  2  0
  2 15  1  0
  3  4  1  0
  4 12  2  0
  4  5  1  0
  5  6  2  0
  6  7  1  0
  6 16  1  0
  7 11  1  0
  7  8  2  0
  8  9  1  0
  8 17  1  0
  9 10  2  0
 10 11  1  0
 10 18  1  0
 11 12  1  0
 12 13  1  0
 13 19  1  0
M  END
>  <i_m_ct_stereo_status>  (192) 
1

>  <s_m_source_file>  (192) 
/var/tmp/pbs.5076255.sched01/tmpstc2q6q5/48db17pvb_.sdf

>  <i_m_source_file_index>  (192) 
28

>  <i_lp_mmshare_version>  (192) 
48012

>  <i_f3d_flags>  (192) 
0

>  <s_epik_input>  (192) 
bjFbY0hdW2NIXVtjSF1jKGMxMiluM2MoW2NIXW4yKVtjSF1uW2NIXTM=

>  <s_epik_cmdline>  (192) 
J2VwaWtfcHl0aG9uJywgJy1waHQnLCAnMi4wJywgJy1waCcsICc3LjAnLCAnLXRuJywgJzgnLCAnLW1hJywgJzIwMCcsICctaW1hZScsICc8aW5maWxlLm1hZT4nLCAnLW9tYWUnLCAnPG91dGZpbGUubWFlPic=

>  <r_epik_Ionization_Penalty>  (192) 
0.009511

>  <r_epik_Ionization_Penalty_Charging>  (192) 
0

>  <r_epik_Ionization_Penalty_Neutral>  (192) 
0.009511

>  <r_epik_State_Penalty>  (192) 
0.00722628

>  <r_epik_Charging_Adjusted_Penalty>  (192) 
0.00722628

>  <i_epik_Tot_Q>  (192) 
0

>  <i_epik_Tot_abs_Q>  (192) 
0

>  <s_lp_Force_Field>  (192) 
OPLS3e

>  <r_lp_Energy>  (192) 
22.2163

>  <b_lp_Chiralities_Consistent>  (192) 
1

>  <s_lp_Variant>  (192) 
41:0-1

>  <s_i_glide_gridfile>  (192) 
pfpi4k_grid

>  <i_i_glide_lignum>  (192) 
28

>  <i_i_glide_rotatable_bonds>  (192) 
0

>  <r_i_docking_score>  (192) 
-3.85626

>  <r_i_glide_ligand_efficiency>  (192) 
-0.296635

>  <r_i_glide_ligand_efficiency_sa>  (192) 
-0.697489

>  <r_i_glide_ligand_efficiency_ln>  (192) 
-1.08171

>  <r_i_glide_gscore>  (192) 
-3.85626

>  <r_i_glide_lipo>  (192) 
0

>  <r_i_glide_hbond>  (192) 
-0.16

>  <r_i_glide_metal>  (192) 
-0

>  <r_i_glide_rewards>  (192) 
-2.24884

>  <r_i_glide_evdw>  (192) 
-14.5832

>  <r_i_glide_ecoul>  (192) 
-3.9146

>  <r_i_glide_erotb>  (192) 
0

>  <r_i_glide_esite>  (192) 
-0.13107

>  <r_i_glide_emodel>  (192) 
-24.7441

>  <r_i_glide_energy>  (192) 
-18.4978

>  <r_i_glide_einternal>  (192) 
0

>  <r_i_glide_intrahb_reward>  (192) 
-0

>  <i_i_glide_confnum>  (192) 
2

>  <i_i_glide_posenum>  (192) 
2

>  <r_i_glide_eff_state_penalty>  (192) 
0

>  <ligand_id>  (192) 
41

>  <original_smiles>  (192) 
c1cnc2ncc3cncn3c2c1

>  <smiles>  (192) 
[H]c1nc2nc([H])c3c([H])nc([H])n3c2c([H])c1[H]

$$$$
41:1:0
     RDKit          3D

 20 22  0  0  1  0  0  0  0  0999 V2000
    0.9297   -3.0516    4.3621 C   0  0  0  0  0  0  0  0  0  0  0  0
    0.1475   -3.2461    5.5032 C   0  0  0  0  0  0  0  0  0  0  0  0
   -0.6871   -2.3017    5.9616 N   0  0  0  0  0  0  0  0  0  0  0  0
   -0.7727   -1.1165    5.3225 C   0  0  0  0  0  0  0  0  0  0  0  0
   -1.6192   -0.1804    5.8151 N   0  0  0  0  0  0  0  0  0  0  0  0
   -1.7331    1.0213    5.2119 C   0  0  0  0  0  0  0  0  0  0  0  0
   -1.0175    1.3836    4.0500 C   0  0  0  0  0  0  0  0  0  0  0  0
   -0.9091    2.4713    3.2148 C   0  0  0  0  0  0  0  0  0  0  0  0
    0.0036    2.1333    2.2487 N   0  0  0  0  0  0  0  0  0  0  0  0
    0.4553    0.8852    2.4429 C   0  0  0  0  0  0  0  0  0  0  0  0
   -0.1569    0.4279    3.5412 N   0  0  0  0  0  0  0  0  0  0  0  0
   -0.0094   -0.8316    4.1608 C   0  0  0  0  0  0  0  0  0  0  0  0
    0.8588   -1.8240    3.6763 C   0  0  0  0  0  0  0  0  0  0  0  0
    1.5789   -3.8380    4.0068 H   0  0  0  0  0  0  0  0  0  0  0  0
    0.1795   -4.1797    6.0458 H   0  0  0  0  0  0  0  0  0  0  0  0
   -2.4154    1.7291    5.6601 H   0  0  0  0  0  0  0  0  0  0  0  0
   -1.3925    3.4367    3.2168 H   0  0  0  0  0  0  0  0  0  0  0  0
    1.1644    0.3648    1.8232 H   0  0  0  0  0  0  0  0  0  0  0  0
    1.4554   -1.6776    2.7889 H   0  0  0  0  0  0  0  0  0  0  0  0
    0.2559    2.7682    1.4844 H   0  0  0  0  0  0  0  0  0  0  0  0
  1 13  2  0
  1  2  1  0
  1 14  1  0
  2  3  2  0
  2 15  1  0
  3  4  1  0
  4 12  2  0
  4  5  1  0
  5  6  2  0
  6  7  1  0
  6 16  1  0
  7 11  1  0
  7  8  2  0
  8  9  1  0
  8 17  1  0
  9 10  2  0
  9 20  1  0
 10 11  1  0
 10 18  1  0
 11 12  1  0
 12 13  1  0
 13 19  1  0
M  CHG  1   9   1
M  END
>  <i_m_ct_stereo_status>  (193) 
1

>  <s_m_source_file>  (193) 
/var/tmp/pbs.5076255.sched01/tmpstc2q6q5/48db17pvb_.sdf

>  <i_m_source_file_index>  (193) 
29

>  <i_lp_mmshare_version>  (193) 
48012

>  <i_f3d_flags>  (193) 
0

>  <s_epik_input>  (193) 
bjFbY0hdW2NIXVtjSF1jKGMxMiluM2MoW2NIXW4yKVtjSF1uW2NIXTM=

>  <s_epik_cmdline>  (193) 
J2VwaWtfcHl0aG9uJywgJy1waHQnLCAnMi4wJywgJy1waCcsICc3LjAnLCAnLXRuJywgJzgnLCAnLW1hJywgJzIwMCcsICctaW1hZScsICc8aW5maWxlLm1hZT4nLCAnLW9tYWUnLCAnPG91dGZpbGUubWFlPic=

>  <r_epik_Ionization_Penalty>  (193) 
2.45284

>  <r_epik_Ionization_Penalty_Charging>  (193) 
2.45284

>  <r_epik_Ionization_Penalty_Neutral>  (193) 
3.24399e-08

>  <r_epik_State_Penalty>  (193) 
2.61446

>  <r_epik_Charging_Adjusted_Penalty>  (193) 
5.0673

>  <i_epik_Tot_Q>  (193) 
1

>  <i_epik_Tot_abs_Q>  (193) 
1

>  <s_lp_Force_Field>  (193) 
OPLS3e

>  <r_lp_Energy>  (193) 
28.7234

>  <b_lp_Chiralities_Consistent>  (193) 
1

>  <s_lp_Variant>  (193) 
41:0-2

>  <s_i_glide_gridfile>  (193) 
pfpi4k_grid

>  <i_i_glide_lignum>  (193) 
29

>  <i_i_glide_rotatable_bonds>  (193) 
0

>  <r_i_docking_score>  (193) 
-4.4415

>  <r_i_glide_ligand_efficiency>  (193) 
-0.341654

>  <r_i_glide_ligand_efficiency_sa>  (193) 
-0.803343

>  <r_i_glide_ligand_efficiency_ln>  (193) 
-1.24588

>  <r_i_glide_gscore>  (193) 
-4.4415

>  <r_i_glide_lipo>  (193) 
-0.0321096

>  <r_i_glide_hbond>  (193) 
-0.25742

>  <r_i_glide_metal>  (193) 
-0

>  <r_i_glide_rewards>  (193) 
-2.24196

>  <r_i_glide_evdw>  (193) 
-13.2775

>  <r_i_glide_ecoul>  (193) 
-6.95402

>  <r_i_glide_erotb>  (193) 
0

>  <r_i_glide_esite>  (193) 
-0.203029

>  <r_i_glide_emodel>  (193) 
-28.3351

>  <r_i_glide_energy>  (193) 
-20.2315

>  <r_i_glide_einternal>  (193) 
0

>  <r_i_glide_intrahb_reward>  (193) 
-0

>  <i_i_glide_confnum>  (193) 
1

>  <i_i_glide_posenum>  (193) 
19

>  <r_i_glide_eff_state_penalty>  (193) 
0

>  <ligand_id>  (193) 
41

>  <original_smiles>  (193) 
c1cnc2ncc3cncn3c2c1

>  <smiles>  (193) 
[H]c1nc2nc([H])c3c([H])[n+]([H])c([H])n3c2c([H])c1[H]

$$$$
41:1:1
     RDKit          3D

 20 22  0  0  1  0  0  0  0  0999 V2000
   -2.5029    3.0713    5.9035 C   0  0  0  0  0  0  0  0  0  0  0  0
   -2.5842    2.1519    6.9516 C   0  0  0  0  0  0  0  0  0  0  0  0
   -2.0061    0.9454    6.8804 N   0  0  0  0  0  0  0  0  0  0  0  0
   -1.2822    0.6141    5.7886 C   0  0  0  0  0  0  0  0  0  0  0  0
   -0.6815   -0.5982    5.7626 N   0  0  0  0  0  0  0  0  0  0  0  0
    0.0590   -0.9705    4.6974 C   0  0  0  0  0  0  0  0  0  0  0  0
    0.2482   -0.1583    3.5570 C   0  0  0  0  0  0  0  0  0  0  0  0
    0.8972   -0.2294    2.3425 C   0  0  0  0  0  0  0  0  0  0  0  0
    0.6210    0.9494    1.6913 N   0  0  0  0  0  0  0  0  0  0  0  0
   -0.1372    1.7457    2.4507 C   0  0  0  0  0  0  0  0  0  0  0  0
   -0.3741    1.0758    3.5815 N   0  0  0  0  0  0  0  0  0  0  0  0
   -1.1423    1.4928    4.6846 C   0  0  0  0  0  0  0  0  0  0  0  0
   -1.7776    2.7423    4.7423 C   0  0  0  0  0  0  0  0  0  0  0  0
   -3.0041    4.0197    5.9815 H   0  0  0  0  0  0  0  0  0  0  0  0
   -3.1407    2.3804    7.8487 H   0  0  0  0  0  0  0  0  0  0  0  0
    0.5164   -1.9479    4.7389 H   0  0  0  0  0  0  0  0  0  0  0  0
    1.4837   -1.0192    1.8912 H   0  0  0  0  0  0  0  0  0  0  0  0
   -0.4922    2.7213    2.1722 H   0  0  0  0  0  0  0  0  0  0  0  0
   -1.7173    3.4494    3.9286 H   0  0  0  0  0  0  0  0  0  0  0  0
    0.9116    1.1705    0.7442 H   0  0  0  0  0  0  0  0  0  0  0  0
  1 13  2  0
  1  2  1  0
  1 14  1  0
  2  3  2  0
  2 15  1  0
  3  4  1  0
  4 12  2  0
  4  5  1  0
  5  6  2  0
  6  7  1  0
  6 16  1  0
  7 11  1  0
  7  8  2  0
  8  9  1  0
  8 17  1  0
  9 10  2  0
  9 20  1  0
 10 11  1  0
 10 18  1  0
 11 12  1  0
 12 13  1  0
 13 19  1  0
M  CHG  1   9   1
M  END
>  <i_m_ct_stereo_status>  (194) 
1

>  <s_m_source_file>  (194) 
/var/tmp/pbs.5076255.sched01/tmpstc2q6q5/48db17pvb_.sdf

>  <i_m_source_file_index>  (194) 
29

>  <i_lp_mmshare_version>  (194) 
48012

>  <i_f3d_flags>  (194) 
0

>  <s_epik_input>  (194) 
bjFbY0hdW2NIXVtjSF1jKGMxMiluM2MoW2NIXW4yKVtjSF1uW2NIXTM=

>  <s_epik_cmdline>  (194) 
J2VwaWtfcHl0aG9uJywgJy1waHQnLCAnMi4wJywgJy1waCcsICc3LjAnLCAnLXRuJywgJzgnLCAnLW1hJywgJzIwMCcsICctaW1hZScsICc8aW5maWxlLm1hZT4nLCAnLW9tYWUnLCAnPG91dGZpbGUubWFlPic=

>  <r_epik_Ionization_Penalty>  (194) 
2.45284

>  <r_epik_Ionization_Penalty_Charging>  (194) 
2.45284

>  <r_epik_Ionization_Penalty_Neutral>  (194) 
3.24399e-08

>  <r_epik_State_Penalty>  (194) 
2.61446

>  <r_epik_Charging_Adjusted_Penalty>  (194) 
5.0673

>  <i_epik_Tot_Q>  (194) 
1

>  <i_epik_Tot_abs_Q>  (194) 
1

>  <s_lp_Force_Field>  (194) 
OPLS3e

>  <r_lp_Energy>  (194) 
28.7234

>  <b_lp_Chiralities_Consistent>  (194) 
1

>  <s_lp_Variant>  (194) 
41:0-2

>  <s_i_glide_gridfile>  (194) 
pfpi4k_grid

>  <i_i_glide_lignum>  (194) 
29

>  <i_i_glide_rotatable_bonds>  (194) 
0

>  <r_i_docking_score>  (194) 
-4.32489

>  <r_i_glide_ligand_efficiency>  (194) 
-0.332684

>  <r_i_glide_ligand_efficiency_sa>  (194) 
-0.782252

>  <r_i_glide_ligand_efficiency_ln>  (194) 
-1.21317

>  <r_i_glide_gscore>  (194) 
-4.32489

>  <r_i_glide_lipo>  (194) 
-0.0855212

>  <r_i_glide_hbond>  (194) 
-0.16

>  <r_i_glide_metal>  (194) 
-0

>  <r_i_glide_rewards>  (194) 
-2.24196

>  <r_i_glide_evdw>  (194) 
-14.0175

>  <r_i_glide_ecoul>  (194) 
-6.07398

>  <r_i_glide_erotb>  (194) 
0

>  <r_i_glide_esite>  (194) 
-0.225436

>  <r_i_glide_emodel>  (194) 
-27.9942

>  <r_i_glide_energy>  (194) 
-20.0915

>  <r_i_glide_einternal>  (194) 
0

>  <r_i_glide_intrahb_reward>  (194) 
-0

>  <i_i_glide_confnum>  (194) 
1

>  <i_i_glide_posenum>  (194) 
8

>  <r_i_glide_eff_state_penalty>  (194) 
0

>  <ligand_id>  (194) 
41

>  <original_smiles>  (194) 
c1cnc2ncc3cncn3c2c1

>  <smiles>  (194) 
[H]c1nc2nc([H])c3c([H])[n+]([H])c([H])n3c2c([H])c1[H]

$$$$
41:1:2
     RDKit          3D

 20 22  0  0  1  0  0  0  0  0999 V2000
   -2.3901    3.2980    4.0960 C   0  0  0  0  0  0  0  0  0  0  0  0
   -2.5560    2.9470    5.4391 C   0  0  0  0  0  0  0  0  0  0  0  0
   -1.8721    1.9445    6.0036 N   0  0  0  0  0  0  0  0  0  0  0  0
   -0.9886    1.2411    5.2620 C   0  0  0  0  0  0  0  0  0  0  0  0
   -0.3133    0.2274    5.8579 N   0  0  0  0  0  0  0  0  0  0  0  0
    0.5899   -0.4908    5.1593 C   0  0  0  0  0  0  0  0  0  0  0  0
    0.8894   -0.2601    3.7959 C   0  0  0  0  0  0  0  0  0  0  0  0
    1.7125   -0.7817    2.8185 C   0  0  0  0  0  0  0  0  0  0  0  0
    1.4692   -0.0497    1.6766 N   0  0  0  0  0  0  0  0  0  0  0  0
    0.5538    0.8974    1.9124 C   0  0  0  0  0  0  0  0  0  0  0  0
    0.1922    0.7708    3.1901 N   0  0  0  0  0  0  0  0  0  0  0  0
   -0.7547    1.5355    3.8956 C   0  0  0  0  0  0  0  0  0  0  0  0
   -1.4712    2.5838    3.3018 C   0  0  0  0  0  0  0  0  0  0  0  0
   -2.9597    4.0990    3.6571 H   0  0  0  0  0  0  0  0  0  0  0  0
   -3.2571    3.4750    6.0688 H   0  0  0  0  0  0  0  0  0  0  0  0
    1.1047   -1.2727    5.6976 H   0  0  0  0  0  0  0  0  0  0  0  0
    2.4111   -1.6071    2.8573 H   0  0  0  0  0  0  0  0  0  0  0  0
    0.1664    1.5894    1.1830 H   0  0  0  0  0  0  0  0  0  0  0  0
   -1.3401    2.8577    2.2659 H   0  0  0  0  0  0  0  0  0  0  0  0
    1.8426   -0.2486    0.7495 H   0  0  0  0  0  0  0  0  0  0  0  0
  1 13  2  0
  1  2  1  0
  1 14  1  0
  2  3  2  0
  2 15  1  0
  3  4  1  0
  4 12  2  0
  4  5  1  0
  5  6  2  0
  6  7  1  0
  6 16  1  0
  7 11  1  0
  7  8  2  0
  8  9  1  0
  8 17  1  0
  9 10  2  0
  9 20  1  0
 10 11  1  0
 10 18  1  0
 11 12  1  0
 12 13  1  0
 13 19  1  0
M  CHG  1   9   1
M  END
>  <i_m_ct_stereo_status>  (195) 
1

>  <s_m_source_file>  (195) 
/var/tmp/pbs.5076255.sched01/tmpstc2q6q5/48db17pvb_.sdf

>  <i_m_source_file_index>  (195) 
29

>  <i_lp_mmshare_version>  (195) 
48012

>  <i_f3d_flags>  (195) 
0

>  <s_epik_input>  (195) 
bjFbY0hdW2NIXVtjSF1jKGMxMiluM2MoW2NIXW4yKVtjSF1uW2NIXTM=

>  <s_epik_cmdline>  (195) 
J2VwaWtfcHl0aG9uJywgJy1waHQnLCAnMi4wJywgJy1waCcsICc3LjAnLCAnLXRuJywgJzgnLCAnLW1hJywgJzIwMCcsICctaW1hZScsICc8aW5maWxlLm1hZT4nLCAnLW9tYWUnLCAnPG91dGZpbGUubWFlPic=

>  <r_epik_Ionization_Penalty>  (195) 
2.45284

>  <r_epik_Ionization_Penalty_Charging>  (195) 
2.45284

>  <r_epik_Ionization_Penalty_Neutral>  (195) 
3.24399e-08

>  <r_epik_State_Penalty>  (195) 
2.61446

>  <r_epik_Charging_Adjusted_Penalty>  (195) 
5.0673

>  <i_epik_Tot_Q>  (195) 
1

>  <i_epik_Tot_abs_Q>  (195) 
1

>  <s_lp_Force_Field>  (195) 
OPLS3e

>  <r_lp_Energy>  (195) 
28.7234

>  <b_lp_Chiralities_Consistent>  (195) 
1

>  <s_lp_Variant>  (195) 
41:0-2

>  <s_i_glide_gridfile>  (195) 
pfpi4k_grid

>  <i_i_glide_lignum>  (195) 
29

>  <i_i_glide_rotatable_bonds>  (195) 
0

>  <r_i_docking_score>  (195) 
-3.87291

>  <r_i_glide_ligand_efficiency>  (195) 
-0.297916

>  <r_i_glide_ligand_efficiency_sa>  (195) 
-0.7005

>  <r_i_glide_ligand_efficiency_ln>  (195) 
-1.08638

>  <r_i_glide_gscore>  (195) 
-3.87291

>  <r_i_glide_lipo>  (195) 
0

>  <r_i_glide_hbond>  (195) 
-0.0918502

>  <r_i_glide_metal>  (195) 
-0

>  <r_i_glide_rewards>  (195) 
-2.24196

>  <r_i_glide_evdw>  (195) 
-14.1322

>  <r_i_glide_ecoul>  (195) 
-4.08569

>  <r_i_glide_erotb>  (195) 
0

>  <r_i_glide_esite>  (195) 
-0.219628

>  <r_i_glide_emodel>  (195) 
-25.287

>  <r_i_glide_energy>  (195) 
-18.2179

>  <r_i_glide_einternal>  (195) 
0

>  <r_i_glide_intrahb_reward>  (195) 
-0

>  <i_i_glide_confnum>  (195) 
2

>  <i_i_glide_posenum>  (195) 
32

>  <r_i_glide_eff_state_penalty>  (195) 
0

>  <ligand_id>  (195) 
41

>  <original_smiles>  (195) 
c1cnc2ncc3cncn3c2c1

>  <smiles>  (195) 
[H]c1nc2nc([H])c3c([H])[n+]([H])c([H])n3c2c([H])c1[H]

$$$$
42:0:0
     RDKit          3D

 49 52  0  0  1  0  0  0  0  0999 V2000
    4.3909   -6.1916    5.4782 C   0  0  0  0  0  0  0  0  0  0  0  0
    4.2130   -6.9096    4.1290 C   0  0  0  0  0  0  0  0  0  0  0  0
    4.3185   -8.4355    4.2615 C   0  0  0  0  0  0  0  0  0  0  0  0
    2.9389   -6.6338    3.6115 O   0  0  0  0  0  0  0  0  0  0  0  0
    3.1742   -5.6849    2.6071 C   0  0  2  0  0  0  0  0  0  0  0  0
    2.1728   -5.6771    1.4543 C   0  0  0  0  0  0  0  0  0  0  0  0
    2.8377   -5.2027    0.1369 C   0  0  1  0  0  0  0  0  0  0  0  0
    1.8256   -4.6648   -0.7077 O   0  0  0  0  0  0  0  0  0  0  0  0
    4.0708   -4.2564    0.2861 C   0  0  1  0  0  0  0  0  0  0  0  0
    3.6483   -2.8721    0.8237 C   0  0  0  0  0  0  0  0  0  0  0  0
    4.9115   -2.0444    0.5833 C   0  0  1  0  0  0  0  0  0  0  0  0
    5.9523   -2.4447    1.6500 C   0  0  0  0  0  0  0  0  0  0  0  0
    5.7596   -3.8675    2.2099 C   0  0  0  0  0  0  0  0  0  0  0  0
    5.1645   -4.9156    1.2487 C   0  0  2  0  0  0  0  0  0  0  0  0
    6.3443   -5.5600    0.5025 C   0  0  0  0  0  0  0  0  0  0  0  0
    4.5435   -6.0705    2.0878 C   0  0  1  0  0  0  0  0  0  0  0  0
    5.2188   -6.4352    3.2700 O   0  0  0  0  0  0  0  0  0  0  0  0
    5.2844   -2.4113   -0.8749 C   0  0  1  0  0  0  0  0  0  0  0  0
    4.7306   -1.3753   -1.8671 C   0  0  0  0  0  0  0  0  0  0  0  0
    6.6810   -2.4183   -1.1084 O   0  0  0  0  0  0  0  0  0  0  0  0
    4.6680   -3.8117   -1.0891 C   0  0  0  0  0  0  0  0  0  0  0  0
    4.3326   -5.1110    5.3470 H   0  0  0  0  0  0  0  0  0  0  0  0
    5.3741   -6.4348    5.8868 H   0  0  0  0  0  0  0  0  0  0  0  0
    3.6259   -6.5129    6.1882 H   0  0  0  0  0  0  0  0  0  0  0  0
    4.1594   -8.9101    3.2935 H   0  0  0  0  0  0  0  0  0  0  0  0
    3.5452   -8.7902    4.9475 H   0  0  0  0  0  0  0  0  0  0  0  0
    5.2960   -8.7203    4.6530 H   0  0  0  0  0  0  0  0  0  0  0  0
    3.2097   -4.7038    3.0788 H   0  0  0  0  0  0  0  0  0  0  0  0
    1.7860   -6.6865    1.2940 H   0  0  0  0  0  0  0  0  0  0  0  0
    1.3303   -5.0575    1.7450 H   0  0  0  0  0  0  0  0  0  0  0  0
    3.2206   -6.1180   -0.3110 H   0  0  0  0  0  0  0  0  0  0  0  0
    2.1183   -4.7960   -1.6077 H   0  0  0  0  0  0  0  0  0  0  0  0
    2.8177   -2.4637    0.2487 H   0  0  0  0  0  0  0  0  0  0  0  0
    3.3388   -2.8736    1.8668 H   0  0  0  0  0  0  0  0  0  0  0  0
    4.7072   -0.9761    0.6739 H   0  0  0  0  0  0  0  0  0  0  0  0
    6.9789   -2.2809    1.3193 H   0  0  0  0  0  0  0  0  0  0  0  0
    5.8380   -1.7679    2.4926 H   0  0  0  0  0  0  0  0  0  0  0  0
    6.7329   -4.2539    2.4808 H   0  0  0  0  0  0  0  0  0  0  0  0
    5.1799   -3.8064    3.1357 H   0  0  0  0  0  0  0  0  0  0  0  0
    6.9744   -6.1485    1.1667 H   0  0  0  0  0  0  0  0  0  0  0  0
    7.0037   -4.8299    0.0412 H   0  0  0  0  0  0  0  0  0  0  0  0
    5.9620   -6.2278   -0.2602 H   0  0  0  0  0  0  0  0  0  0  0  0
    4.4401   -6.9803    1.4888 H   0  0  0  0  0  0  0  0  0  0  0  0
    3.6499   -1.2597   -1.7704 H   0  0  0  0  0  0  0  0  0  0  0  0
    4.9517   -1.6586   -2.8964 H   0  0  0  0  0  0  0  0  0  0  0  0
    5.1785   -0.3973   -1.6884 H   0  0  0  0  0  0  0  0  0  0  0  0
    7.0538   -3.1171   -0.5890 H   0  0  0  0  0  0  0  0  0  0  0  0
    5.3410   -4.5189   -1.5726 H   0  0  0  0  0  0  0  0  0  0  0  0
    3.8621   -3.7097   -1.8112 H   0  0  0  0  0  0  0  0  0  0  0  0
  1  2  1  0
  1 22  1  0
  1 23  1  0
  1 24  1  0
  2 17  1  0
  2  3  1  0
  2  4  1  0
  3 25  1  0
  3 26  1  0
  3 27  1  0
  4  5  1  0
  5 16  1  0
  5  6  1  0
  5 28  1  1
  6  7  1  0
  6 29  1  0
  6 30  1  0
  7  8  1  0
  7  9  1  0
  7 31  1  6
  8 32  1  0
  9 14  1  0
  9 21  1  6
  9 10  1  0
 10 11  1  0
 10 33  1  0
 10 34  1  0
 11 12  1  0
 11 18  1  0
 11 35  1  6
 12 13  1  0
 12 36  1  0
 12 37  1  0
 13 14  1  0
 13 38  1  0
 13 39  1  0
 14 15  1  6
 14 16  1  0
 15 40  1  0
 15 41  1  0
 15 42  1  0
 16 17  1  0
 16 43  1  6
 18 19  1  0
 18 20  1  1
 18 21  1  0
 19 44  1  0
 19 45  1  0
 19 46  1  0
 20 47  1  0
 21 48  1  0
 21 49  1  0
M  END
>  <i_m_ct_stereo_status>  (196) 
1

>  <s_m_source_file>  (196) 
/var/tmp/pbs.5076255.sched01/tmpstc2q6q5/48db17pvb_.sdf

>  <i_m_source_file_index>  (196) 
30

>  <i_lp_mmshare_version>  (196) 
48012

>  <i_f3d_flags>  (196) 
0

>  <s_epik_input>  (196) 
W0NIM11DKE8xKShbQ0gzXSlPW0NASF0oW0NIMl1bQ0BIXTJbT0hdKVtDQEhdMVtDQF0oW0NAQF0yMzQpKFtDSDNdKVtDSDJdW0NIMl1bQ0BIXShbQ0gyXTMpW0NAQF0oW0NIM10pKFtPSF0pW0NIMl00

>  <s_epik_cmdline>  (196) 
J2VwaWtfcHl0aG9uJywgJy1waHQnLCAnMi4wJywgJy1waCcsICc3LjAnLCAnLXRuJywgJzgnLCAnLW1hJywgJzIwMCcsICctaW1hZScsICc8aW5maWxlLm1hZT4nLCAnLW9tYWUnLCAnPG91dGZpbGUubWFlPic=

>  <r_lp_tautomer_probability>  (196) 
1

>  <r_epik_Ionization_Penalty>  (196) 
8.92747e-07

>  <r_epik_Ionization_Penalty_Charging>  (196) 
0

>  <r_epik_Ionization_Penalty_Neutral>  (196) 
8.92747e-07

>  <r_epik_State_Penalty>  (196) 
-0

>  <r_epik_Charging_Adjusted_Penalty>  (196) 
0

>  <i_epik_Tot_Q>  (196) 
0

>  <i_epik_Tot_abs_Q>  (196) 
0

>  <s_lp_Force_Field>  (196) 
OPLS3e

>  <r_lp_Energy>  (196) 
43.3839

>  <b_lp_Chiralities_Consistent>  (196) 
1

>  <s_lp_Variant>  (196) 
42:0-1

>  <s_i_glide_gridfile>  (196) 
pfpi4k_grid

>  <i_i_glide_lignum>  (196) 
30

>  <i_i_glide_rotatable_bonds>  (196) 
2

>  <r_i_docking_score>  (196) 
-3.84671

>  <r_i_glide_ligand_efficiency>  (196) 
-0.183177

>  <r_i_glide_ligand_efficiency_sa>  (196) 
-0.505371

>  <r_i_glide_ligand_efficiency_ln>  (196) 
-0.951092

>  <r_i_glide_gscore>  (196) 
-3.84671

>  <r_i_glide_lipo>  (196) 
-0.31623

>  <r_i_glide_hbond>  (196) 
-0.350225

>  <r_i_glide_metal>  (196) 
-0

>  <r_i_glide_rewards>  (196) 
-1.38817

>  <r_i_glide_evdw>  (196) 
-16.0894

>  <r_i_glide_ecoul>  (196) 
-6.5841

>  <r_i_glide_erotb>  (196) 
0

>  <r_i_glide_esite>  (196) 
0

>  <r_i_glide_emodel>  (196) 
-27.0905

>  <r_i_glide_energy>  (196) 
-22.6735

>  <r_i_glide_einternal>  (196) 
0.648394

>  <r_i_glide_intrahb_reward>  (196) 
-0

>  <i_i_glide_confnum>  (196) 
1

>  <i_i_glide_posenum>  (196) 
33

>  <r_i_glide_eff_state_penalty>  (196) 
0

>  <ligand_id>  (196) 
42

>  <original_smiles>  (196) 
CC1(C)OC2CC(O)C34CC(CCC3(C)C2O1)C(C)(O)C4

>  <smiles>  (196) 
[H]OC1([H])C([H])([H])C2([H])OC(C([H])([H])[H])(C([H])([H])[H])OC2([H])C2(C([H])([H])[H])C([H])([H])C([H])([H])C3([H])C([H])([H])C12C([H])([H])C3(O[H])C([H])([H])[H]

$$$$
42:0:1
     RDKit          3D

 49 52  0  0  1  0  0  0  0  0999 V2000
    3.7156   -6.3318    2.8839 C   0  0  0  0  0  0  0  0  0  0  0  0
    4.5874   -5.0697    2.9594 C   0  0  0  0  0  0  0  0  0  0  0  0
    5.0090   -4.7228    4.3916 C   0  0  0  0  0  0  0  0  0  0  0  0
    5.7577   -5.2601    2.2216 O   0  0  0  0  0  0  0  0  0  0  0  0
    5.5705   -4.5497    1.0238 C   0  0  2  0  0  0  0  0  0  0  0  0
    6.8401   -3.9978    0.3617 C   0  0  0  0  0  0  0  0  0  0  0  0
    6.5435   -2.6971   -0.4398 C   0  0  1  0  0  0  0  0  0  0  0  0
    7.4886   -2.5776   -1.4920 O   0  0  0  0  0  0  0  0  0  0  0  0
    5.0632   -2.5542   -0.9499 C   0  0  1  0  0  0  0  0  0  0  0  0
    4.7494   -3.5943   -2.0593 C   0  0  0  0  0  0  0  0  0  0  0  0
    3.4360   -3.0615   -2.6326 C   0  0  1  0  0  0  0  0  0  0  0  0
    2.2941   -3.3868   -1.6427 C   0  0  0  0  0  0  0  0  0  0  0  0
    2.7630   -3.5369   -0.1753 C   0  0  0  0  0  0  0  0  0  0  0  0
    4.0099   -2.6943    0.2580 C   0  0  2  0  0  0  0  0  0  0  0  0
    3.4937   -1.3405    0.8150 C   0  0  0  0  0  0  0  0  0  0  0  0
    4.6944   -3.3993    1.4702 C   0  0  1  0  0  0  0  0  0  0  0  0
    3.8495   -4.0150    2.4204 O   0  0  0  0  0  0  0  0  0  0  0  0
    3.7542   -1.5529   -2.8023 C   0  0  1  0  0  0  0  0  0  0  0  0
    4.1603   -1.1995   -4.2225 C   0  0  0  0  0  0  0  0  0  0  0  0
    2.6664   -0.7116   -2.6619 O   0  0  0  0  0  0  0  0  0  0  0  0
    4.8566   -1.2463   -1.7692 C   0  0  0  0  0  0  0  0  0  0  0  0
    3.4211   -6.5343    1.8548 H   0  0  0  0  0  0  0  0  0  0  0  0
    2.8132   -6.1755    3.4757 H   0  0  0  0  0  0  0  0  0  0  0  0
    4.2533   -7.1918    3.2837 H   0  0  0  0  0  0  0  0  0  0  0  0
    5.6463   -3.8391    4.3943 H   0  0  0  0  0  0  0  0  0  0  0  0
    5.5743   -5.5569    4.8081 H   0  0  0  0  0  0  0  0  0  0  0  0
    4.1304   -4.5434    5.0122 H   0  0  0  0  0  0  0  0  0  0  0  0
    5.0336   -5.2119    0.3439 H   0  0  0  0  0  0  0  0  0  0  0  0
    7.5905   -3.7746    1.1270 H   0  0  0  0  0  0  0  0  0  0  0  0
    7.2703   -4.7764   -0.2669 H   0  0  0  0  0  0  0  0  0  0  0  0
    6.7281   -1.8550    0.2278 H   0  0  0  0  0  0  0  0  0  0  0  0
    7.4024   -3.3208   -2.0660 H   0  0  0  0  0  0  0  0  0  0  0  0
    5.5134   -3.5859   -2.8359 H   0  0  0  0  0  0  0  0  0  0  0  0
    4.6647   -4.6260   -1.7152 H   0  0  0  0  0  0  0  0  0  0  0  0
    3.2024   -3.5172   -3.5917 H   0  0  0  0  0  0  0  0  0  0  0  0
    1.4828   -2.6803   -1.7626 H   0  0  0  0  0  0  0  0  0  0  0  0
    1.8098   -4.3188   -1.9303 H   0  0  0  0  0  0  0  0  0  0  0  0
    1.9311   -3.3202    0.4929 H   0  0  0  0  0  0  0  0  0  0  0  0
    2.9638   -4.5946   -0.0159 H   0  0  0  0  0  0  0  0  0  0  0  0
    2.8851   -1.4882    1.7097 H   0  0  0  0  0  0  0  0  0  0  0  0
    2.8581   -0.8145    0.1011 H   0  0  0  0  0  0  0  0  0  0  0  0
    4.3051   -0.6679    1.0937 H   0  0  0  0  0  0  0  0  0  0  0  0
    5.3143   -2.6868    2.0234 H   0  0  0  0  0  0  0  0  0  0  0  0
    5.0142   -1.7856   -4.4788 H   0  0  0  0  0  0  0  0  0  0  0  0
    4.4066   -0.1445   -4.3303 H   0  0  0  0  0  0  0  0  0  0  0  0
    3.3637   -1.4289   -4.9230 H   0  0  0  0  0  0  0  0  0  0  0  0
    2.1314   -0.9645   -1.8996 H   0  0  0  0  0  0  0  0  0  0  0  0
    4.6760   -0.3507   -1.1782 H   0  0  0  0  0  0  0  0  0  0  0  0
    5.7692   -1.0179   -2.3118 H   0  0  0  0  0  0  0  0  0  0  0  0
  1  2  1  0
  1 22  1  0
  1 23  1  0
  1 24  1  0
  2 17  1  0
  2  3  1  0
  2  4  1  0
  3 25  1  0
  3 26  1  0
  3 27  1  0
  4  5  1  0
  5 16  1  0
  5  6  1  0
  5 28  1  6
  6  7  1  0
  6 29  1  0
  6 30  1  0
  7  8  1  0
  7  9  1  0
  7 31  1  1
  8 32  1  0
  9 14  1  0
  9 21  1  6
  9 10  1  0
 10 11  1  0
 10 33  1  0
 10 34  1  0
 11 12  1  0
 11 18  1  0
 11 35  1  6
 12 13  1  0
 12 36  1  0
 12 37  1  0
 13 14  1  0
 13 38  1  0
 13 39  1  0
 14 15  1  1
 14 16  1  0
 15 40  1  0
 15 41  1  0
 15 42  1  0
 16 17  1  0
 16 43  1  1
 18 19  1  0
 18 20  1  1
 18 21  1  0
 19 44  1  0
 19 45  1  0
 19 46  1  0
 20 47  1  0
 21 48  1  0
 21 49  1  0
M  END
>  <i_m_ct_stereo_status>  (197) 
1

>  <s_m_source_file>  (197) 
/var/tmp/pbs.5076255.sched01/tmpstc2q6q5/48db17pvb_.sdf

>  <i_m_source_file_index>  (197) 
30

>  <i_lp_mmshare_version>  (197) 
48012

>  <i_f3d_flags>  (197) 
0

>  <s_epik_input>  (197) 
W0NIM11DKE8xKShbQ0gzXSlPW0NASF0oW0NIMl1bQ0BIXTJbT0hdKVtDQEhdMVtDQF0oW0NAQF0yMzQpKFtDSDNdKVtDSDJdW0NIMl1bQ0BIXShbQ0gyXTMpW0NAQF0oW0NIM10pKFtPSF0pW0NIMl00

>  <s_epik_cmdline>  (197) 
J2VwaWtfcHl0aG9uJywgJy1waHQnLCAnMi4wJywgJy1waCcsICc3LjAnLCAnLXRuJywgJzgnLCAnLW1hJywgJzIwMCcsICctaW1hZScsICc8aW5maWxlLm1hZT4nLCAnLW9tYWUnLCAnPG91dGZpbGUubWFlPic=

>  <r_lp_tautomer_probability>  (197) 
1

>  <r_epik_Ionization_Penalty>  (197) 
8.92747e-07

>  <r_epik_Ionization_Penalty_Charging>  (197) 
0

>  <r_epik_Ionization_Penalty_Neutral>  (197) 
8.92747e-07

>  <r_epik_State_Penalty>  (197) 
-0

>  <r_epik_Charging_Adjusted_Penalty>  (197) 
0

>  <i_epik_Tot_Q>  (197) 
0

>  <i_epik_Tot_abs_Q>  (197) 
0

>  <s_lp_Force_Field>  (197) 
OPLS3e

>  <r_lp_Energy>  (197) 
43.3839

>  <b_lp_Chiralities_Consistent>  (197) 
1

>  <s_lp_Variant>  (197) 
42:0-1

>  <s_i_glide_gridfile>  (197) 
pfpi4k_grid

>  <i_i_glide_lignum>  (197) 
30

>  <i_i_glide_rotatable_bonds>  (197) 
2

>  <r_i_docking_score>  (197) 
-3.70495

>  <r_i_glide_ligand_efficiency>  (197) 
-0.176426

>  <r_i_glide_ligand_efficiency_sa>  (197) 
-0.486746

>  <r_i_glide_ligand_efficiency_ln>  (197) 
-0.916041

>  <r_i_glide_gscore>  (197) 
-3.70495

>  <r_i_glide_lipo>  (197) 
-0.379142

>  <r_i_glide_hbond>  (197) 
-0.32

>  <r_i_glide_metal>  (197) 
-0

>  <r_i_glide_rewards>  (197) 
-1.39161

>  <r_i_glide_evdw>  (197) 
-18.1788

>  <r_i_glide_ecoul>  (197) 
-4.70168

>  <r_i_glide_erotb>  (197) 
0

>  <r_i_glide_esite>  (197) 
0

>  <r_i_glide_emodel>  (197) 
-27.3204

>  <r_i_glide_energy>  (197) 
-22.8804

>  <r_i_glide_einternal>  (197) 
0.350534

>  <r_i_glide_intrahb_reward>  (197) 
-0

>  <i_i_glide_confnum>  (197) 
1

>  <i_i_glide_posenum>  (197) 
40

>  <r_i_glide_eff_state_penalty>  (197) 
0

>  <ligand_id>  (197) 
42

>  <original_smiles>  (197) 
CC1(C)OC2CC(O)C34CC(CCC3(C)C2O1)C(C)(O)C4

>  <smiles>  (197) 
[H]OC1([H])C([H])([H])C2([H])OC(C([H])([H])[H])(C([H])([H])[H])OC2([H])C2(C([H])([H])[H])C([H])([H])C([H])([H])C3([H])C([H])([H])C12C([H])([H])C3(O[H])C([H])([H])[H]

$$$$
42:0:2
     RDKit          3D

 49 52  0  0  1  0  0  0  0  0999 V2000
    3.3289   -1.0633   -2.9382 C   0  0  0  0  0  0  0  0  0  0  0  0
    3.9086   -2.4607   -2.7349 C   0  0  0  0  0  0  0  0  0  0  0  0
    3.7724   -3.3123   -3.9734 C   0  0  0  0  0  0  0  0  0  0  0  0
    5.2808   -2.3586   -2.4716 O   0  0  0  0  0  0  0  0  0  0  0  0
    5.3628   -2.6066   -1.1027 C   0  0  2  0  0  0  0  0  0  0  0  0
    6.6726   -3.2295   -0.6209 C   0  0  0  0  0  0  0  0  0  0  0  0
    6.4397   -4.1613    0.5983 C   0  0  1  0  0  0  0  0  0  0  0  0
    7.6769   -4.2071    1.2720 O   0  0  0  0  0  0  0  0  0  0  0  0
    5.2111   -3.7671    1.4964 C   0  0  1  0  0  0  0  0  0  0  0  0
    5.4091   -2.4097    2.2046 C   0  0  0  0  0  0  0  0  0  0  0  0
    4.2923   -2.4222    3.2479 C   0  0  1  0  0  0  0  0  0  0  0  0
    2.9649   -2.1165    2.5245 C   0  0  0  0  0  0  0  0  0  0  0  0
    2.9680   -2.4953    1.0316 C   0  0  0  0  0  0  0  0  0  0  0  0
    3.8655   -3.7140    0.6375 C   0  0  2  0  0  0  0  0  0  0  0  0
    3.0023   -4.9995    0.7310 C   0  0  0  0  0  0  0  0  0  0  0  0
    4.2157   -3.5861   -0.8712 C   0  0  1  0  0  0  0  0  0  0  0  0
    3.2060   -3.0614   -1.6879 O   0  0  0  0  0  0  0  0  0  0  0  0
    4.4116   -3.8414    3.8525 C   0  0  1  0  0  0  0  0  0  0  0  0
    5.2222   -3.8330    5.1654 C   0  0  0  0  0  0  0  0  0  0  0  0
    3.1754   -4.4017    4.2094 O   0  0  0  0  0  0  0  0  0  0  0  0
    5.0885   -4.6822    2.7508 C   0  0  0  0  0  0  0  0  0  0  0  0
    3.4191   -0.5110   -2.0127 H   0  0  0  0  0  0  0  0  0  0  0  0
    2.2699   -1.1607   -3.1861 H   0  0  0  0  0  0  0  0  0  0  0  0
    3.8323   -0.5198   -3.7435 H   0  0  0  0  0  0  0  0  0  0  0  0
    4.2347   -4.2880   -3.8563 H   0  0  0  0  0  0  0  0  0  0  0  0
    4.3291   -2.7654   -4.7160 H   0  0  0  0  0  0  0  0  0  0  0  0
    2.7305   -3.4140   -4.2883 H   0  0  0  0  0  0  0  0  0  0  0  0
    5.1642   -1.6660   -0.5860 H   0  0  0  0  0  0  0  0  0  0  0  0
    7.1162   -3.8214   -1.4346 H   0  0  0  0  0  0  0  0  0  0  0  0
    7.3821   -2.4333   -0.4164 H   0  0  0  0  0  0  0  0  0  0  0  0
    6.2503   -5.1664    0.2164 H   0  0  0  0  0  0  0  0  0  0  0  0
    7.6113   -4.8114    2.0015 H   0  0  0  0  0  0  0  0  0  0  0  0
    6.3678   -2.3695    2.6987 H   0  0  0  0  0  0  0  0  0  0  0  0
    5.3706   -1.5341    1.5597 H   0  0  0  0  0  0  0  0  0  0  0  0
    4.4551   -1.6653    4.0133 H   0  0  0  0  0  0  0  0  0  0  0  0
    2.0944   -2.5278    3.0403 H   0  0  0  0  0  0  0  0  0  0  0  0
    2.8071   -1.0385    2.5667 H   0  0  0  0  0  0  0  0  0  0  0  0
    1.9405   -2.6763    0.7244 H   0  0  0  0  0  0  0  0  0  0  0  0
    3.2554   -1.6119    0.4666 H   0  0  0  0  0  0  0  0  0  0  0  0
    2.1849   -4.9692    0.0103 H   0  0  0  0  0  0  0  0  0  0  0  0
    2.5472   -5.1224    1.7079 H   0  0  0  0  0  0  0  0  0  0  0  0
    3.5781   -5.9011    0.5076 H   0  0  0  0  0  0  0  0  0  0  0  0
    4.5196   -4.5533   -1.2926 H   0  0  0  0  0  0  0  0  0  0  0  0
    6.2088   -3.4039    5.0225 H   0  0  0  0  0  0  0  0  0  0  0  0
    5.3478   -4.8396    5.5629 H   0  0  0  0  0  0  0  0  0  0  0  0
    4.7210   -3.2371    5.9271 H   0  0  0  0  0  0  0  0  0  0  0  0
    2.6458   -4.4947    3.4134 H   0  0  0  0  0  0  0  0  0  0  0  0
    4.6094   -5.6481    2.5867 H   0  0  0  0  0  0  0  0  0  0  0  0
    6.0808   -4.9512    3.1021 H   0  0  0  0  0  0  0  0  0  0  0  0
  1  2  1  0
  1 22  1  0
  1 23  1  0
  1 24  1  0
  2 17  1  0
  2  3  1  0
  2  4  1  0
  3 25  1  0
  3 26  1  0
  3 27  1  0
  4  5  1  0
  5 16  1  0
  5  6  1  0
  5 28  1  1
  6  7  1  0
  6 29  1  0
  6 30  1  0
  7  8  1  0
  7  9  1  0
  7 31  1  6
  8 32  1  0
  9 14  1  0
  9 21  1  1
  9 10  1  0
 10 11  1  0
 10 33  1  0
 10 34  1  0
 11 12  1  0
 11 18  1  0
 11 35  1  1
 12 13  1  0
 12 36  1  0
 12 37  1  0
 13 14  1  0
 13 38  1  0
 13 39  1  0
 14 15  1  6
 14 16  1  0
 15 40  1  0
 15 41  1  0
 15 42  1  0
 16 17  1  0
 16 43  1  6
 18 19  1  0
 18 20  1  1
 18 21  1  0
 19 44  1  0
 19 45  1  0
 19 46  1  0
 20 47  1  0
 21 48  1  0
 21 49  1  0
M  END
>  <i_m_ct_stereo_status>  (198) 
1

>  <s_m_source_file>  (198) 
/var/tmp/pbs.5076255.sched01/tmpstc2q6q5/48db17pvb_.sdf

>  <i_m_source_file_index>  (198) 
30

>  <i_lp_mmshare_version>  (198) 
48012

>  <i_f3d_flags>  (198) 
0

>  <s_epik_input>  (198) 
W0NIM11DKE8xKShbQ0gzXSlPW0NASF0oW0NIMl1bQ0BIXTJbT0hdKVtDQEhdMVtDQF0oW0NAQF0yMzQpKFtDSDNdKVtDSDJdW0NIMl1bQ0BIXShbQ0gyXTMpW0NAQF0oW0NIM10pKFtPSF0pW0NIMl00

>  <s_epik_cmdline>  (198) 
J2VwaWtfcHl0aG9uJywgJy1waHQnLCAnMi4wJywgJy1waCcsICc3LjAnLCAnLXRuJywgJzgnLCAnLW1hJywgJzIwMCcsICctaW1hZScsICc8aW5maWxlLm1hZT4nLCAnLW9tYWUnLCAnPG91dGZpbGUubWFlPic=

>  <r_lp_tautomer_probability>  (198) 
1

>  <r_epik_Ionization_Penalty>  (198) 
8.92747e-07

>  <r_epik_Ionization_Penalty_Charging>  (198) 
0

>  <r_epik_Ionization_Penalty_Neutral>  (198) 
8.92747e-07

>  <r_epik_State_Penalty>  (198) 
-0

>  <r_epik_Charging_Adjusted_Penalty>  (198) 
0

>  <i_epik_Tot_Q>  (198) 
0

>  <i_epik_Tot_abs_Q>  (198) 
0

>  <s_lp_Force_Field>  (198) 
OPLS3e

>  <r_lp_Energy>  (198) 
43.3839

>  <b_lp_Chiralities_Consistent>  (198) 
1

>  <s_lp_Variant>  (198) 
42:0-1

>  <s_i_glide_gridfile>  (198) 
pfpi4k_grid

>  <i_i_glide_lignum>  (198) 
30

>  <i_i_glide_rotatable_bonds>  (198) 
2

>  <r_i_docking_score>  (198) 
-3.00511

>  <r_i_glide_ligand_efficiency>  (198) 
-0.1431

>  <r_i_glide_ligand_efficiency_sa>  (198) 
-0.394803

>  <r_i_glide_ligand_efficiency_ln>  (198) 
-0.743007

>  <r_i_glide_gscore>  (198) 
-3.00511

>  <r_i_glide_lipo>  (198) 
-0.402978

>  <r_i_glide_hbond>  (198) 
0

>  <r_i_glide_metal>  (198) 
-0

>  <r_i_glide_rewards>  (198) 
-1.47547

>  <r_i_glide_evdw>  (198) 
-23.244

>  <r_i_glide_ecoul>  (198) 
0.236972

>  <r_i_glide_erotb>  (198) 
0

>  <r_i_glide_esite>  (198) 
0

>  <r_i_glide_emodel>  (198) 
-26.3507

>  <r_i_glide_energy>  (198) 
-23.007

>  <r_i_glide_einternal>  (198) 
0.35833

>  <r_i_glide_intrahb_reward>  (198) 
-0

>  <i_i_glide_confnum>  (198) 
1

>  <i_i_glide_posenum>  (198) 
38

>  <r_i_glide_eff_state_penalty>  (198) 
0

>  <ligand_id>  (198) 
42

>  <original_smiles>  (198) 
CC1(C)OC2CC(O)C34CC(CCC3(C)C2O1)C(C)(O)C4

>  <smiles>  (198) 
[H]OC1([H])C([H])([H])C2([H])OC(C([H])([H])[H])(C([H])([H])[H])OC2([H])C2(C([H])([H])[H])C([H])([H])C([H])([H])C3([H])C([H])([H])C12C([H])([H])C3(O[H])C([H])([H])[H]

$$$$
43:0:0
     RDKit          3D

 46 53  0  0  1  0  0  0  0  0999 V2000
    2.6946    3.1454    7.9287 C   0  0  0  0  0  0  0  0  0  0  0  0
    1.8797    3.1675    6.6157 C   0  0  2  0  0  0  0  0  0  0  0  0
    2.4040    4.1786    5.6042 C   0  0  2  0  0  0  0  0  0  0  0  0
    1.5278    5.2423    6.2576 C   0  0  0  0  0  0  0  0  0  0  0  0
    0.5575    4.0813    6.5101 C   0  0  1  0  0  0  0  0  0  0  0  0
   -0.4194    3.7458    5.3080 C   0  0  1  0  0  0  0  0  0  0  0  0
   -0.4037    2.4114    5.4703 O   0  0  0  0  0  0  0  0  0  0  0  0
   -1.3559    1.6116    4.9500 C   0  0  0  0  0  0  0  0  0  0  0  0
   -0.9310    0.2286    4.8291 C   0  0  0  0  0  0  0  0  0  0  0  0
    0.1091   -0.1769    5.6133 C   0  0  0  0  0  0  0  0  0  0  0  0
    0.8103    0.7037    6.5844 C   0  0  0  0  0  0  0  0  0  0  0  0
    0.1274    1.1299    7.7230 C   0  0  0  0  0  0  0  0  0  0  0  0
   -1.3447    1.3600    7.7530 C   0  0  0  0  0  0  0  0  0  0  0  0
   -1.8400    2.6482    7.7510 C   0  0  0  0  0  0  0  0  0  0  0  0
   -2.5464    3.2951    6.5727 C   0  0  0  0  0  0  0  0  0  0  0  0
   -1.9456    3.5609    5.3381 C   0  0  0  0  0  0  0  0  0  0  0  0
   -2.1562    2.4717    4.3515 C   0  0  0  0  0  0  0  0  0  0  0  0
   -1.8298    2.5377    2.8557 C   0  0  0  0  0  0  0  0  0  0  0  0
   -0.4780    1.9263    2.5209 N   0  0  0  0  0  0  0  0  0  0  0  0
    0.6988    2.5832    3.1863 C   0  0  2  0  0  0  0  0  0  0  0  0
    1.8183    2.1050    4.2948 C   0  0  2  0  0  0  0  0  0  0  0  0
    1.8832    1.7228    5.9241 C   0  0  1  0  0  0  0  0  0  0  0  0
    1.9968    3.6594    4.2552 C   0  0  1  0  0  0  0  0  0  0  0  0
    0.4585    3.8342    4.0081 C   0  0  2  0  0  0  0  0  0  0  0  0
    0.1065    4.9888    3.2786 O   0  0  0  0  0  0  0  0  0  0  0  0
    2.6050    2.2167    8.4911 H   0  0  0  0  0  0  0  0  0  0  0  0
    2.4108    3.9555    8.6003 H   0  0  0  0  0  0  0  0  0  0  0  0
    3.7629    3.2531    7.7332 H   0  0  0  0  0  0  0  0  0  0  0  0
    3.4712    4.3598    5.6927 H   0  0  0  0  0  0  0  0  0  0  0  0
    1.9640    5.6891    7.1564 H   0  0  0  0  0  0  0  0  0  0  0  0
    1.1680    5.9962    5.5535 H   0  0  0  0  0  0  0  0  0  0  0  0
    0.1076    4.2855    7.4619 H   0  0  0  0  0  0  0  0  0  0  0  0
   -1.4118   -0.4421    4.1343 H   0  0  0  0  0  0  0  0  0  0  0  0
    0.4362   -1.1959    5.5275 H   0  0  0  0  0  0  0  0  0  0  0  0
    0.6007    1.8256    8.3860 H   0  0  0  0  0  0  0  0  0  0  0  0
   -1.9011    0.6674    7.1508 H   0  0  0  0  0  0  0  0  0  0  0  0
   -1.3359    3.3316    8.4166 H   0  0  0  0  0  0  0  0  0  0  0  0
   -3.5642    2.9446    6.5248 H   0  0  0  0  0  0  0  0  0  0  0  0
   -2.6104    2.0379    2.2925 H   0  0  0  0  0  0  0  0  0  0  0  0
   -1.8700    3.5855    2.5307 H   0  0  0  0  0  0  0  0  0  0  0  0
   -0.3453    2.0005    1.5134 H   0  0  0  0  0  0  0  0  0  0  0  0
    1.2978    2.8754    2.3160 H   0  0  0  0  0  0  0  0  0  0  0  0
    2.6091    1.6019    3.7426 H   0  0  0  0  0  0  0  0  0  0  0  0
    2.8497    1.2454    6.1093 H   0  0  0  0  0  0  0  0  0  0  0  0
    2.6338    4.0186    3.4434 H   0  0  0  0  0  0  0  0  0  0  0  0
    0.2197    4.7843    2.3356 H   0  0  0  0  0  0  0  0  0  0  0  0
  2  1  1  1
  1 26  1  0
  1 27  1  0
  1 28  1  0
  2  5  1  0
  2 22  1  0
  2  3  1  0
  3 23  1  0
  3  4  1  0
  3 29  1  6
  4  5  1  0
  4 30  1  0
  4 31  1  0
  5  6  1  0
  5 32  1  1
  6 16  1  0
  6 24  1  0
  6  7  1  1
  7  8  1  0
  8 17  2  0
  8  9  1  0
  9 10  2  3
  9 33  1  0
 10 11  1  0
 10 34  1  0
 11 22  1  0
 11 12  2  3
 12 13  1  0
 12 35  1  0
 13 14  2  3
 13 36  1  0
 14 15  1  0
 14 37  1  0
 15 16  2  3
 15 38  1  0
 16 17  1  0
 17 18  1  0
 18 19  1  0
 18 39  1  0
 18 40  1  0
 19 20  1  0
 19 41  1  0
 20 24  1  0
 20 21  1  0
 20 42  1  6
 21 22  1  0
 21 23  1  0
 21 43  1  6
 22 44  1  6
 23 24  1  0
 23 45  1  6
 24 25  1  6
 25 46  1  0
M  END
>  <i_m_ct_stereo_status>  (199) 
1

>  <s_m_source_file>  (199) 
/var/tmp/pbs.5076255.sched01/tmpstc2q6q5/48db17pvb_.sdf

>  <i_m_source_file_index>  (199) 
31

>  <i_lp_mmshare_version>  (199) 
48012

>  <i_f3d_flags>  (199) 
0

>  <s_epik_input>  (199) 
W0NAXTEyM1tDQEhdNFtDQF01KFtDSDNdKVtDQEhdKFtDSDJdNClbQ0BIXTZbQ0BASF03W0NASF0oW0NAQF0zNltPSF0pW05IXVtDSDJdYzhjKE8xKVtjSF1bY0hdYyhbQ0BIXTU3KVtjSF1bY0hdW2NIXVtjSF1jMjg=

>  <s_epik_cmdline>  (199) 
J2VwaWtfcHl0aG9uJywgJy1waHQnLCAnMi4wJywgJy1waCcsICc3LjAnLCAnLXRuJywgJzgnLCAnLW1hJywgJzIwMCcsICctaW1hZScsICc8aW5maWxlLm1hZT4nLCAnLW9tYWUnLCAnPG91dGZpbGUubWFlPic=

>  <r_epik_Ionization_Penalty>  (199) 
0.106073

>  <r_epik_Ionization_Penalty_Charging>  (199) 
0

>  <r_epik_Ionization_Penalty_Neutral>  (199) 
0.106073

>  <r_epik_State_Penalty>  (199) 
0.0959303

>  <r_epik_Charging_Adjusted_Penalty>  (199) 
0.0959303

>  <i_epik_Tot_Q>  (199) 
0

>  <i_epik_Tot_abs_Q>  (199) 
0

>  <s_lp_Force_Field>  (199) 
OPLS3e

>  <r_lp_Energy>  (199) 
379.46

>  <b_lp_Chiralities_Consistent>  (199) 
1

>  <s_lp_Variant>  (199) 
43:0-1

>  <s_i_glide_gridfile>  (199) 
pfpi4k_grid

>  <i_i_glide_lignum>  (199) 
31

>  <i_i_glide_rotatable_bonds>  (199) 
1

>  <r_i_docking_score>  (199) 
-3.01667

>  <r_i_glide_ligand_efficiency>  (199) 
-0.120667

>  <r_i_glide_ligand_efficiency_sa>  (199) 
-0.352831

>  <r_i_glide_ligand_efficiency_ln>  (199) 
-0.71504

>  <r_i_glide_gscore>  (199) 
-3.01667

>  <r_i_glide_lipo>  (199) 
-0.121575

>  <r_i_glide_hbond>  (199) 
0

>  <r_i_glide_metal>  (199) 
-0

>  <r_i_glide_rewards>  (199) 
-1.14949

>  <r_i_glide_evdw>  (199) 
-17.0013

>  <r_i_glide_ecoul>  (199) 
-5.97022

>  <r_i_glide_erotb>  (199) 
0

>  <r_i_glide_esite>  (199) 
0

>  <r_i_glide_emodel>  (199) 
-27.6167

>  <r_i_glide_energy>  (199) 
-22.9715

>  <r_i_glide_einternal>  (199) 
0.535845

>  <r_i_glide_intrahb_reward>  (199) 
-0

>  <i_i_glide_confnum>  (199) 
1

>  <i_i_glide_posenum>  (199) 
4

>  <r_i_glide_eff_state_penalty>  (199) 
0

>  <ligand_id>  (199) 
43

>  <original_smiles>  (199) 
CC12C3CC1C14Oc5ccc6ccccc1c5CNC1C(C62)C3C14O

>  <smiles>  (199) 
[H]OC12C34Oc5c([H])c([H])c6c([H])c([H])c([H])c([H])c3c5C([H])([H])N([H])C1([H])C1([H])C6([H])C3(C([H])([H])[H])C4([H])C([H])([H])C3([H])C12[H]

$$$$
43:0:1
     RDKit          3D

 46 53  0  0  1  0  0  0  0  0999 V2000
    3.1960    3.4332    7.5310 C   0  0  0  0  0  0  0  0  0  0  0  0
    2.3064    3.2190    6.2861 C   0  0  2  0  0  0  0  0  0  0  0  0
    2.2958    4.4160    5.3453 C   0  0  2  0  0  0  0  0  0  0  0  0
    1.1509    5.0108    6.1579 C   0  0  0  0  0  0  0  0  0  0  0  0
    0.7304    3.5493    6.3608 C   0  0  1  0  0  0  0  0  0  0  0  0
   -0.1616    2.9361    5.2049 C   0  0  1  0  0  0  0  0  0  0  0  0
    0.3813    1.7061    5.2362 O   0  0  0  0  0  0  0  0  0  0  0  0
   -0.2358    0.6310    4.7082 C   0  0  0  0  0  0  0  0  0  0  0  0
    0.6713   -0.4642    4.4192 C   0  0  0  0  0  0  0  0  0  0  0  0
    1.8646   -0.4788    5.0856 C   0  0  0  0  0  0  0  0  0  0  0  0
    2.2677    0.5401    6.0865 C   0  0  0  0  0  0  0  0  0  0  0  0
    1.5930    0.5887    7.3083 C   0  0  0  0  0  0  0  0  0  0  0  0
    0.1585    0.2141    7.4690 C   0  0  0  0  0  0  0  0  0  0  0  0
   -0.7864    1.2099    7.6177 C   0  0  0  0  0  0  0  0  0  0  0  0
   -1.8055    1.6142    6.5685 C   0  0  0  0  0  0  0  0  0  0  0  0
   -1.4855    2.1668    5.3239 C   0  0  0  0  0  0  0  0  0  0  0  0
   -1.3606    1.1492    4.2499 C   0  0  0  0  0  0  0  0  0  0  0  0
   -1.2396    1.4320    2.7496 C   0  0  0  0  0  0  0  0  0  0  0  0
    0.1949    1.4229    2.2660 N   0  0  0  0  0  0  0  0  0  0  0  0
    1.0960    2.4369    2.9090 C   0  0  2  0  0  0  0  0  0  0  0  0
    2.4176    2.3646    3.8831 C   0  0  2  0  0  0  0  0  0  0  0  0
    2.7923    1.9371    5.4576 C   0  0  1  0  0  0  0  0  0  0  0  0
    1.9855    3.8651    3.9846 C   0  0  1  0  0  0  0  0  0  0  0  0
    0.4785    3.4486    3.8526 C   0  0  2  0  0  0  0  0  0  0  0  0
   -0.3587    4.4238    3.2782 O   0  0  0  0  0  0  0  0  0  0  0  0
    3.5267    2.5099    8.0056 H   0  0  0  0  0  0  0  0  0  0  0  0
    2.6935    4.0252    8.2960 H   0  0  0  0  0  0  0  0  0  0  0  0
    4.1157    3.9611    7.2726 H   0  0  0  0  0  0  0  0  0  0  0  0
    3.2152    4.9919    5.3757 H   0  0  0  0  0  0  0  0  0  0  0  0
    1.4700    5.5352    7.0631 H   0  0  0  0  0  0  0  0  0  0  0  0
    0.4599    5.6030    5.5548 H   0  0  0  0  0  0  0  0  0  0  0  0
    0.3366    3.4991    7.3579 H   0  0  0  0  0  0  0  0  0  0  0  0
    0.4199   -1.2297    3.7003 H   0  0  0  0  0  0  0  0  0  0  0  0
    2.5425   -1.2863    4.8808 H   0  0  0  0  0  0  0  0  0  0  0  0
    1.8271    1.3720    7.9999 H   0  0  0  0  0  0  0  0  0  0  0  0
   -0.1381   -0.6202    6.8558 H   0  0  0  0  0  0  0  0  0  0  0  0
   -0.5183    1.9900    8.3116 H   0  0  0  0  0  0  0  0  0  0  0  0
   -2.6215    0.9154    6.5510 H   0  0  0  0  0  0  0  0  0  0  0  0
   -1.7913    0.6871    2.1918 H   0  0  0  0  0  0  0  0  0  0  0  0
   -1.7199    2.3935    2.5307 H   0  0  0  0  0  0  0  0  0  0  0  0
    0.1864    1.5808    1.2597 H   0  0  0  0  0  0  0  0  0  0  0  0
    1.4532    2.9860    2.0317 H   0  0  0  0  0  0  0  0  0  0  0  0
    3.2803    2.2447    3.2329 H   0  0  0  0  0  0  0  0  0  0  0  0
    3.8818    1.8649    5.5253 H   0  0  0  0  0  0  0  0  0  0  0  0
    2.3494    4.4950    3.1666 H   0  0  0  0  0  0  0  0  0  0  0  0
   -0.1580    4.4619    2.3284 H   0  0  0  0  0  0  0  0  0  0  0  0
  2  1  1  1
  1 26  1  0
  1 27  1  0
  1 28  1  0
  2  5  1  0
  2 22  1  0
  2  3  1  0
  3 23  1  0
  3  4  1  0
  3 29  1  6
  4  5  1  0
  4 30  1  0
  4 31  1  0
  5  6  1  0
  5 32  1  1
  6 16  1  0
  6 24  1  0
  6  7  1  6
  7  8  1  0
  8 17  2  0
  8  9  1  0
  9 10  2  3
  9 33  1  0
 10 11  1  0
 10 34  1  0
 11 22  1  0
 11 12  2  3
 12 13  1  0
 12 35  1  0
 13 14  2  3
 13 36  1  0
 14 15  1  0
 14 37  1  0
 15 16  2  3
 15 38  1  0
 16 17  1  0
 17 18  1  0
 18 19  1  0
 18 39  1  0
 18 40  1  0
 19 20  1  0
 19 41  1  0
 20 24  1  0
 20 21  1  0
 20 42  1  6
 21 22  1  0
 21 23  1  0
 21 43  1  6
 22 44  1  6
 23 24  1  0
 23 45  1  6
 24 25  1  6
 25 46  1  0
M  END
>  <i_m_ct_stereo_status>  (200) 
1

>  <s_m_source_file>  (200) 
/var/tmp/pbs.5076255.sched01/tmpstc2q6q5/48db17pvb_.sdf

>  <i_m_source_file_index>  (200) 
31

>  <i_lp_mmshare_version>  (200) 
48012

>  <i_f3d_flags>  (200) 
0

>  <s_epik_input>  (200) 
W0NAXTEyM1tDQEhdNFtDQF01KFtDSDNdKVtDQEhdKFtDSDJdNClbQ0BIXTZbQ0BASF03W0NASF0oW0NAQF0zNltPSF0pW05IXVtDSDJdYzhjKE8xKVtjSF1bY0hdYyhbQ0BIXTU3KVtjSF1bY0hdW2NIXVtjSF1jMjg=

>  <s_epik_cmdline>  (200) 
J2VwaWtfcHl0aG9uJywgJy1waHQnLCAnMi4wJywgJy1waCcsICc3LjAnLCAnLXRuJywgJzgnLCAnLW1hJywgJzIwMCcsICctaW1hZScsICc8aW5maWxlLm1hZT4nLCAnLW9tYWUnLCAnPG91dGZpbGUubWFlPic=

>  <r_epik_Ionization_Penalty>  (200) 
0.106073

>  <r_epik_Ionization_Penalty_Charging>  (200) 
0

>  <r_epik_Ionization_Penalty_Neutral>  (200) 
0.106073

>  <r_epik_State_Penalty>  (200) 
0.0959303

>  <r_epik_Charging_Adjusted_Penalty>  (200) 
0.0959303

>  <i_epik_Tot_Q>  (200) 
0

>  <i_epik_Tot_abs_Q>  (200) 
0

>  <s_lp_Force_Field>  (200) 
OPLS3e

>  <r_lp_Energy>  (200) 
379.46

>  <b_lp_Chiralities_Consistent>  (200) 
1

>  <s_lp_Variant>  (200) 
43:0-1

>  <s_i_glide_gridfile>  (200) 
pfpi4k_grid

>  <i_i_glide_lignum>  (200) 
31

>  <i_i_glide_rotatable_bonds>  (200) 
1

>  <r_i_docking_score>  (200) 
-3.00219

>  <r_i_glide_ligand_efficiency>  (200) 
-0.120088

>  <r_i_glide_ligand_efficiency_sa>  (200) 
-0.351139

>  <r_i_glide_ligand_efficiency_ln>  (200) 
-0.71161

>  <r_i_glide_gscore>  (200) 
-3.00219

>  <r_i_glide_lipo>  (200) 
0

>  <r_i_glide_hbond>  (200) 
0

>  <r_i_glide_metal>  (200) 
-0

>  <r_i_glide_rewards>  (200) 
-1.14949

>  <r_i_glide_evdw>  (200) 
-15.1397

>  <r_i_glide_ecoul>  (200) 
-7.30478

>  <r_i_glide_erotb>  (200) 
0

>  <r_i_glide_esite>  (200) 
0

>  <r_i_glide_emodel>  (200) 
-27.1972

>  <r_i_glide_energy>  (200) 
-22.4445

>  <r_i_glide_einternal>  (200) 
0.317444

>  <r_i_glide_intrahb_reward>  (200) 
-0

>  <i_i_glide_confnum>  (200) 
1

>  <i_i_glide_posenum>  (200) 
2

>  <r_i_glide_eff_state_penalty>  (200) 
0

>  <ligand_id>  (200) 
43

>  <original_smiles>  (200) 
CC12C3CC1C14Oc5ccc6ccccc1c5CNC1C(C62)C3C14O

>  <smiles>  (200) 
[H]OC12C34Oc5c([H])c([H])c6c([H])c([H])c([H])c([H])c3c5C([H])([H])N([H])C1([H])C1([H])C6([H])C3(C([H])([H])[H])C4([H])C([H])([H])C3([H])C12[H]

$$$$
43:0:2
     RDKit          3D

 46 53  0  0  1  0  0  0  0  0999 V2000
    3.6339    2.4326    6.4495 C   0  0  0  0  0  0  0  0  0  0  0  0
    2.3406    2.6449    5.6346 C   0  0  2  0  0  0  0  0  0  0  0  0
    2.5439    3.5465    4.4225 C   0  0  2  0  0  0  0  0  0  0  0  0
    2.2729    4.7574    5.3090 C   0  0  0  0  0  0  0  0  0  0  0  0
    1.3151    3.8154    6.0546 C   0  0  1  0  0  0  0  0  0  0  0  0
   -0.1375    3.7117    5.4414 C   0  0  1  0  0  0  0  0  0  0  0  0
   -0.3140    2.3988    5.6796 O   0  0  0  0  0  0  0  0  0  0  0  0
   -1.5300    1.8201    5.6991 C   0  0  0  0  0  0  0  0  0  0  0  0
   -1.4817    0.3843    5.5043 C   0  0  0  0  0  0  0  0  0  0  0  0
   -0.2978   -0.2432    5.7766 C   0  0  0  0  0  0  0  0  0  0  0  0
    0.9173    0.4546    6.2661 C   0  0  0  0  0  0  0  0  0  0  0  0
    0.9128    0.9882    7.5576 C   0  0  0  0  0  0  0  0  0  0  0  0
   -0.3141    1.5103    8.2259 C   0  0  0  0  0  0  0  0  0  0  0  0
   -0.4977    2.8738    8.3387 C   0  0  0  0  0  0  0  0  0  0  0  0
   -1.5112    3.6836    7.5578 C   0  0  0  0  0  0  0  0  0  0  0  0
   -1.4843    3.8322    6.1648 C   0  0  0  0  0  0  0  0  0  0  0  0
   -2.3234    2.8440    5.4445 C   0  0  0  0  0  0  0  0  0  0  0  0
   -2.7058    2.8803    3.9629 C   0  0  0  0  0  0  0  0  0  0  0  0
   -1.7883    2.0268    3.1188 N   0  0  0  0  0  0  0  0  0  0  0  0
   -0.3360    2.3903    3.1411 C   0  0  2  0  0  0  0  0  0  0  0  0
    1.0423    1.6671    3.6702 C   0  0  2  0  0  0  0  0  0  0  0  0
    1.7529    1.2450    5.1252 C   0  0  1  0  0  0  0  0  0  0  0  0
    1.4859    3.1499    3.4368 C   0  0  1  0  0  0  0  0  0  0  0  0
    0.0663    3.6477    3.8771 C   0  0  2  0  0  0  0  0  0  0  0  0
   -0.3584    4.8549    3.2854 O   0  0  0  0  0  0  0  0  0  0  0  0
    3.6284    1.5339    7.0645 H   0  0  0  0  0  0  0  0  0  0  0  0
    3.8445    3.2762    7.1079 H   0  0  0  0  0  0  0  0  0  0  0  0
    4.4983    2.3217    5.7925 H   0  0  0  0  0  0  0  0  0  0  0  0
    3.5474    3.5008    4.0093 H   0  0  0  0  0  0  0  0  0  0  0  0
    3.1397    5.0940    5.8823 H   0  0  0  0  0  0  0  0  0  0  0  0
    1.7829    5.5790    4.7792 H   0  0  0  0  0  0  0  0  0  0  0  0
    1.3847    4.0912    7.0918 H   0  0  0  0  0  0  0  0  0  0  0  0
   -2.3407   -0.1619    5.1451 H   0  0  0  0  0  0  0  0  0  0  0  0
   -0.2474   -1.3078    5.6357 H   0  0  0  0  0  0  0  0  0  0  0  0
    1.7554    1.5630    7.8827 H   0  0  0  0  0  0  0  0  0  0  0  0
   -1.2055    0.9496    8.0071 H   0  0  0  0  0  0  0  0  0  0  0  0
    0.3679    3.4272    8.6559 H   0  0  0  0  0  0  0  0  0  0  0  0
   -2.4922    3.5654    7.9873 H   0  0  0  0  0  0  0  0  0  0  0  0
   -3.7284    2.5411    3.8476 H   0  0  0  0  0  0  0  0  0  0  0  0
   -2.6920    3.9156    3.6193 H   0  0  0  0  0  0  0  0  0  0  0  0
   -2.1099    2.0393    2.1563 H   0  0  0  0  0  0  0  0  0  0  0  0
   -0.1422    2.5425    2.0747 H   0  0  0  0  0  0  0  0  0  0  0  0
    1.3812    1.0172    2.8678 H   0  0  0  0  0  0  0  0  0  0  0  0
    2.5876    0.5767    4.8969 H   0  0  0  0  0  0  0  0  0  0  0  0
    1.7459    3.3832    2.4000 H   0  0  0  0  0  0  0  0  0  0  0  0
   -0.1797    4.7627    2.3389 H   0  0  0  0  0  0  0  0  0  0  0  0
  2  1  1  1
  1 26  1  0
  1 27  1  0
  1 28  1  0
  2  5  1  0
  2 22  1  0
  2  3  1  0
  3 23  1  0
  3  4  1  0
  3 29  1  6
  4  5  1  0
  4 30  1  0
  4 31  1  0
  5  6  1  0
  5 32  1  1
  6 16  1  0
  6 24  1  0
  6  7  1  1
  7  8  1  0
  8 17  2  0
  8  9  1  0
  9 10  2  3
  9 33  1  0
 10 11  1  0
 10 34  1  0
 11 22  1  0
 11 12  2  3
 12 13  1  0
 12 35  1  0
 13 14  2  3
 13 36  1  0
 14 15  1  0
 14 37  1  0
 15 16  2  3
 15 38  1  0
 16 17  1  0
 17 18  1  0
 18 19  1  0
 18 39  1  0
 18 40  1  0
 19 20  1  0
 19 41  1  0
 20 24  1  0
 20 21  1  0
 20 42  1  6
 21 22  1  0
 21 23  1  0
 21 43  1  6
 22 44  1  6
 23 24  1  0
 23 45  1  6
 24 25  1  6
 25 46  1  0
M  END
>  <i_m_ct_stereo_status>  (201) 
1

>  <s_m_source_file>  (201) 
/var/tmp/pbs.5076255.sched01/tmpstc2q6q5/48db17pvb_.sdf

>  <i_m_source_file_index>  (201) 
31

>  <i_lp_mmshare_version>  (201) 
48012

>  <i_f3d_flags>  (201) 
0

>  <s_epik_input>  (201) 
W0NAXTEyM1tDQEhdNFtDQF01KFtDSDNdKVtDQEhdKFtDSDJdNClbQ0BIXTZbQ0BASF03W0NASF0oW0NAQF0zNltPSF0pW05IXVtDSDJdYzhjKE8xKVtjSF1bY0hdYyhbQ0BIXTU3KVtjSF1bY0hdW2NIXVtjSF1jMjg=

>  <s_epik_cmdline>  (201) 
J2VwaWtfcHl0aG9uJywgJy1waHQnLCAnMi4wJywgJy1waCcsICc3LjAnLCAnLXRuJywgJzgnLCAnLW1hJywgJzIwMCcsICctaW1hZScsICc8aW5maWxlLm1hZT4nLCAnLW9tYWUnLCAnPG91dGZpbGUubWFlPic=

>  <r_epik_Ionization_Penalty>  (201) 
0.106073

>  <r_epik_Ionization_Penalty_Charging>  (201) 
0

>  <r_epik_Ionization_Penalty_Neutral>  (201) 
0.106073

>  <r_epik_State_Penalty>  (201) 
0.0959303

>  <r_epik_Charging_Adjusted_Penalty>  (201) 
0.0959303

>  <i_epik_Tot_Q>  (201) 
0

>  <i_epik_Tot_abs_Q>  (201) 
0

>  <s_lp_Force_Field>  (201) 
OPLS3e

>  <r_lp_Energy>  (201) 
379.46

>  <b_lp_Chiralities_Consistent>  (201) 
1

>  <s_lp_Variant>  (201) 
43:0-1

>  <s_i_glide_gridfile>  (201) 
pfpi4k_grid

>  <i_i_glide_lignum>  (201) 
31

>  <i_i_glide_rotatable_bonds>  (201) 
1

>  <r_i_docking_score>  (201) 
-2.84369

>  <r_i_glide_ligand_efficiency>  (201) 
-0.113747

>  <r_i_glide_ligand_efficiency_sa>  (201) 
-0.332599

>  <r_i_glide_ligand_efficiency_ln>  (201) 
-0.674039

>  <r_i_glide_gscore>  (201) 
-2.84369

>  <r_i_glide_lipo>  (201) 
-0.0481091

>  <r_i_glide_hbond>  (201) 
0

>  <r_i_glide_metal>  (201) 
-0

>  <r_i_glide_rewards>  (201) 
-1.14949

>  <r_i_glide_evdw>  (201) 
-16.0861

>  <r_i_glide_ecoul>  (201) 
-5.61186

>  <r_i_glide_erotb>  (201) 
0

>  <r_i_glide_esite>  (201) 
0

>  <r_i_glide_emodel>  (201) 
-26.4201

>  <r_i_glide_energy>  (201) 
-21.6979

>  <r_i_glide_einternal>  (201) 
0.00566069

>  <r_i_glide_intrahb_reward>  (201) 
-0

>  <i_i_glide_confnum>  (201) 
2

>  <i_i_glide_posenum>  (201) 
12

>  <r_i_glide_eff_state_penalty>  (201) 
0

>  <ligand_id>  (201) 
43

>  <original_smiles>  (201) 
CC12C3CC1C14Oc5ccc6ccccc1c5CNC1C(C62)C3C14O

>  <smiles>  (201) 
[H]OC12C34Oc5c([H])c([H])c6c([H])c([H])c([H])c([H])c3c5C([H])([H])N([H])C1([H])C1([H])C6([H])C3(C([H])([H])[H])C4([H])C([H])([H])C3([H])C12[H]

$$$$
43:1:0
     RDKit          3D

 47 54  0  0  1  0  0  0  0  0999 V2000
   -0.8187    4.4222    7.5996 C   0  0  0  0  0  0  0  0  0  0  0  0
   -0.7759    3.5277    6.3368 C   0  0  2  0  0  0  0  0  0  0  0  0
   -2.0954    2.8322    6.0538 C   0  0  2  0  0  0  0  0  0  0  0  0
   -1.6686    1.6986    6.9801 C   0  0  0  0  0  0  0  0  0  0  0  0
   -0.2603    2.0072    6.4534 C   0  0  1  0  0  0  0  0  0  0  0  0
    0.1313    1.2992    5.0893 C   0  0  1  0  0  0  0  0  0  0  0  0
    0.8166    2.3250    4.5617 O   0  0  0  0  0  0  0  0  0  0  0  0
    1.7273    2.1646    3.5879 C   0  0  0  0  0  0  0  0  0  0  0  0
    2.0087    3.3985    2.8806 C   0  0  0  0  0  0  0  0  0  0  0  0
    1.7442    4.5668    3.5309 C   0  0  0  0  0  0  0  0  0  0  0  0
    1.2090    4.6468    4.9154 C   0  0  0  0  0  0  0  0  0  0  0  0
    2.0179    4.2447    5.9731 C   0  0  0  0  0  0  0  0  0  0  0  0
    3.0455    3.1731    5.8542 C   0  0  0  0  0  0  0  0  0  0  0  0
    2.7850    1.9346    6.3944 C   0  0  0  0  0  0  0  0  0  0  0  0
    2.5055    0.6708    5.5997 C   0  0  0  0  0  0  0  0  0  0  0  0
    1.4007    0.4909    4.7746 C   0  0  0  0  0  0  0  0  0  0  0  0
    1.6778    0.8644    3.3610 C   0  0  0  0  0  0  0  0  0  0  0  0
    0.7533    0.5823    2.1820 C   0  0  0  0  0  0  0  0  0  0  0  0
   -0.1488    1.7449    1.8608 N   0  0  0  0  0  0  0  0  0  0  0  0
   -1.1482    2.2050    2.9038 C   0  0  2  0  0  0  0  0  0  0  0  0
   -1.2071    3.5946    3.7929 C   0  0  2  0  0  0  0  0  0  0  0  0
   -0.3807    4.3756    5.0330 C   0  0  1  0  0  0  0  0  0  0  0  0
   -2.1101    2.5750    4.5723 C   0  0  1  0  0  0  0  0  0  0  0  0
   -1.1502    1.3948    4.1794 C   0  0  2  0  0  0  0  0  0  0  0  0
   -1.7697    0.1269    4.1096 O   0  0  0  0  0  0  0  0  0  0  0  0
   -0.0630    5.2060    7.6173 H   0  0  0  0  0  0  0  0  0  0  0  0
   -0.6976    3.8448    8.5163 H   0  0  0  0  0  0  0  0  0  0  0  0
   -1.7703    4.9474    7.6883 H   0  0  0  0  0  0  0  0  0  0  0  0
   -2.9582    3.3860    6.4108 H   0  0  0  0  0  0  0  0  0  0  0  0
   -1.8272    1.9000    8.0424 H   0  0  0  0  0  0  0  0  0  0  0  0
   -2.0624    0.7276    6.6768 H   0  0  0  0  0  0  0  0  0  0  0  0
    0.3905    1.8520    7.2939 H   0  0  0  0  0  0  0  0  0  0  0  0
    2.3954    3.4068    1.8742 H   0  0  0  0  0  0  0  0  0  0  0  0
    1.9436    5.4845    3.0066 H   0  0  0  0  0  0  0  0  0  0  0  0
    1.6127    4.2321    6.9653 H   0  0  0  0  0  0  0  0  0  0  0  0
    3.5657    3.1713    4.9095 H   0  0  0  0  0  0  0  0  0  0  0  0
    2.3641    1.9516    7.3843 H   0  0  0  0  0  0  0  0  0  0  0  0
    3.4300    0.2659    5.2243 H   0  0  0  0  0  0  0  0  0  0  0  0
    1.3502    0.3391    1.3051 H   0  0  0  0  0  0  0  0  0  0  0  0
    0.1574   -0.3142    2.3821 H   0  0  0  0  0  0  0  0  0  0  0  0
    0.3890    2.5802    1.5721 H   0  0  0  0  0  0  0  0  0  0  0  0
   -2.0981    2.1148    2.3563 H   0  0  0  0  0  0  0  0  0  0  0  0
   -1.8072    4.3021    3.2304 H   0  0  0  0  0  0  0  0  0  0  0  0
   -0.8007    5.3778    5.1390 H   0  0  0  0  0  0  0  0  0  0  0  0
   -3.1221    2.5113    4.1650 H   0  0  0  0  0  0  0  0  0  0  0  0
   -2.5514    0.2412    3.5849 H   0  0  0  0  0  0  0  0  0  0  0  0
   -0.6689    1.4582    1.0483 H   0  0  0  0  0  0  0  0  0  0  0  0
  2  1  1  1
  1 26  1  0
  1 27  1  0
  1 28  1  0
  2  5  1  0
  2 22  1  0
  2  3  1  0
  3 23  1  0
  3  4  1  0
  3 29  1  1
  4  5  1  0
  4 30  1  0
  4 31  1  0
  5  6  1  0
  5 32  1  1
  6 16  1  0
  6 24  1  0
  6  7  1  6
  7  8  1  0
  8 17  2  0
  8  9  1  0
  9 10  2  3
  9 33  1  0
 10 11  1  0
 10 34  1  0
 11 22  1  0
 11 12  2  3
 12 13  1  0
 12 35  1  0
 13 14  2  3
 13 36  1  0
 14 15  1  0
 14 37  1  0
 15 16  2  3
 15 38  1  0
 16 17  1  0
 17 18  1  0
 18 19  1  0
 18 39  1  0
 18 40  1  0
 19 20  1  0
 19 41  1  0
 19 47  1  0
 20 24  1  0
 20 21  1  0
 20 42  1  6
 21 22  1  0
 21 23  1  0
 21 43  1  6
 22 44  1  1
 23 24  1  0
 23 45  1  6
 24 25  1  6
 25 46  1  0
M  CHG  1  19   1
M  END
>  <i_m_ct_stereo_status>  (202) 
1

>  <s_m_source_file>  (202) 
/var/tmp/pbs.5076255.sched01/tmpstc2q6q5/48db17pvb_.sdf

>  <i_m_source_file_index>  (202) 
32

>  <i_lp_mmshare_version>  (202) 
48012

>  <i_f3d_flags>  (202) 
0

>  <s_epik_input>  (202) 
W0NAXTEyM1tDQEhdNFtDQF01KFtDSDNdKVtDQEhdKFtDSDJdNClbQ0BIXTZbQ0BASF03W0NASF0oW0NAQF0zNltPSF0pW05IXVtDSDJdYzhjKE8xKVtjSF1bY0hdYyhbQ0BIXTU3KVtjSF1bY0hdW2NIXVtjSF1jMjg=

>  <s_epik_cmdline>  (202) 
J2VwaWtfcHl0aG9uJywgJy1waHQnLCAnMi4wJywgJy1waCcsICc3LjAnLCAnLXRuJywgJzgnLCAnLW1hJywgJzIwMCcsICctaW1hZScsICc8aW5maWxlLm1hZT4nLCAnLW9tYWUnLCAnPG91dGZpbGUubWFlPic=

>  <r_epik_Ionization_Penalty>  (202) 
1.07147

>  <r_epik_Ionization_Penalty_Charging>  (202) 
1.07144

>  <r_epik_Ionization_Penalty_Neutral>  (202) 
2.17114e-05

>  <r_epik_State_Penalty>  (202) 
1.12606

>  <r_epik_Charging_Adjusted_Penalty>  (202) 
2.1975

>  <i_epik_Tot_Q>  (202) 
1

>  <i_epik_Tot_abs_Q>  (202) 
1

>  <s_lp_Force_Field>  (202) 
OPLS3e

>  <r_lp_Energy>  (202) 
379.214

>  <b_lp_Chiralities_Consistent>  (202) 
1

>  <s_lp_Variant>  (202) 
43:0-2

>  <s_i_glide_gridfile>  (202) 
pfpi4k_grid

>  <i_i_glide_lignum>  (202) 
32

>  <i_i_glide_rotatable_bonds>  (202) 
1

>  <r_i_docking_score>  (202) 
-3.75914

>  <r_i_glide_ligand_efficiency>  (202) 
-0.150365

>  <r_i_glide_ligand_efficiency_sa>  (202) 
-0.439671

>  <r_i_glide_ligand_efficiency_ln>  (202) 
-0.891028

>  <r_i_glide_gscore>  (202) 
-3.75914

>  <r_i_glide_lipo>  (202) 
-0.0723491

>  <r_i_glide_hbond>  (202) 
-0.273287

>  <r_i_glide_metal>  (202) 
-0

>  <r_i_glide_rewards>  (202) 
-1.14262

>  <r_i_glide_evdw>  (202) 
-17.3952

>  <r_i_glide_ecoul>  (202) 
-8.82672

>  <r_i_glide_erotb>  (202) 
0

>  <r_i_glide_esite>  (202) 
-0.0771131

>  <r_i_glide_emodel>  (202) 
-34.9354

>  <r_i_glide_energy>  (202) 
-26.2219

>  <r_i_glide_einternal>  (202) 
0.00229062

>  <r_i_glide_intrahb_reward>  (202) 
-0

>  <i_i_glide_confnum>  (202) 
2

>  <i_i_glide_posenum>  (202) 
23

>  <r_i_glide_eff_state_penalty>  (202) 
0

>  <ligand_id>  (202) 
43

>  <original_smiles>  (202) 
CC12C3CC1C14Oc5ccc6ccccc1c5CNC1C(C62)C3C14O

>  <smiles>  (202) 
[H]OC12C34Oc5c([H])c([H])c6c([H])c([H])c([H])c([H])c3c5C([H])([H])[N+]([H])([H])C1([H])C1([H])C6([H])C3(C([H])([H])[H])C4([H])C([H])([H])C3([H])C12[H]

$$$$
43:1:1
     RDKit          3D

 47 54  0  0  1  0  0  0  0  0999 V2000
    3.5754    2.3621    7.2530 C   0  0  0  0  0  0  0  0  0  0  0  0
    2.6610    2.4439    6.0078 C   0  0  2  0  0  0  0  0  0  0  0  0
    2.7871    3.7580    5.2551 C   0  0  2  0  0  0  0  0  0  0  0  0
    1.7314    4.3577    6.1764 C   0  0  0  0  0  0  0  0  0  0  0  0
    1.1387    2.9426    6.1619 C   0  0  1  0  0  0  0  0  0  0  0  0
    0.1715    2.6225    4.9452 C   0  0  1  0  0  0  0  0  0  0  0  0
    0.5686    1.3490    4.7633 O   0  0  0  0  0  0  0  0  0  0  0  0
   -0.1847    0.4445    4.1160 C   0  0  0  0  0  0  0  0  0  0  0  0
    0.5903   -0.6828    3.6313 C   0  0  0  0  0  0  0  0  0  0  0  0
    1.7790   -0.9376    4.2513 C   0  0  0  0  0  0  0  0  0  0  0  0
    2.3070   -0.1494    5.3927 C   0  0  0  0  0  0  0  0  0  0  0  0
    1.6544   -0.2157    6.6230 C   0  0  0  0  0  0  0  0  0  0  0  0
    0.1888   -0.4366    6.7611 C   0  0  0  0  0  0  0  0  0  0  0  0
   -0.6199    0.6301    7.0905 C   0  0  0  0  0  0  0  0  0  0  0  0
   -1.6002    1.3068    6.1509 C   0  0  0  0  0  0  0  0  0  0  0  0
   -1.2352    2.0035    4.9959 C   0  0  0  0  0  0  0  0  0  0  0  0
   -1.2482    1.1522    3.7836 C   0  0  0  0  0  0  0  0  0  0  0  0
   -1.1027    1.6503    2.3477 C   0  0  0  0  0  0  0  0  0  0  0  0
    0.3311    1.5560    1.8530 N   0  0  0  0  0  0  0  0  0  0  0  0
    1.3739    2.3962    2.5477 C   0  0  2  0  0  0  0  0  0  0  0  0
    2.6466    1.9433    3.4852 C   0  0  2  0  0  0  0  0  0  0  0  0
    2.9815    1.2581    4.9758 C   0  0  1  0  0  0  0  0  0  0  0  0
    2.4020    3.4601    3.8316 C   0  0  1  0  0  0  0  0  0  0  0  0
    0.8498    3.2626    3.6690 C   0  0  2  0  0  0  0  0  0  0  0  0
    0.1261    4.4127    3.2855 O   0  0  0  0  0  0  0  0  0  0  0  0
    3.8001    1.3459    7.5792 H   0  0  0  0  0  0  0  0  0  0  0  0
    3.1464    2.8832    8.1098 H   0  0  0  0  0  0  0  0  0  0  0  0
    4.5505    2.8148    7.0650 H   0  0  0  0  0  0  0  0  0  0  0  0
    3.7681    4.2132    5.3538 H   0  0  0  0  0  0  0  0  0  0  0  0
    2.1117    4.7019    7.1415 H   0  0  0  0  0  0  0  0  0  0  0  0
    1.1147    5.1133    5.6852 H   0  0  0  0  0  0  0  0  0  0  0  0
    0.7493    2.7929    7.1513 H   0  0  0  0  0  0  0  0  0  0  0  0
    0.2424   -1.3053    2.8212 H   0  0  0  0  0  0  0  0  0  0  0  0
    2.3532   -1.7793    3.9059 H   0  0  0  0  0  0  0  0  0  0  0  0
    1.9920    0.4092    7.4228 H   0  0  0  0  0  0  0  0  0  0  0  0
   -0.2174   -1.1206    6.0349 H   0  0  0  0  0  0  0  0  0  0  0  0
   -0.2507    1.2494    7.8911 H   0  0  0  0  0  0  0  0  0  0  0  0
   -2.4961    0.7187    6.0607 H   0  0  0  0  0  0  0  0  0  0  0  0
   -1.7442    1.0652    1.7044 H   0  0  0  0  0  0  0  0  0  0  0  0
   -1.4780    2.6750    2.2586 H   0  0  0  0  0  0  0  0  0  0  0  0
    0.6203    0.5886    1.7991 H   0  0  0  0  0  0  0  0  0  0  0  0
    1.7731    2.9960    1.7139 H   0  0  0  0  0  0  0  0  0  0  0  0
    3.4847    1.8081    2.8182 H   0  0  0  0  0  0  0  0  0  0  0  0
    4.0556    1.0545    5.0097 H   0  0  0  0  0  0  0  0  0  0  0  0
    2.8480    4.1623    3.1271 H   0  0  0  0  0  0  0  0  0  0  0  0
    0.2113    4.5192    2.3157 H   0  0  0  0  0  0  0  0  0  0  0  0
    0.2745    1.9156    0.9087 H   0  0  0  0  0  0  0  0  0  0  0  0
  2  1  1  1
  1 26  1  0
  1 27  1  0
  1 28  1  0
  2  5  1  0
  2 22  1  0
  2  3  1  0
  3 23  1  0
  3  4  1  0
  3 29  1  6
  4  5  1  0
  4 30  1  0
  4 31  1  0
  5  6  1  0
  5 32  1  1
  6 16  1  0
  6 24  1  0
  6  7  1  6
  7  8  1  0
  8 17  2  0
  8  9  1  0
  9 10  2  3
  9 33  1  0
 10 11  1  0
 10 34  1  0
 11 22  1  0
 11 12  2  3
 12 13  1  0
 12 35  1  0
 13 14  2  3
 13 36  1  0
 14 15  1  0
 14 37  1  0
 15 16  2  3
 15 38  1  0
 16 17  1  0
 17 18  1  0
 18 19  1  0
 18 39  1  0
 18 40  1  0
 19 20  1  0
 19 41  1  0
 19 47  1  0
 20 24  1  0
 20 21  1  0
 20 42  1  6
 21 22  1  0
 21 23  1  0
 21 43  1  6
 22 44  1  6
 23 24  1  0
 23 45  1  6
 24 25  1  6
 25 46  1  0
M  CHG  1  19   1
M  END
>  <i_m_ct_stereo_status>  (203) 
1

>  <s_m_source_file>  (203) 
/var/tmp/pbs.5076255.sched01/tmpstc2q6q5/48db17pvb_.sdf

>  <i_m_source_file_index>  (203) 
32

>  <i_lp_mmshare_version>  (203) 
48012

>  <i_f3d_flags>  (203) 
0

>  <s_epik_input>  (203) 
W0NAXTEyM1tDQEhdNFtDQF01KFtDSDNdKVtDQEhdKFtDSDJdNClbQ0BIXTZbQ0BASF03W0NASF0oW0NAQF0zNltPSF0pW05IXVtDSDJdYzhjKE8xKVtjSF1bY0hdYyhbQ0BIXTU3KVtjSF1bY0hdW2NIXVtjSF1jMjg=

>  <s_epik_cmdline>  (203) 
J2VwaWtfcHl0aG9uJywgJy1waHQnLCAnMi4wJywgJy1waCcsICc3LjAnLCAnLXRuJywgJzgnLCAnLW1hJywgJzIwMCcsICctaW1hZScsICc8aW5maWxlLm1hZT4nLCAnLW9tYWUnLCAnPG91dGZpbGUubWFlPic=

>  <r_epik_Ionization_Penalty>  (203) 
1.07147

>  <r_epik_Ionization_Penalty_Charging>  (203) 
1.07144

>  <r_epik_Ionization_Penalty_Neutral>  (203) 
2.17114e-05

>  <r_epik_State_Penalty>  (203) 
1.12606

>  <r_epik_Charging_Adjusted_Penalty>  (203) 
2.1975

>  <i_epik_Tot_Q>  (203) 
1

>  <i_epik_Tot_abs_Q>  (203) 
1

>  <s_lp_Force_Field>  (203) 
OPLS3e

>  <r_lp_Energy>  (203) 
379.214

>  <b_lp_Chiralities_Consistent>  (203) 
1

>  <s_lp_Variant>  (203) 
43:0-2

>  <s_i_glide_gridfile>  (203) 
pfpi4k_grid

>  <i_i_glide_lignum>  (203) 
32

>  <i_i_glide_rotatable_bonds>  (203) 
1

>  <r_i_docking_score>  (203) 
-3.6435

>  <r_i_glide_ligand_efficiency>  (203) 
-0.14574

>  <r_i_glide_ligand_efficiency_sa>  (203) 
-0.426147

>  <r_i_glide_ligand_efficiency_ln>  (203) 
-0.86362

>  <r_i_glide_gscore>  (203) 
-3.6435

>  <r_i_glide_lipo>  (203) 
0

>  <r_i_glide_hbond>  (203) 
-0.00559423

>  <r_i_glide_metal>  (203) 
-0

>  <r_i_glide_rewards>  (203) 
-1.14262

>  <r_i_glide_evdw>  (203) 
-13.9861

>  <r_i_glide_ecoul>  (203) 
-11.4684

>  <r_i_glide_erotb>  (203) 
0

>  <r_i_glide_esite>  (203) 
-0.0757228

>  <r_i_glide_emodel>  (203) 
-33.5935

>  <r_i_glide_energy>  (203) 
-25.4545

>  <r_i_glide_einternal>  (203) 
0.458356

>  <r_i_glide_intrahb_reward>  (203) 
-0

>  <i_i_glide_confnum>  (203) 
2

>  <i_i_glide_posenum>  (203) 
1

>  <r_i_glide_eff_state_penalty>  (203) 
0

>  <ligand_id>  (203) 
43

>  <original_smiles>  (203) 
CC12C3CC1C14Oc5ccc6ccccc1c5CNC1C(C62)C3C14O

>  <smiles>  (203) 
[H]OC12C34Oc5c([H])c([H])c6c([H])c([H])c([H])c([H])c3c5C([H])([H])[N+]([H])([H])C1([H])C1([H])C6([H])C3(C([H])([H])[H])C4([H])C([H])([H])C3([H])C12[H]

$$$$
43:1:2
     RDKit          3D

 47 54  0  0  1  0  0  0  0  0999 V2000
    2.8444    3.3397    7.8524 C   0  0  0  0  0  0  0  0  0  0  0  0
    2.0407    3.3458    6.5299 C   0  0  2  0  0  0  0  0  0  0  0  0
    2.4523    4.4672    5.5868 C   0  0  2  0  0  0  0  0  0  0  0  0
    1.4603    5.3880    6.2899 C   0  0  0  0  0  0  0  0  0  0  0  0
    0.6259    4.1113    6.4595 C   0  0  1  0  0  0  0  0  0  0  0  0
   -0.3033    3.7387    5.2311 C   0  0  1  0  0  0  0  0  0  0  0  0
   -0.1310    2.4081    5.2898 O   0  0  0  0  0  0  0  0  0  0  0  0
   -1.0033    1.5432    4.7379 C   0  0  0  0  0  0  0  0  0  0  0  0
   -0.4156    0.2306    4.5222 C   0  0  0  0  0  0  0  0  0  0  0  0
    0.6680   -0.1011    5.2844 C   0  0  0  0  0  0  0  0  0  0  0  0
    1.2617    0.7807    6.3226 C   0  0  0  0  0  0  0  0  0  0  0  0
    0.5316    1.0511    7.4785 C   0  0  0  0  0  0  0  0  0  0  0  0
   -0.9561    1.1113    7.5115 C   0  0  0  0  0  0  0  0  0  0  0  0
   -1.5874    2.3342    7.5917 C   0  0  0  0  0  0  0  0  0  0  0  0
   -2.3633    2.9841    6.4671 C   0  0  0  0  0  0  0  0  0  0  0  0
   -1.7972    3.3899    5.2448 C   0  0  0  0  0  0  0  0  0  0  0  0
   -1.8912    2.3456    4.1993 C   0  0  0  0  0  0  0  0  0  0  0  0
   -1.5658    2.5443    2.7167 C   0  0  0  0  0  0  0  0  0  0  0  0
   -0.1382    2.1209    2.3886 N   0  0  0  0  0  0  0  0  0  0  0  0
    0.9923    2.8916    3.0274 C   0  0  2  0  0  0  0  0  0  0  0  0
    2.1104    2.4147    4.1294 C   0  0  2  0  0  0  0  0  0  0  0  0
    2.2085    1.9585    5.7439 C   0  0  1  0  0  0  0  0  0  0  0  0
    2.1100    3.9868    4.2040 C   0  0  1  0  0  0  0  0  0  0  0  0
    0.5598    4.0206    3.9367 C   0  0  2  0  0  0  0  0  0  0  0  0
    0.0726    5.1720    3.2824 O   0  0  0  0  0  0  0  0  0  0  0  0
    2.8611    2.3772    8.3597 H   0  0  0  0  0  0  0  0  0  0  0  0
    2.4636    4.0682    8.5666 H   0  0  0  0  0  0  0  0  0  0  0  0
    3.8934    3.5847    7.6840 H   0  0  0  0  0  0  0  0  0  0  0  0
    3.4931    4.7637    5.6971 H   0  0  0  0  0  0  0  0  0  0  0  0
    1.8357    5.8294    7.2149 H   0  0  0  0  0  0  0  0  0  0  0  0
    1.0250    6.1407    5.6299 H   0  0  0  0  0  0  0  0  0  0  0  0
    0.1483    4.2076    7.4193 H   0  0  0  0  0  0  0  0  0  0  0  0
   -0.8151   -0.4546    3.7886 H   0  0  0  0  0  0  0  0  0  0  0  0
    1.1100   -1.0697    5.1355 H   0  0  0  0  0  0  0  0  0  0  0  0
    0.9249    1.7451    8.1939 H   0  0  0  0  0  0  0  0  0  0  0  0
   -1.4255    0.3930    6.8626 H   0  0  0  0  0  0  0  0  0  0  0  0
   -1.1595    3.0185    8.3068 H   0  0  0  0  0  0  0  0  0  0  0  0
   -3.3475    2.5575    6.3958 H   0  0  0  0  0  0  0  0  0  0  0  0
   -2.2633    1.9687    2.1172 H   0  0  0  0  0  0  0  0  0  0  0  0
   -1.7409    3.5853    2.4322 H   0  0  0  0  0  0  0  0  0  0  0  0
   -0.0268    1.1287    2.5224 H   0  0  0  0  0  0  0  0  0  0  0  0
    1.5265    3.2602    2.1376 H   0  0  0  0  0  0  0  0  0  0  0  0
    2.9714    2.0429    3.5764 H   0  0  0  0  0  0  0  0  0  0  0  0
    3.2222    1.5886    5.9141 H   0  0  0  0  0  0  0  0  0  0  0  0
    2.7175    4.4732    3.4343 H   0  0  0  0  0  0  0  0  0  0  0  0
    0.2238    5.0537    2.3379 H   0  0  0  0  0  0  0  0  0  0  0  0
   -0.0582    2.3385    1.4019 H   0  0  0  0  0  0  0  0  0  0  0  0
  2  1  1  1
  1 26  1  0
  1 27  1  0
  1 28  1  0
  2  5  1  0
  2 22  1  0
  2  3  1  0
  3 23  1  0
  3  4  1  0
  3 29  1  6
  4  5  1  0
  4 30  1  0
  4 31  1  0
  5  6  1  0
  5 32  1  1
  6 16  1  0
  6 24  1  0
  6  7  1  1
  7  8  1  0
  8 17  2  0
  8  9  1  0
  9 10  2  3
  9 33  1  0
 10 11  1  0
 10 34  1  0
 11 22  1  0
 11 12  2  3
 12 13  1  0
 12 35  1  0
 13 14  2  3
 13 36  1  0
 14 15  1  0
 14 37  1  0
 15 16  2  3
 15 38  1  0
 16 17  1  0
 17 18  1  0
 18 19  1  0
 18 39  1  0
 18 40  1  0
 19 20  1  0
 19 41  1  0
 19 47  1  0
 20 24  1  0
 20 21  1  0
 20 42  1  6
 21 22  1  0
 21 23  1  0
 21 43  1  6
 22 44  1  6
 23 24  1  0
 23 45  1  6
 24 25  1  6
 25 46  1  0
M  CHG  1  19   1
M  END
>  <i_m_ct_stereo_status>  (204) 
1

>  <s_m_source_file>  (204) 
/var/tmp/pbs.5076255.sched01/tmpstc2q6q5/48db17pvb_.sdf

>  <i_m_source_file_index>  (204) 
32

>  <i_lp_mmshare_version>  (204) 
48012

>  <i_f3d_flags>  (204) 
0

>  <s_epik_input>  (204) 
W0NAXTEyM1tDQEhdNFtDQF01KFtDSDNdKVtDQEhdKFtDSDJdNClbQ0BIXTZbQ0BASF03W0NASF0oW0NAQF0zNltPSF0pW05IXVtDSDJdYzhjKE8xKVtjSF1bY0hdYyhbQ0BIXTU3KVtjSF1bY0hdW2NIXVtjSF1jMjg=

>  <s_epik_cmdline>  (204) 
J2VwaWtfcHl0aG9uJywgJy1waHQnLCAnMi4wJywgJy1waCcsICc3LjAnLCAnLXRuJywgJzgnLCAnLW1hJywgJzIwMCcsICctaW1hZScsICc8aW5maWxlLm1hZT4nLCAnLW9tYWUnLCAnPG91dGZpbGUubWFlPic=

>  <r_epik_Ionization_Penalty>  (204) 
1.07147

>  <r_epik_Ionization_Penalty_Charging>  (204) 
1.07144

>  <r_epik_Ionization_Penalty_Neutral>  (204) 
2.17114e-05

>  <r_epik_State_Penalty>  (204) 
1.12606

>  <r_epik_Charging_Adjusted_Penalty>  (204) 
2.1975

>  <i_epik_Tot_Q>  (204) 
1

>  <i_epik_Tot_abs_Q>  (204) 
1

>  <s_lp_Force_Field>  (204) 
OPLS3e

>  <r_lp_Energy>  (204) 
379.214

>  <b_lp_Chiralities_Consistent>  (204) 
1

>  <s_lp_Variant>  (204) 
43:0-2

>  <s_i_glide_gridfile>  (204) 
pfpi4k_grid

>  <i_i_glide_lignum>  (204) 
32

>  <i_i_glide_rotatable_bonds>  (204) 
1

>  <r_i_docking_score>  (204) 
-3.63144

>  <r_i_glide_ligand_efficiency>  (204) 
-0.145258

>  <r_i_glide_ligand_efficiency_sa>  (204) 
-0.424736

>  <r_i_glide_ligand_efficiency_ln>  (204) 
-0.86076

>  <r_i_glide_gscore>  (204) 
-3.63144

>  <r_i_glide_lipo>  (204) 
-0.121451

>  <r_i_glide_hbond>  (204) 
-0.0766046

>  <r_i_glide_metal>  (204) 
-0

>  <r_i_glide_rewards>  (204) 
-1.14262

>  <r_i_glide_evdw>  (204) 
-16.0026

>  <r_i_glide_ecoul>  (204) 
-9.27089

>  <r_i_glide_erotb>  (204) 
0

>  <r_i_glide_esite>  (204) 
-0.1

>  <r_i_glide_emodel>  (204) 
-33.4124

>  <r_i_glide_energy>  (204) 
-25.2735

>  <r_i_glide_einternal>  (204) 
0.530169

>  <r_i_glide_intrahb_reward>  (204) 
-0

>  <i_i_glide_confnum>  (204) 
1

>  <i_i_glide_posenum>  (204) 
19

>  <r_i_glide_eff_state_penalty>  (204) 
0

>  <ligand_id>  (204) 
43

>  <original_smiles>  (204) 
CC12C3CC1C14Oc5ccc6ccccc1c5CNC1C(C62)C3C14O

>  <smiles>  (204) 
[H]OC12C34Oc5c([H])c([H])c6c([H])c([H])c([H])c([H])c3c5C([H])([H])[N+]([H])([H])C1([H])C1([H])C6([H])C3(C([H])([H])[H])C4([H])C([H])([H])C3([H])C12[H]

$$$$
44:0:0
     RDKit          3D

 24 24  0  0  1  0  0  0  0  0999 V2000
    3.7887   -0.5193   -3.3370 C   0  0  0  0  0  0  0  0  0  0  0  0
    4.1299   -1.4674   -2.4518 C   0  0  0  0  0  0  0  0  0  0  0  0
    3.3673   -2.7747   -2.3253 C   0  0  1  0  0  0  0  0  0  0  0  0
    4.1342   -3.7983   -2.9377 O   0  0  0  0  0  0  0  0  0  0  0  0
    3.0447   -3.1062   -0.8401 C   0  0  1  0  0  0  0  0  0  0  0  0
    2.3015   -4.2964   -0.6994 O   0  0  0  0  0  0  0  0  0  0  0  0
    4.2533   -3.0387    0.1136 C   0  0  1  0  0  0  0  0  0  0  0  0
    5.1774   -4.0880   -0.1549 O   0  0  0  0  0  0  0  0  0  0  0  0
    4.9401   -1.6568   -0.0394 C   0  0  1  0  0  0  0  0  0  0  0  0
    6.0901   -1.5978    0.7796 O   0  0  0  0  0  0  0  0  0  0  0  0
    5.3090   -1.3015   -1.4982 C   0  0  1  0  0  0  0  0  0  0  0  0
    6.3731   -2.1344   -1.9115 O   0  0  0  0  0  0  0  0  0  0  0  0
    4.3283    0.4017   -3.4157 H   0  0  0  0  0  0  0  0  0  0  0  0
    2.9457   -0.6521   -4.0024 H   0  0  0  0  0  0  0  0  0  0  0  0
    2.4184   -2.6847   -2.8645 H   0  0  0  0  0  0  0  0  0  0  0  0
    3.6614   -4.6191   -2.8797 H   0  0  0  0  0  0  0  0  0  0  0  0
    2.3794   -2.3345   -0.4682 H   0  0  0  0  0  0  0  0  0  0  0  0
    2.6576   -4.9540   -1.2943 H   0  0  0  0  0  0  0  0  0  0  0  0
    3.9168   -3.1529    1.1444 H   0  0  0  0  0  0  0  0  0  0  0  0
    4.6795   -4.8782   -0.2741 H   0  0  0  0  0  0  0  0  0  0  0  0
    4.2477   -0.8905    0.3261 H   0  0  0  0  0  0  0  0  0  0  0  0
    6.6285   -2.3371    0.5345 H   0  0  0  0  0  0  0  0  0  0  0  0
    5.6454   -0.2641   -1.5338 H   0  0  0  0  0  0  0  0  0  0  0  0
    6.0627   -3.0305   -1.8800 H   0  0  0  0  0  0  0  0  0  0  0  0
  1  2  2  0
  1 13  1  0
  1 14  1  0
  2 11  1  0
  2  3  1  0
  3  4  1  0
  3  5  1  0
  3 15  1  6
  4 16  1  0
  5  6  1  0
  5  7  1  0
  5 17  1  1
  6 18  1  0
  7  8  1  0
  7  9  1  0
  7 19  1  1
  8 20  1  0
  9 10  1  0
  9 11  1  0
  9 21  1  1
 10 22  1  0
 11 12  1  0
 11 23  1  1
 12 24  1  0
M  END
>  <i_m_ct_stereo_status>  (205) 
1

>  <s_m_source_file>  (205) 
/var/tmp/pbs.5076255.sched01/tmpstc2q6q5/48db17pvb_.sdf

>  <i_m_source_file_index>  (205) 
33

>  <i_lp_mmshare_version>  (205) 
48012

>  <i_f3d_flags>  (205) 
0

>  <s_epik_input>  (205) 
W0NIMl09QzFbQ0BASF0oW09IXSlbQ0BASF0oW09IXSlbQ0BASF0oW09IXSlbQ0BASF0oW09IXSlbQ0BIXTFbT0hd

>  <s_epik_cmdline>  (205) 
J2VwaWtfcHl0aG9uJywgJy1waHQnLCAnMi4wJywgJy1waCcsICc3LjAnLCAnLXRuJywgJzgnLCAnLW1hJywgJzIwMCcsICctaW1hZScsICc8aW5maWxlLm1hZT4nLCAnLW9tYWUnLCAnPG91dGZpbGUubWFlPic=

>  <r_lp_tautomer_probability>  (205) 
1

>  <r_epik_Ionization_Penalty>  (205) 
8.54283e-07

>  <r_epik_Ionization_Penalty_Charging>  (205) 
0

>  <r_epik_Ionization_Penalty_Neutral>  (205) 
8.54283e-07

>  <r_epik_State_Penalty>  (205) 
-0

>  <r_epik_Charging_Adjusted_Penalty>  (205) 
0

>  <i_epik_Tot_Q>  (205) 
0

>  <i_epik_Tot_abs_Q>  (205) 
0

>  <s_lp_Force_Field>  (205) 
OPLS3e

>  <r_lp_Energy>  (205) 
20.2564

>  <b_lp_Chiralities_Consistent>  (205) 
1

>  <s_lp_Variant>  (205) 
44:0-1

>  <s_i_glide_gridfile>  (205) 
pfpi4k_grid

>  <i_i_glide_lignum>  (205) 
33

>  <i_i_glide_rotatable_bonds>  (205) 
5

>  <r_i_docking_score>  (205) 
-6.15789

>  <r_i_glide_ligand_efficiency>  (205) 
-0.513158

>  <r_i_glide_ligand_efficiency_sa>  (205) 
-1.17484

>  <r_i_glide_ligand_efficiency_ln>  (205) 
-1.76702

>  <r_i_glide_gscore>  (205) 
-6.15789

>  <r_i_glide_lipo>  (205) 
-0.207165

>  <r_i_glide_hbond>  (205) 
0

>  <r_i_glide_metal>  (205) 
-0

>  <r_i_glide_rewards>  (205) 
-3.20795

>  <r_i_glide_evdw>  (205) 
-14.5471

>  <r_i_glide_ecoul>  (205) 
-13.4361

>  <r_i_glide_erotb>  (205) 
0

>  <r_i_glide_esite>  (205) 
0

>  <r_i_glide_emodel>  (205) 
-48.7435

>  <r_i_glide_energy>  (205) 
-27.9832

>  <r_i_glide_einternal>  (205) 
1.58157

>  <r_i_glide_intrahb_reward>  (205) 
-1

>  <i_i_glide_confnum>  (205) 
3

>  <i_i_glide_posenum>  (205) 
21

>  <r_i_glide_eff_state_penalty>  (205) 
0

>  <ligand_id>  (205) 
44

>  <original_smiles>  (205) 
C=C1C(O)C(O)C(O)C(O)C1O

>  <smiles>  (205) 
[H]OC1([H])C(=C([H])[H])C([H])(O[H])C([H])(O[H])C([H])(O[H])C1([H])O[H]

$$$$
44:0:1
     RDKit          3D

 24 24  0  0  1  0  0  0  0  0999 V2000
    3.9355   -0.6133   -2.7535 C   0  0  0  0  0  0  0  0  0  0  0  0
    4.2448   -1.5303   -1.8301 C   0  0  0  0  0  0  0  0  0  0  0  0
    3.5354   -2.8806   -1.7781 C   0  0  1  0  0  0  0  0  0  0  0  0
    4.4301   -3.8547   -2.2663 O   0  0  0  0  0  0  0  0  0  0  0  0
    3.0800   -3.2505   -0.3429 C   0  0  1  0  0  0  0  0  0  0  0  0
    2.4314   -4.5104   -0.3221 O   0  0  0  0  0  0  0  0  0  0  0  0
    4.2074   -3.1370    0.7125 C   0  0  1  0  0  0  0  0  0  0  0  0
    5.1722   -4.1399    0.4861 O   0  0  0  0  0  0  0  0  0  0  0  0
    4.8453   -1.7202    0.6370 C   0  0  1  0  0  0  0  0  0  0  0  0
    5.8614   -1.5201    1.6030 O   0  0  0  0  0  0  0  0  0  0  0  0
    5.3221   -1.2990   -0.7793 C   0  0  1  0  0  0  0  0  0  0  0  0
    6.5300   -1.9150   -1.1651 O   0  0  0  0  0  0  0  0  0  0  0  0
    4.4483    0.3329   -2.7751 H   0  0  0  0  0  0  0  0  0  0  0  0
    3.1714   -0.7725   -3.4965 H   0  0  0  0  0  0  0  0  0  0  0  0
    2.6613   -2.8490   -2.4329 H   0  0  0  0  0  0  0  0  0  0  0  0
    3.9427   -4.6680   -2.4541 H   0  0  0  0  0  0  0  0  0  0  0  0
    2.3020   -2.5465   -0.0421 H   0  0  0  0  0  0  0  0  0  0  0  0
    2.9563   -5.1313   -0.8223 H   0  0  0  0  0  0  0  0  0  0  0  0
    3.7919   -3.2995    1.7152 H   0  0  0  0  0  0  0  0  0  0  0  0
    5.2670   -4.2149   -0.4645 H   0  0  0  0  0  0  0  0  0  0  0  0
    4.0538   -1.0215    0.9111 H   0  0  0  0  0  0  0  0  0  0  0  0
    5.5415   -1.8223    2.4543 H   0  0  0  0  0  0  0  0  0  0  0  0
    5.5641   -0.2426   -0.7457 H   0  0  0  0  0  0  0  0  0  0  0  0
    6.3888   -2.8667   -1.1400 H   0  0  0  0  0  0  0  0  0  0  0  0
  1  2  2  0
  1 13  1  0
  1 14  1  0
  2 11  1  0
  2  3  1  0
  3  4  1  0
  3  5  1  0
  3 15  1  6
  4 16  1  0
  5  6  1  0
  5  7  1  0
  5 17  1  1
  6 18  1  0
  7  8  1  0
  7  9  1  0
  7 19  1  1
  8 20  1  0
  9 10  1  0
  9 11  1  0
  9 21  1  1
 10 22  1  0
 11 12  1  0
 11 23  1  1
 12 24  1  0
M  END
>  <i_m_ct_stereo_status>  (206) 
1

>  <s_m_source_file>  (206) 
/var/tmp/pbs.5076255.sched01/tmpstc2q6q5/48db17pvb_.sdf

>  <i_m_source_file_index>  (206) 
33

>  <i_lp_mmshare_version>  (206) 
48012

>  <i_f3d_flags>  (206) 
0

>  <s_epik_input>  (206) 
W0NIMl09QzFbQ0BASF0oW09IXSlbQ0BASF0oW09IXSlbQ0BASF0oW09IXSlbQ0BASF0oW09IXSlbQ0BIXTFbT0hd

>  <s_epik_cmdline>  (206) 
J2VwaWtfcHl0aG9uJywgJy1waHQnLCAnMi4wJywgJy1waCcsICc3LjAnLCAnLXRuJywgJzgnLCAnLW1hJywgJzIwMCcsICctaW1hZScsICc8aW5maWxlLm1hZT4nLCAnLW9tYWUnLCAnPG91dGZpbGUubWFlPic=

>  <r_lp_tautomer_probability>  (206) 
1

>  <r_epik_Ionization_Penalty>  (206) 
8.54283e-07

>  <r_epik_Ionization_Penalty_Charging>  (206) 
0

>  <r_epik_Ionization_Penalty_Neutral>  (206) 
8.54283e-07

>  <r_epik_State_Penalty>  (206) 
-0

>  <r_epik_Charging_Adjusted_Penalty>  (206) 
0

>  <i_epik_Tot_Q>  (206) 
0

>  <i_epik_Tot_abs_Q>  (206) 
0

>  <s_lp_Force_Field>  (206) 
OPLS3e

>  <r_lp_Energy>  (206) 
20.2564

>  <b_lp_Chiralities_Consistent>  (206) 
1

>  <s_lp_Variant>  (206) 
44:0-1

>  <s_i_glide_gridfile>  (206) 
pfpi4k_grid

>  <i_i_glide_lignum>  (206) 
33

>  <i_i_glide_rotatable_bonds>  (206) 
5

>  <r_i_docking_score>  (206) 
-5.89046

>  <r_i_glide_ligand_efficiency>  (206) 
-0.490872

>  <r_i_glide_ligand_efficiency_sa>  (206) 
-1.12382

>  <r_i_glide_ligand_efficiency_ln>  (206) 
-1.69028

>  <r_i_glide_gscore>  (206) 
-5.89046

>  <r_i_glide_lipo>  (206) 
-0.145575

>  <r_i_glide_hbond>  (206) 
0

>  <r_i_glide_metal>  (206) 
-0

>  <r_i_glide_rewards>  (206) 
-3.20795

>  <r_i_glide_evdw>  (206) 
-14.824

>  <r_i_glide_ecoul>  (206) 
-11.9716

>  <r_i_glide_erotb>  (206) 
0

>  <r_i_glide_esite>  (206) 
0

>  <r_i_glide_emodel>  (206) 
-46.9485

>  <r_i_glide_energy>  (206) 
-26.7956

>  <r_i_glide_einternal>  (206) 
1.51249

>  <r_i_glide_intrahb_reward>  (206) 
-1

>  <i_i_glide_confnum>  (206) 
3

>  <i_i_glide_posenum>  (206) 
9

>  <r_i_glide_eff_state_penalty>  (206) 
0

>  <ligand_id>  (206) 
44

>  <original_smiles>  (206) 
C=C1C(O)C(O)C(O)C(O)C1O

>  <smiles>  (206) 
[H]OC1([H])C(=C([H])[H])C([H])(O[H])C([H])(O[H])C([H])(O[H])C1([H])O[H]

$$$$
44:0:2
     RDKit          3D

 24 24  0  0  1  0  0  0  0  0999 V2000
    3.6765   -0.2616   -3.1819 C   0  0  0  0  0  0  0  0  0  0  0  0
    3.9035   -1.4409   -2.5759 C   0  0  0  0  0  0  0  0  0  0  0  0
    2.8566   -2.5565   -2.5534 C   0  0  1  0  0  0  0  0  0  0  0  0
    3.2188   -3.4542   -3.5837 O   0  0  0  0  0  0  0  0  0  0  0  0
    2.7164   -3.2010   -1.1422 C   0  0  1  0  0  0  0  0  0  0  0  0
    1.7696   -4.2488   -1.1088 O   0  0  0  0  0  0  0  0  0  0  0  0
    4.0506   -3.5822   -0.4593 C   0  0  1  0  0  0  0  0  0  0  0  0
    4.6698   -4.6697   -1.1042 O   0  0  0  0  0  0  0  0  0  0  0  0
    5.0134   -2.3656   -0.4737 C   0  0  1  0  0  0  0  0  0  0  0  0
    6.2649   -2.7195    0.0706 O   0  0  0  0  0  0  0  0  0  0  0  0
    5.2350   -1.7584   -1.8741 C   0  0  1  0  0  0  0  0  0  0  0  0
    5.9697   -2.6620   -2.6657 O   0  0  0  0  0  0  0  0  0  0  0  0
    4.4178    0.5131   -3.1999 H   0  0  0  0  0  0  0  0  0  0  0  0
    2.7410   -0.0640   -3.6575 H   0  0  0  0  0  0  0  0  0  0  0  0
    1.8936   -2.1442   -2.8194 H   0  0  0  0  0  0  0  0  0  0  0  0
    3.0070   -4.3431   -3.3110 H   0  0  0  0  0  0  0  0  0  0  0  0
    2.2705   -2.4397   -0.5017 H   0  0  0  0  0  0  0  0  0  0  0  0
    2.0343   -4.9598   -1.7056 H   0  0  0  0  0  0  0  0  0  0  0  0
    3.8625   -3.8713    0.5960 H   0  0  0  0  0  0  0  0  0  0  0  0
    4.0177   -5.2525   -1.5109 H   0  0  0  0  0  0  0  0  0  0  0  0
    4.6038   -1.5892    0.1627 H   0  0  0  0  0  0  0  0  0  0  0  0
    6.5921   -3.4592   -0.4452 H   0  0  0  0  0  0  0  0  0  0  0  0
    5.8035   -0.8419   -1.7959 H   0  0  0  0  0  0  0  0  0  0  0  0
    5.4918   -3.4940   -2.6857 H   0  0  0  0  0  0  0  0  0  0  0  0
  1  2  2  0
  1 13  1  0
  1 14  1  0
  2 11  1  0
  2  3  1  0
  3  4  1  0
  3  5  1  0
  3 15  1  6
  4 16  1  0
  5  6  1  0
  5  7  1  0
  5 17  1  1
  6 18  1  0
  7  8  1  0
  7  9  1  0
  7 19  1  1
  8 20  1  0
  9 10  1  0
  9 11  1  0
  9 21  1  1
 10 22  1  0
 11 12  1  0
 11 23  1  1
 12 24  1  0
M  END
>  <i_m_ct_stereo_status>  (207) 
1

>  <s_m_source_file>  (207) 
/var/tmp/pbs.5076255.sched01/tmpstc2q6q5/48db17pvb_.sdf

>  <i_m_source_file_index>  (207) 
33

>  <i_lp_mmshare_version>  (207) 
48012

>  <i_f3d_flags>  (207) 
0

>  <s_epik_input>  (207) 
W0NIMl09QzFbQ0BASF0oW09IXSlbQ0BASF0oW09IXSlbQ0BASF0oW09IXSlbQ0BASF0oW09IXSlbQ0BIXTFbT0hd

>  <s_epik_cmdline>  (207) 
J2VwaWtfcHl0aG9uJywgJy1waHQnLCAnMi4wJywgJy1waCcsICc3LjAnLCAnLXRuJywgJzgnLCAnLW1hJywgJzIwMCcsICctaW1hZScsICc8aW5maWxlLm1hZT4nLCAnLW9tYWUnLCAnPG91dGZpbGUubWFlPic=

>  <r_lp_tautomer_probability>  (207) 
1

>  <r_epik_Ionization_Penalty>  (207) 
8.54283e-07

>  <r_epik_Ionization_Penalty_Charging>  (207) 
0

>  <r_epik_Ionization_Penalty_Neutral>  (207) 
8.54283e-07

>  <r_epik_State_Penalty>  (207) 
-0

>  <r_epik_Charging_Adjusted_Penalty>  (207) 
0

>  <i_epik_Tot_Q>  (207) 
0

>  <i_epik_Tot_abs_Q>  (207) 
0

>  <s_lp_Force_Field>  (207) 
OPLS3e

>  <r_lp_Energy>  (207) 
20.2564

>  <b_lp_Chiralities_Consistent>  (207) 
1

>  <s_lp_Variant>  (207) 
44:0-1

>  <s_i_glide_gridfile>  (207) 
pfpi4k_grid

>  <i_i_glide_lignum>  (207) 
33

>  <i_i_glide_rotatable_bonds>  (207) 
5

>  <r_i_docking_score>  (207) 
-5.87859

>  <r_i_glide_ligand_efficiency>  (207) 
-0.489883

>  <r_i_glide_ligand_efficiency_sa>  (207) 
-1.12155

>  <r_i_glide_ligand_efficiency_ln>  (207) 
-1.68687

>  <r_i_glide_gscore>  (207) 
-5.87859

>  <r_i_glide_lipo>  (207) 
-0.157165

>  <r_i_glide_hbond>  (207) 
0

>  <r_i_glide_metal>  (207) 
-0

>  <r_i_glide_rewards>  (207) 
-2.70795

>  <r_i_glide_evdw>  (207) 
-14.913

>  <r_i_glide_ecoul>  (207) 
-15.1188

>  <r_i_glide_erotb>  (207) 
0

>  <r_i_glide_esite>  (207) 
0

>  <r_i_glide_emodel>  (207) 
-44.4006

>  <r_i_glide_energy>  (207) 
-30.0319

>  <r_i_glide_einternal>  (207) 
2.01414

>  <r_i_glide_intrahb_reward>  (207) 
-0.5

>  <i_i_glide_confnum>  (207) 
1

>  <i_i_glide_posenum>  (207) 
37

>  <r_i_glide_eff_state_penalty>  (207) 
0

>  <ligand_id>  (207) 
44

>  <original_smiles>  (207) 
C=C1C(O)C(O)C(O)C(O)C1O

>  <smiles>  (207) 
[H]OC1([H])C(=C([H])[H])C([H])(O[H])C([H])(O[H])C([H])(O[H])C1([H])O[H]

$$$$
44:1:0
     RDKit          3D

 24 24  0  0  1  0  0  0  0  0999 V2000
    3.8010   -0.5310   -3.6299 C   0  0  0  0  0  0  0  0  0  0  0  0
    4.0015   -1.6349   -2.8850 C   0  0  0  0  0  0  0  0  0  0  0  0
    2.9575   -2.7410   -2.7889 C   0  0  1  0  0  0  0  0  0  0  0  0
    3.4135   -3.8047   -3.5976 O   0  0  0  0  0  0  0  0  0  0  0  0
    2.7217   -3.1624   -1.3080 C   0  0  1  0  0  0  0  0  0  0  0  0
    1.8019   -4.2309   -1.1841 O   0  0  0  0  0  0  0  0  0  0  0  0
    4.0282   -3.4973   -0.5551 C   0  0  2  0  0  0  0  0  0  0  0  0
    3.7489   -3.7487    0.8141 O   0  0  0  0  0  0  0  0  0  0  0  0
    4.9758   -2.2833   -0.6201 C   0  0  1  0  0  0  0  0  0  0  0  0
    6.1859   -2.5378    0.0694 O   0  0  0  0  0  0  0  0  0  0  0  0
    5.2695   -1.8645   -2.0726 C   0  0  1  0  0  0  0  0  0  0  0  0
    6.0601   -2.8634   -2.6881 O   0  0  0  0  0  0  0  0  0  0  0  0
    4.5364    0.2538   -3.6762 H   0  0  0  0  0  0  0  0  0  0  0  0
    2.8996   -0.3962   -4.2068 H   0  0  0  0  0  0  0  0  0  0  0  0
    2.0179   -2.3888   -3.2105 H   0  0  0  0  0  0  0  0  0  0  0  0
    3.0516   -4.6232   -3.2711 H   0  0  0  0  0  0  0  0  0  0  0  0
    2.2661   -2.3072   -0.8060 H   0  0  0  0  0  0  0  0  0  0  0  0
    2.1524   -4.9778   -1.6708 H   0  0  0  0  0  0  0  0  0  0  0  0
    4.5008   -4.3864   -0.9857 H   0  0  0  0  0  0  0  0  0  0  0  0
    3.2608   -3.0141    1.1582 H   0  0  0  0  0  0  0  0  0  0  0  0
    4.4949   -1.4452   -0.1152 H   0  0  0  0  0  0  0  0  0  0  0  0
    5.9636   -2.9269    0.9036 H   0  0  0  0  0  0  0  0  0  0  0  0
    5.8217   -0.9277   -2.0499 H   0  0  0  0  0  0  0  0  0  0  0  0
    5.5598   -3.6690   -2.7418 H   0  0  0  0  0  0  0  0  0  0  0  0
  1  2  2  0
  1 13  1  0
  1 14  1  0
  2 11  1  0
  2  3  1  0
  3  4  1  0
  3  5  1  0
  3 15  1  6
  4 16  1  0
  5  6  1  0
  5  7  1  0
  5 17  1  1
  6 18  1  0
  7  8  1  0
  7  9  1  0
  7 19  1  6
  8 20  1  0
  9 10  1  0
  9 11  1  0
  9 21  1  1
 10 22  1  0
 11 12  1  0
 11 23  1  1
 12 24  1  0
M  END
>  <i_m_ct_stereo_status>  (208) 
1

>  <s_m_source_file>  (208) 
/var/tmp/pbs.5076255.sched01/tmpstc2q6q5/48db17pvb_.sdf

>  <i_m_source_file_index>  (208) 
34

>  <i_lp_mmshare_version>  (208) 
48012

>  <i_f3d_flags>  (208) 
0

>  <s_epik_input>  (208) 
W0NIMl09QzFbQ0BASF0oW09IXSlbQ0BASF0oW09IXSlbQ0BASF0oW09IXSlbQ0BASF0oW09IXSlbQ0BIXTFbT0hd

>  <s_epik_cmdline>  (208) 
J2VwaWtfcHl0aG9uJywgJy1waHQnLCAnMi4wJywgJy1waCcsICc3LjAnLCAnLXRuJywgJzgnLCAnLW1hJywgJzIwMCcsICctaW1hZScsICc8aW5maWxlLm1hZT4nLCAnLW9tYWUnLCAnPG91dGZpbGUubWFlPic=

>  <r_lp_tautomer_probability>  (208) 
1

>  <r_epik_Ionization_Penalty>  (208) 
8.54283e-07

>  <r_epik_Ionization_Penalty_Charging>  (208) 
0

>  <r_epik_Ionization_Penalty_Neutral>  (208) 
8.54283e-07

>  <r_epik_State_Penalty>  (208) 
-0

>  <r_epik_Charging_Adjusted_Penalty>  (208) 
0

>  <i_epik_Tot_Q>  (208) 
0

>  <i_epik_Tot_abs_Q>  (208) 
0

>  <s_lp_Force_Field>  (208) 
OPLS3e

>  <r_lp_Energy>  (208) 
20.7465

>  <b_lp_Chiralities_Consistent>  (208) 
1

>  <s_lp_Variant>  (208) 
44:0-2

>  <s_i_glide_gridfile>  (208) 
pfpi4k_grid

>  <i_i_glide_lignum>  (208) 
34

>  <i_i_glide_rotatable_bonds>  (208) 
5

>  <r_i_docking_score>  (208) 
-5.68064

>  <r_i_glide_ligand_efficiency>  (208) 
-0.473387

>  <r_i_glide_ligand_efficiency_sa>  (208) 
-1.08378

>  <r_i_glide_ligand_efficiency_ln>  (208) 
-1.63007

>  <r_i_glide_gscore>  (208) 
-5.68064

>  <r_i_glide_lipo>  (208) 
-0.30238

>  <r_i_glide_hbond>  (208) 
0

>  <r_i_glide_metal>  (208) 
-0

>  <r_i_glide_rewards>  (208) 
-2.70795

>  <r_i_glide_evdw>  (208) 
-12.7841

>  <r_i_glide_ecoul>  (208) 
-13.5407

>  <r_i_glide_erotb>  (208) 
0

>  <r_i_glide_esite>  (208) 
0

>  <r_i_glide_emodel>  (208) 
-40.8728

>  <r_i_glide_energy>  (208) 
-26.3248

>  <r_i_glide_einternal>  (208) 
1.15451

>  <r_i_glide_intrahb_reward>  (208) 
-0.5

>  <i_i_glide_confnum>  (208) 
1

>  <i_i_glide_posenum>  (208) 
6

>  <r_i_glide_eff_state_penalty>  (208) 
0

>  <ligand_id>  (208) 
44

>  <original_smiles>  (208) 
C=C1C(O)C(O)C(O)C(O)C1O

>  <smiles>  (208) 
[H]OC1([H])C(=C([H])[H])C([H])(O[H])C([H])(O[H])C([H])(O[H])C1([H])O[H]

$$$$
44:1:1
     RDKit          3D

 24 24  0  0  1  0  0  0  0  0999 V2000
    3.9194   -0.5706   -3.0969 C   0  0  0  0  0  0  0  0  0  0  0  0
    4.2171   -1.5298   -2.2017 C   0  0  0  0  0  0  0  0  0  0  0  0
    3.4696   -2.8639   -2.1505 C   0  0  1  0  0  0  0  0  0  0  0  0
    4.3600   -3.8647   -2.6404 O   0  0  0  0  0  0  0  0  0  0  0  0
    3.0136   -3.2081   -0.7080 C   0  0  1  0  0  0  0  0  0  0  0  0
    2.2786   -4.4150   -0.7009 O   0  0  0  0  0  0  0  0  0  0  0  0
    4.1884   -3.1665    0.2973 C   0  0  2  0  0  0  0  0  0  0  0  0
    3.7232   -3.3688    1.6263 O   0  0  0  0  0  0  0  0  0  0  0  0
    4.8379   -1.7629    0.2552 C   0  0  1  0  0  0  0  0  0  0  0  0
    5.9095   -1.6611    1.1774 O   0  0  0  0  0  0  0  0  0  0  0  0
    5.3203   -1.3678   -1.1536 C   0  0  1  0  0  0  0  0  0  0  0  0
    6.4525   -2.1403   -1.5153 O   0  0  0  0  0  0  0  0  0  0  0  0
    4.4526    0.3647   -3.1052 H   0  0  0  0  0  0  0  0  0  0  0  0
    3.1586   -0.7051   -3.8439 H   0  0  0  0  0  0  0  0  0  0  0  0
    2.5909   -2.7886   -2.7938 H   0  0  0  0  0  0  0  0  0  0  0  0
    3.8867   -4.6702   -2.8025 H   0  0  0  0  0  0  0  0  0  0  0  0
    2.2773   -2.4795   -0.3818 H   0  0  0  0  0  0  0  0  0  0  0  0
    2.6934   -5.0426   -1.2930 H   0  0  0  0  0  0  0  0  0  0  0  0
    4.9337   -3.9257    0.0507 H   0  0  0  0  0  0  0  0  0  0  0  0
    3.0062   -2.7643    1.8005 H   0  0  0  0  0  0  0  0  0  0  0  0
    4.0906   -1.0268    0.5622 H   0  0  0  0  0  0  0  0  0  0  0  0
    5.6045   -2.0121    2.0089 H   0  0  0  0  0  0  0  0  0  0  0  0
    5.6328   -0.3268   -1.1307 H   0  0  0  0  0  0  0  0  0  0  0  0
    6.1633   -3.0450   -1.6310 H   0  0  0  0  0  0  0  0  0  0  0  0
  1  2  2  0
  1 13  1  0
  1 14  1  0
  2 11  1  0
  2  3  1  0
  3  4  1  0
  3  5  1  0
  3 15  1  6
  4 16  1  0
  5  6  1  0
  5  7  1  0
  5 17  1  1
  6 18  1  0
  7  8  1  0
  7  9  1  0
  7 19  1  6
  8 20  1  0
  9 10  1  0
  9 11  1  0
  9 21  1  1
 10 22  1  0
 11 12  1  0
 11 23  1  1
 12 24  1  0
M  END
>  <i_m_ct_stereo_status>  (209) 
1

>  <s_m_source_file>  (209) 
/var/tmp/pbs.5076255.sched01/tmpstc2q6q5/48db17pvb_.sdf

>  <i_m_source_file_index>  (209) 
34

>  <i_lp_mmshare_version>  (209) 
48012

>  <i_f3d_flags>  (209) 
0

>  <s_epik_input>  (209) 
W0NIMl09QzFbQ0BASF0oW09IXSlbQ0BASF0oW09IXSlbQ0BASF0oW09IXSlbQ0BASF0oW09IXSlbQ0BIXTFbT0hd

>  <s_epik_cmdline>  (209) 
J2VwaWtfcHl0aG9uJywgJy1waHQnLCAnMi4wJywgJy1waCcsICc3LjAnLCAnLXRuJywgJzgnLCAnLW1hJywgJzIwMCcsICctaW1hZScsICc8aW5maWxlLm1hZT4nLCAnLW9tYWUnLCAnPG91dGZpbGUubWFlPic=

>  <r_lp_tautomer_probability>  (209) 
1

>  <r_epik_Ionization_Penalty>  (209) 
8.54283e-07

>  <r_epik_Ionization_Penalty_Charging>  (209) 
0

>  <r_epik_Ionization_Penalty_Neutral>  (209) 
8.54283e-07

>  <r_epik_State_Penalty>  (209) 
-0

>  <r_epik_Charging_Adjusted_Penalty>  (209) 
0

>  <i_epik_Tot_Q>  (209) 
0

>  <i_epik_Tot_abs_Q>  (209) 
0

>  <s_lp_Force_Field>  (209) 
OPLS3e

>  <r_lp_Energy>  (209) 
20.7465

>  <b_lp_Chiralities_Consistent>  (209) 
1

>  <s_lp_Variant>  (209) 
44:0-2

>  <s_i_glide_gridfile>  (209) 
pfpi4k_grid

>  <i_i_glide_lignum>  (209) 
34

>  <i_i_glide_rotatable_bonds>  (209) 
5

>  <r_i_docking_score>  (209) 
-5.61429

>  <r_i_glide_ligand_efficiency>  (209) 
-0.467857

>  <r_i_glide_ligand_efficiency_sa>  (209) 
-1.07113

>  <r_i_glide_ligand_efficiency_ln>  (209) 
-1.61103

>  <r_i_glide_gscore>  (209) 
-5.61429

>  <r_i_glide_lipo>  (209) 
-0.192124

>  <r_i_glide_hbond>  (209) 
0

>  <r_i_glide_metal>  (209) 
-0

>  <r_i_glide_rewards>  (209) 
-2.70795

>  <r_i_glide_evdw>  (209) 
-13.7223

>  <r_i_glide_ecoul>  (209) 
-13.5206

>  <r_i_glide_erotb>  (209) 
0

>  <r_i_glide_esite>  (209) 
0

>  <r_i_glide_emodel>  (209) 
-41.4158

>  <r_i_glide_energy>  (209) 
-27.243

>  <r_i_glide_einternal>  (209) 
1.78965

>  <r_i_glide_intrahb_reward>  (209) 
-0.5

>  <i_i_glide_confnum>  (209) 
1

>  <i_i_glide_posenum>  (209) 
25

>  <r_i_glide_eff_state_penalty>  (209) 
0

>  <ligand_id>  (209) 
44

>  <original_smiles>  (209) 
C=C1C(O)C(O)C(O)C(O)C1O

>  <smiles>  (209) 
[H]OC1([H])C(=C([H])[H])C([H])(O[H])C([H])(O[H])C([H])(O[H])C1([H])O[H]

$$$$
44:1:2
     RDKit          3D

 24 24  0  0  1  0  0  0  0  0999 V2000
    3.6104   -0.4607   -3.4353 C   0  0  0  0  0  0  0  0  0  0  0  0
    3.8294   -1.6429   -2.8458 C   0  0  0  0  0  0  0  0  0  0  0  0
    2.7342   -2.6776   -2.6788 C   0  0  1  0  0  0  0  0  0  0  0  0
    2.9675   -3.6619   -3.6633 O   0  0  0  0  0  0  0  0  0  0  0  0
    2.7017   -3.2380   -1.2246 C   0  0  1  0  0  0  0  0  0  0  0  0
    1.7369   -4.2605   -1.1166 O   0  0  0  0  0  0  0  0  0  0  0  0
    4.0636   -3.7167   -0.7066 C   0  0  2  0  0  0  0  0  0  0  0  0
    3.9518   -4.1018    0.6539 O   0  0  0  0  0  0  0  0  0  0  0  0
    5.0806   -2.5636   -0.8363 C   0  0  1  0  0  0  0  0  0  0  0  0
    6.3750   -2.9692   -0.4226 O   0  0  0  0  0  0  0  0  0  0  0  0
    5.1909   -2.0440   -2.2854 C   0  0  1  0  0  0  0  0  0  0  0  0
    5.7646   -3.0594   -3.1050 O   0  0  0  0  0  0  0  0  0  0  0  0
    4.3655    0.2936   -3.5261 H   0  0  0  0  0  0  0  0  0  0  0  0
    2.6395   -0.2100   -3.8331 H   0  0  0  0  0  0  0  0  0  0  0  0
    1.7658   -2.2391   -2.8929 H   0  0  0  0  0  0  0  0  0  0  0  0
    2.7415   -4.5187   -3.3146 H   0  0  0  0  0  0  0  0  0  0  0  0
    2.4104   -2.4260   -0.5589 H   0  0  0  0  0  0  0  0  0  0  0  0
    2.0467   -5.0300   -1.5974 H   0  0  0  0  0  0  0  0  0  0  0  0
    4.3883   -4.5807   -1.2852 H   0  0  0  0  0  0  0  0  0  0  0  0
    3.6765   -3.3500    1.1655 H   0  0  0  0  0  0  0  0  0  0  0  0
    4.7801   -1.7355   -0.1787 H   0  0  0  0  0  0  0  0  0  0  0  0
    6.6271   -3.6961   -0.9842 H   0  0  0  0  0  0  0  0  0  0  0  0
    5.8320   -1.1690   -2.2828 H   0  0  0  0  0  0  0  0  0  0  0  0
    5.1737   -3.8100   -3.1600 H   0  0  0  0  0  0  0  0  0  0  0  0
  1  2  2  0
  1 13  1  0
  1 14  1  0
  2 11  1  0
  2  3  1  0
  3  4  1  0
  3  5  1  0
  3 15  1  6
  4 16  1  0
  5  6  1  0
  5  7  1  0
  5 17  1  1
  6 18  1  0
  7  8  1  0
  7  9  1  0
  7 19  1  6
  8 20  1  0
  9 10  1  0
  9 11  1  0
  9 21  1  1
 10 22  1  0
 11 12  1  0
 11 23  1  1
 12 24  1  0
M  END
>  <i_m_ct_stereo_status>  (210) 
1

>  <s_m_source_file>  (210) 
/var/tmp/pbs.5076255.sched01/tmpstc2q6q5/48db17pvb_.sdf

>  <i_m_source_file_index>  (210) 
34

>  <i_lp_mmshare_version>  (210) 
48012

>  <i_f3d_flags>  (210) 
0

>  <s_epik_input>  (210) 
W0NIMl09QzFbQ0BASF0oW09IXSlbQ0BASF0oW09IXSlbQ0BASF0oW09IXSlbQ0BASF0oW09IXSlbQ0BIXTFbT0hd

>  <s_epik_cmdline>  (210) 
J2VwaWtfcHl0aG9uJywgJy1waHQnLCAnMi4wJywgJy1waCcsICc3LjAnLCAnLXRuJywgJzgnLCAnLW1hJywgJzIwMCcsICctaW1hZScsICc8aW5maWxlLm1hZT4nLCAnLW9tYWUnLCAnPG91dGZpbGUubWFlPic=

>  <r_lp_tautomer_probability>  (210) 
1

>  <r_epik_Ionization_Penalty>  (210) 
8.54283e-07

>  <r_epik_Ionization_Penalty_Charging>  (210) 
0

>  <r_epik_Ionization_Penalty_Neutral>  (210) 
8.54283e-07

>  <r_epik_State_Penalty>  (210) 
-0

>  <r_epik_Charging_Adjusted_Penalty>  (210) 
0

>  <i_epik_Tot_Q>  (210) 
0

>  <i_epik_Tot_abs_Q>  (210) 
0

>  <s_lp_Force_Field>  (210) 
OPLS3e

>  <r_lp_Energy>  (210) 
20.7465

>  <b_lp_Chiralities_Consistent>  (210) 
1

>  <s_lp_Variant>  (210) 
44:0-2

>  <s_i_glide_gridfile>  (210) 
pfpi4k_grid

>  <i_i_glide_lignum>  (210) 
34

>  <i_i_glide_rotatable_bonds>  (210) 
5

>  <r_i_docking_score>  (210) 
-5.48757

>  <r_i_glide_ligand_efficiency>  (210) 
-0.457298

>  <r_i_glide_ligand_efficiency_sa>  (210) 
-1.04695

>  <r_i_glide_ligand_efficiency_ln>  (210) 
-1.57467

>  <r_i_glide_gscore>  (210) 
-5.48757

>  <r_i_glide_lipo>  (210) 
-0.248244

>  <r_i_glide_hbond>  (210) 
0

>  <r_i_glide_metal>  (210) 
-0

>  <r_i_glide_rewards>  (210) 
-2.70795

>  <r_i_glide_evdw>  (210) 
-15.3076

>  <r_i_glide_ecoul>  (210) 
-11.7733

>  <r_i_glide_erotb>  (210) 
0

>  <r_i_glide_esite>  (210) 
0

>  <r_i_glide_emodel>  (210) 
-41.5208

>  <r_i_glide_energy>  (210) 
-27.0809

>  <r_i_glide_einternal>  (210) 
0.948059

>  <r_i_glide_intrahb_reward>  (210) 
-0.5

>  <i_i_glide_confnum>  (210) 
2

>  <i_i_glide_posenum>  (210) 
27

>  <r_i_glide_eff_state_penalty>  (210) 
0

>  <ligand_id>  (210) 
44

>  <original_smiles>  (210) 
C=C1C(O)C(O)C(O)C(O)C1O

>  <smiles>  (210) 
[H]OC1([H])C(=C([H])[H])C([H])(O[H])C([H])(O[H])C([H])(O[H])C1([H])O[H]

$$$$
45:0:0
     RDKit          3D

 30 33  0  0  1  0  0  0  0  0999 V2000
    3.4626   -3.8307   -4.0640 O   0  0  0  0  0  0  0  0  0  0  0  0
    3.8776   -2.7636   -3.3951 C   0  0  0  0  0  0  0  0  0  0  0  0
    3.3002   -1.4439   -3.8531 C   0  0  0  0  0  0  0  0  0  0  0  0
    3.9592   -0.5887   -2.7838 C   0  0  0  0  0  0  0  0  0  0  0  0
    4.6959   -1.3159   -1.9322 C   0  0  0  0  0  0  0  0  0  0  0  0
    5.4707   -0.9187   -0.8629 N   0  0  0  0  0  0  0  0  0  0  0  0
    6.4036   -1.8016   -0.3212 C   0  0  0  0  0  0  0  0  0  0  0  0
    7.4524   -1.4901    0.4140 N   0  0  0  0  0  0  0  0  0  0  0  0
    8.0685   -2.7151    0.4504 C   0  0  0  0  0  0  0  0  0  0  0  0
    7.4487   -3.7151   -0.1785 N   0  0  0  0  0  0  0  0  0  0  0  0
    6.3569   -3.0967   -0.6824 N   0  0  0  0  0  0  0  0  0  0  0  0
    5.3284   -3.7635   -1.4777 C   0  0  1  0  0  0  0  0  0  0  0  0
    4.3942   -4.5176   -0.5396 C   0  0  0  0  0  0  0  0  0  0  0  0
    4.8050   -5.7217    0.0765 C   0  0  0  0  0  0  0  0  0  0  0  0
    3.8987   -6.4000    0.9196 C   0  0  0  0  0  0  0  0  0  0  0  0
    2.6202   -5.8509    1.1019 C   0  0  0  0  0  0  0  0  0  0  0  0
    2.2205   -4.7075    0.5229 N   0  0  0  0  0  0  0  0  0  0  0  0
    3.0852   -4.0590   -0.2746 C   0  0  0  0  0  0  0  0  0  0  0  0
    4.6298   -2.6932   -2.2997 C   0  0  0  0  0  0  0  0  0  0  0  0
    2.2178   -1.4112   -3.7561 H   0  0  0  0  0  0  0  0  0  0  0  0
    3.6106   -1.1394   -4.8598 H   0  0  0  0  0  0  0  0  0  0  0  0
    3.8288    0.4837   -2.7469 H   0  0  0  0  0  0  0  0  0  0  0  0
    9.0144   -2.8744    0.9513 H   0  0  0  0  0  0  0  0  0  0  0  0
    5.8080   -4.4313   -2.1827 H   0  0  0  0  0  0  0  0  0  0  0  0
    5.7955   -6.1274   -0.0941 H   0  0  0  0  0  0  0  0  0  0  0  0
    4.1635   -7.3265    1.3973 H   0  0  0  0  0  0  0  0  0  0  0  0
    1.8889   -6.3277    1.7303 H   0  0  0  0  0  0  0  0  0  0  0  0
    2.6891   -3.1519   -0.7073 H   0  0  0  0  0  0  0  0  0  0  0  0
    5.5266    0.0674   -0.6381 H   0  0  0  0  0  0  0  0  0  0  0  0
    2.7022   -3.5542   -4.5511 H   0  0  0  0  0  0  0  0  0  0  0  0
  1  2  1  0
  1 30  1  0
  2  3  1  0
  2 19  2  0
  3  4  1  0
  3 20  1  0
  3 21  1  0
  4 22  1  0
  4  5  2  0
  5 19  1  0
  5  6  1  0
  6  7  1  0
  6 29  1  0
  7 11  1  0
  7  8  2  0
  8  9  1  0
  9 10  2  0
  9 23  1  0
 10 11  1  0
 11 12  1  0
 12 13  1  0
 12 24  1  6
 12 19  1  0
 13 18  1  0
 13 14  2  0
 14 15  1  0
 14 25  1  0
 15 16  2  0
 15 26  1  0
 16 17  1  0
 16 27  1  0
 17 18  2  0
 18 28  1  0
M  END
>  <i_m_ct_stereo_status>  (211) 
1

>  <s_m_source_file>  (211) 
/var/tmp/pbs.5076255.sched01/tmpstc2q6q5/48db17pvb_.sdf

>  <i_m_source_file_index>  (211) 
35

>  <i_lp_mmshare_version>  (211) 
48012

>  <i_f3d_flags>  (211) 
0

>  <s_epik_input>  (211) 
bjFbY0hdbmMoTjIpbjFbQ0BIXShbQ0BASF0oQz0yMylDKD1PKVtDSDJdW0NIMl0zKWM0W2NIXVtjSF1bY0hdbltjSF00

>  <s_epik_cmdline>  (211) 
J2VwaWtfcHl0aG9uJywgJy1waHQnLCAnMi4wJywgJy1waCcsICc3LjAnLCAnLXRuJywgJzgnLCAnLW1hJywgJzIwMCcsICctaW1hZScsICc8aW5maWxlLm1hZT4nLCAnLW9tYWUnLCAnPG91dGZpbGUubWFlPic=

>  <r_epik_Ionization_Penalty>  (211) 
0.411075

>  <r_epik_Ionization_Penalty_Charging>  (211) 
9.11783e-11

>  <r_epik_Ionization_Penalty_Neutral>  (211) 
0.411075

>  <r_epik_State_Penalty>  (211) 
0.410545

>  <r_epik_Charging_Adjusted_Penalty>  (211) 
0.410545

>  <i_epik_Tot_Q>  (211) 
0

>  <i_epik_Tot_abs_Q>  (211) 
0

>  <s_epik_Chemistry_Notes>  (211) 
This compound has an imine and may undergo hydrolysis.

>  <s_lp_Force_Field>  (211) 
OPLS3e

>  <r_lp_Energy>  (211) 
21.3146

>  <b_lp_Chiralities_Consistent>  (211) 
1

>  <s_lp_Variant>  (211) 
45:0-1

>  <s_i_glide_gridfile>  (211) 
pfpi4k_grid

>  <i_i_glide_lignum>  (211) 
35

>  <i_i_glide_rotatable_bonds>  (211) 
2

>  <r_i_docking_score>  (211) 
-4.37468

>  <r_i_glide_ligand_efficiency>  (211) 
-0.230246

>  <r_i_glide_ligand_efficiency_sa>  (211) 
-0.614389

>  <r_i_glide_ligand_efficiency_ln>  (211) 
-1.10907

>  <r_i_glide_gscore>  (211) 
-4.37468

>  <r_i_glide_lipo>  (211) 
-0.640909

>  <r_i_glide_hbond>  (211) 
-0.369273

>  <r_i_glide_metal>  (211) 
-0

>  <r_i_glide_rewards>  (211) 
-2.06996

>  <r_i_glide_evdw>  (211) 
-24.0877

>  <r_i_glide_ecoul>  (211) 
-1.78585

>  <r_i_glide_erotb>  (211) 
0.273846

>  <r_i_glide_esite>  (211) 
-0.096112

>  <r_i_glide_emodel>  (211) 
-32.7143

>  <r_i_glide_energy>  (211) 
-25.8736

>  <r_i_glide_einternal>  (211) 
3.54607

>  <r_i_glide_intrahb_reward>  (211) 
-0

>  <i_i_glide_confnum>  (211) 
2

>  <i_i_glide_posenum>  (211) 
16

>  <r_i_glide_eff_state_penalty>  (211) 
0

>  <ligand_id>  (211) 
45

>  <original_smiles>  (211) 
O=C1CCC2=Nc3ncnn3C(c3cccnc3)C12

>  <smiles>  (211) 
[H]OC1=C2C(=C([H])C1([H])[H])N([H])c1nc([H])nn1C2([H])c1c([H])nc([H])c([H])c1[H]

$$$$
45:0:1
     RDKit          3D

 30 33  0  0  1  0  0  0  0  0999 V2000
    2.4238   -2.8443    1.4531 O   0  0  0  0  0  0  0  0  0  0  0  0
    3.3773   -3.7680    1.3039 C   0  0  0  0  0  0  0  0  0  0  0  0
    3.0570   -5.1470    1.8308 C   0  0  0  0  0  0  0  0  0  0  0  0
    4.3830   -5.8059    1.4751 C   0  0  0  0  0  0  0  0  0  0  0  0
    5.2277   -4.9471    0.8971 C   0  0  0  0  0  0  0  0  0  0  0  0
    6.5530   -5.1328    0.5373 N   0  0  0  0  0  0  0  0  0  0  0  0
    7.3484   -4.0246    0.2666 C   0  0  0  0  0  0  0  0  0  0  0  0
    8.6652   -4.0005    0.1785 N   0  0  0  0  0  0  0  0  0  0  0  0
    8.8466   -2.6540    0.0358 C   0  0  0  0  0  0  0  0  0  0  0  0
    7.7486   -1.8967   -0.0154 N   0  0  0  0  0  0  0  0  0  0  0  0
    6.7670   -2.8180    0.1325 N   0  0  0  0  0  0  0  0  0  0  0  0
    5.3354   -2.4992    0.1240 C   0  0  1  0  0  0  0  0  0  0  0  0
    4.8730   -2.2604   -1.3080 C   0  0  0  0  0  0  0  0  0  0  0  0
    4.2465   -1.0571   -1.6764 C   0  0  0  0  0  0  0  0  0  0  0  0
    3.8111   -0.8908   -3.0044 C   0  0  0  0  0  0  0  0  0  0  0  0
    4.0029   -1.9496   -3.9095 C   0  0  0  0  0  0  0  0  0  0  0  0
    4.6095   -3.1078   -3.5786 N   0  0  0  0  0  0  0  0  0  0  0  0
    5.0183   -3.2570   -2.3003 C   0  0  0  0  0  0  0  0  0  0  0  0
    4.5939   -3.6695    0.7521 C   0  0  0  0  0  0  0  0  0  0  0  0
    2.2255   -5.6142    1.3033 H   0  0  0  0  0  0  0  0  0  0  0  0
    2.8850   -5.1563    2.9091 H   0  0  0  0  0  0  0  0  0  0  0  0
    4.6056   -6.8321    1.7233 H   0  0  0  0  0  0  0  0  0  0  0  0
    9.8330   -2.2272   -0.0322 H   0  0  0  0  0  0  0  0  0  0  0  0
    5.1883   -1.6123    0.7364 H   0  0  0  0  0  0  0  0  0  0  0  0
    4.1110   -0.2631   -0.9550 H   0  0  0  0  0  0  0  0  0  0  0  0
    3.3225    0.0205   -3.3250 H   0  0  0  0  0  0  0  0  0  0  0  0
    3.6787   -1.8571   -4.9336 H   0  0  0  0  0  0  0  0  0  0  0  0
    5.4805   -4.2051   -2.0665 H   0  0  0  0  0  0  0  0  0  0  0  0
    7.0062   -6.0214    0.6857 H   0  0  0  0  0  0  0  0  0  0  0  0
    2.7089   -2.0633    1.0060 H   0  0  0  0  0  0  0  0  0  0  0  0
  1  2  1  0
  1 30  1  0
  2  3  1  0
  2 19  2  0
  3  4  1  0
  3 20  1  0
  3 21  1  0
  4 22  1  0
  4  5  2  0
  5 19  1  0
  5  6  1  0
  6  7  1  0
  6 29  1  0
  7 11  1  0
  7  8  2  0
  8  9  1  0
  9 10  2  0
  9 23  1  0
 10 11  1  0
 11 12  1  0
 12 13  1  0
 12 24  1  1
 12 19  1  0
 13 18  1  0
 13 14  2  0
 14 15  1  0
 14 25  1  0
 15 16  2  0
 15 26  1  0
 16 17  1  0
 16 27  1  0
 17 18  2  0
 18 28  1  0
M  END
>  <i_m_ct_stereo_status>  (212) 
1

>  <s_m_source_file>  (212) 
/var/tmp/pbs.5076255.sched01/tmpstc2q6q5/48db17pvb_.sdf

>  <i_m_source_file_index>  (212) 
35

>  <i_lp_mmshare_version>  (212) 
48012

>  <i_f3d_flags>  (212) 
0

>  <s_epik_input>  (212) 
bjFbY0hdbmMoTjIpbjFbQ0BIXShbQ0BASF0oQz0yMylDKD1PKVtDSDJdW0NIMl0zKWM0W2NIXVtjSF1bY0hdbltjSF00

>  <s_epik_cmdline>  (212) 
J2VwaWtfcHl0aG9uJywgJy1waHQnLCAnMi4wJywgJy1waCcsICc3LjAnLCAnLXRuJywgJzgnLCAnLW1hJywgJzIwMCcsICctaW1hZScsICc8aW5maWxlLm1hZT4nLCAnLW9tYWUnLCAnPG91dGZpbGUubWFlPic=

>  <r_epik_Ionization_Penalty>  (212) 
0.411075

>  <r_epik_Ionization_Penalty_Charging>  (212) 
9.11783e-11

>  <r_epik_Ionization_Penalty_Neutral>  (212) 
0.411075

>  <r_epik_State_Penalty>  (212) 
0.410545

>  <r_epik_Charging_Adjusted_Penalty>  (212) 
0.410545

>  <i_epik_Tot_Q>  (212) 
0

>  <i_epik_Tot_abs_Q>  (212) 
0

>  <s_epik_Chemistry_Notes>  (212) 
This compound has an imine and may undergo hydrolysis.

>  <s_lp_Force_Field>  (212) 
OPLS3e

>  <r_lp_Energy>  (212) 
21.3146

>  <b_lp_Chiralities_Consistent>  (212) 
1

>  <s_lp_Variant>  (212) 
45:0-1

>  <s_i_glide_gridfile>  (212) 
pfpi4k_grid

>  <i_i_glide_lignum>  (212) 
35

>  <i_i_glide_rotatable_bonds>  (212) 
2

>  <r_i_docking_score>  (212) 
-4.00541

>  <r_i_glide_ligand_efficiency>  (212) 
-0.210811

>  <r_i_glide_ligand_efficiency_sa>  (212) 
-0.562529

>  <r_i_glide_ligand_efficiency_ln>  (212) 
-1.01546

>  <r_i_glide_gscore>  (212) 
-4.00541

>  <r_i_glide_lipo>  (212) 
-0.426229

>  <r_i_glide_hbond>  (212) 
-0.106648

>  <r_i_glide_metal>  (212) 
-0

>  <r_i_glide_rewards>  (212) 
-1.99333

>  <r_i_glide_evdw>  (212) 
-26.5696

>  <r_i_glide_ecoul>  (212) 
-2.59152

>  <r_i_glide_erotb>  (212) 
0.273846

>  <r_i_glide_esite>  (212) 
-0.0358481

>  <r_i_glide_emodel>  (212) 
-37.1558

>  <r_i_glide_energy>  (212) 
-29.1611

>  <r_i_glide_einternal>  (212) 
0.139222

>  <r_i_glide_intrahb_reward>  (212) 
-0

>  <i_i_glide_confnum>  (212) 
2

>  <i_i_glide_posenum>  (212) 
38

>  <r_i_glide_eff_state_penalty>  (212) 
0

>  <ligand_id>  (212) 
45

>  <original_smiles>  (212) 
O=C1CCC2=Nc3ncnn3C(c3cccnc3)C12

>  <smiles>  (212) 
[H]OC1=C2C(=C([H])C1([H])[H])N([H])c1nc([H])nn1C2([H])c1c([H])nc([H])c([H])c1[H]

$$$$
45:0:2
     RDKit          3D

 30 33  0  0  1  0  0  0  0  0999 V2000
    4.6093   -4.2305   -4.0608 O   0  0  0  0  0  0  0  0  0  0  0  0
    4.3084   -3.0952   -3.4254 C   0  0  0  0  0  0  0  0  0  0  0  0
    3.5101   -2.0880   -4.2131 C   0  0  0  0  0  0  0  0  0  0  0  0
    3.4035   -1.0250   -3.1435 C   0  0  0  0  0  0  0  0  0  0  0  0
    4.0302   -1.3931   -2.0247 C   0  0  0  0  0  0  0  0  0  0  0  0
    4.2200   -0.6701   -0.8704 N   0  0  0  0  0  0  0  0  0  0  0  0
    5.1203   -1.1195    0.0768 C   0  0  0  0  0  0  0  0  0  0  0  0
    5.5923   -0.4166    1.0774 N   0  0  0  0  0  0  0  0  0  0  0  0
    6.5236   -1.3030    1.5289 C   0  0  0  0  0  0  0  0  0  0  0  0
    6.6074   -2.4776    0.8988 N   0  0  0  0  0  0  0  0  0  0  0  0
    5.6510   -2.3459   -0.0499 N   0  0  0  0  0  0  0  0  0  0  0  0
    5.2963   -3.3891   -1.0152 C   0  0  1  0  0  0  0  0  0  0  0  0
    4.4251   -4.4301   -0.3215 C   0  0  0  0  0  0  0  0  0  0  0  0
    4.9638   -5.6545    0.1159 C   0  0  0  0  0  0  0  0  0  0  0  0
    4.1106   -6.5871    0.7354 C   0  0  0  0  0  0  0  0  0  0  0  0
    2.7516   -6.2547    0.8951 C   0  0  0  0  0  0  0  0  0  0  0  0
    2.2184   -5.0859    0.4883 N   0  0  0  0  0  0  0  0  0  0  0  0
    3.0438   -4.1986   -0.1020 C   0  0  0  0  0  0  0  0  0  0  0  0
    4.5668   -2.7119   -2.1725 C   0  0  0  0  0  0  0  0  0  0  0  0
    2.5309   -2.4782   -4.4880 H   0  0  0  0  0  0  0  0  0  0  0  0
    4.0490   -1.6892   -5.0706 H   0  0  0  0  0  0  0  0  0  0  0  0
    2.9107   -0.0788   -3.3013 H   0  0  0  0  0  0  0  0  0  0  0  0
    7.1691   -1.0343    2.3451 H   0  0  0  0  0  0  0  0  0  0  0  0
    6.2166   -3.8275   -1.3933 H   0  0  0  0  0  0  0  0  0  0  0  0
    6.0129   -5.8813   -0.0256 H   0  0  0  0  0  0  0  0  0  0  0  0
    4.4790   -7.5499    1.0639 H   0  0  0  0  0  0  0  0  0  0  0  0
    2.0668   -6.9518    1.3476 H   0  0  0  0  0  0  0  0  0  0  0  0
    2.5763   -3.2749   -0.4082 H   0  0  0  0  0  0  0  0  0  0  0  0
    3.8694    0.2689   -0.7643 H   0  0  0  0  0  0  0  0  0  0  0  0
    4.9882   -4.8086   -3.4177 H   0  0  0  0  0  0  0  0  0  0  0  0
  1  2  1  0
  1 30  1  0
  2  3  1  0
  2 19  2  0
  3  4  1  0
  3 20  1  0
  3 21  1  0
  4 22  1  0
  4  5  2  0
  5 19  1  0
  5  6  1  0
  6  7  1  0
  6 29  1  0
  7 11  1  0
  7  8  2  0
  8  9  1  0
  9 10  2  0
  9 23  1  0
 10 11  1  0
 11 12  1  0
 12 13  1  0
 12 24  1  6
 12 19  1  0
 13 18  1  0
 13 14  2  0
 14 15  1  0
 14 25  1  0
 15 16  2  0
 15 26  1  0
 16 17  1  0
 16 27  1  0
 17 18  2  0
 18 28  1  0
M  END
>  <i_m_ct_stereo_status>  (213) 
1

>  <s_m_source_file>  (213) 
/var/tmp/pbs.5076255.sched01/tmpstc2q6q5/48db17pvb_.sdf

>  <i_m_source_file_index>  (213) 
35

>  <i_lp_mmshare_version>  (213) 
48012

>  <i_f3d_flags>  (213) 
0

>  <s_epik_input>  (213) 
bjFbY0hdbmMoTjIpbjFbQ0BIXShbQ0BASF0oQz0yMylDKD1PKVtDSDJdW0NIMl0zKWM0W2NIXVtjSF1bY0hdbltjSF00

>  <s_epik_cmdline>  (213) 
J2VwaWtfcHl0aG9uJywgJy1waHQnLCAnMi4wJywgJy1waCcsICc3LjAnLCAnLXRuJywgJzgnLCAnLW1hJywgJzIwMCcsICctaW1hZScsICc8aW5maWxlLm1hZT4nLCAnLW9tYWUnLCAnPG91dGZpbGUubWFlPic=

>  <r_epik_Ionization_Penalty>  (213) 
0.411075

>  <r_epik_Ionization_Penalty_Charging>  (213) 
9.11783e-11

>  <r_epik_Ionization_Penalty_Neutral>  (213) 
0.411075

>  <r_epik_State_Penalty>  (213) 
0.410545

>  <r_epik_Charging_Adjusted_Penalty>  (213) 
0.410545

>  <i_epik_Tot_Q>  (213) 
0

>  <i_epik_Tot_abs_Q>  (213) 
0

>  <s_epik_Chemistry_Notes>  (213) 
This compound has an imine and may undergo hydrolysis.

>  <s_lp_Force_Field>  (213) 
OPLS3e

>  <r_lp_Energy>  (213) 
21.3146

>  <b_lp_Chiralities_Consistent>  (213) 
1

>  <s_lp_Variant>  (213) 
45:0-1

>  <s_i_glide_gridfile>  (213) 
pfpi4k_grid

>  <i_i_glide_lignum>  (213) 
35

>  <i_i_glide_rotatable_bonds>  (213) 
2

>  <r_i_docking_score>  (213) 
-3.76449

>  <r_i_glide_ligand_efficiency>  (213) 
-0.198131

>  <r_i_glide_ligand_efficiency_sa>  (213) 
-0.528694

>  <r_i_glide_ligand_efficiency_ln>  (213) 
-0.95438

>  <r_i_glide_gscore>  (213) 
-3.76449

>  <r_i_glide_lipo>  (213) 
-0.518155

>  <r_i_glide_hbond>  (213) 
-0.0769524

>  <r_i_glide_metal>  (213) 
-0

>  <r_i_glide_rewards>  (213) 
-1.86264

>  <r_i_glide_evdw>  (213) 
-24.3482

>  <r_i_glide_ecoul>  (213) 
-2.18704

>  <r_i_glide_erotb>  (213) 
0.273846

>  <r_i_glide_esite>  (213) 
-0.035126

>  <r_i_glide_emodel>  (213) 
-33.8875

>  <r_i_glide_energy>  (213) 
-26.5352

>  <r_i_glide_einternal>  (213) 
0.28931

>  <r_i_glide_intrahb_reward>  (213) 
-0

>  <i_i_glide_confnum>  (213) 
2

>  <i_i_glide_posenum>  (213) 
3

>  <r_i_glide_eff_state_penalty>  (213) 
0

>  <ligand_id>  (213) 
45

>  <original_smiles>  (213) 
O=C1CCC2=Nc3ncnn3C(c3cccnc3)C12

>  <smiles>  (213) 
[H]OC1=C2C(=C([H])C1([H])[H])N([H])c1nc([H])nn1C2([H])c1c([H])nc([H])c([H])c1[H]

$$$$
45:1:0
     RDKit          3D

 29 32  0  0  1  0  0  0  0  0999 V2000
    3.6420   -3.4431   -4.3225 O   0  0  0  0  0  0  0  0  0  0  0  0
    3.9942   -2.5205   -3.5696 C   0  0  0  0  0  0  0  0  0  0  0  0
    3.4348   -1.1627   -3.9705 C   0  0  0  0  0  0  0  0  0  0  0  0
    4.0027   -0.3432   -2.8522 C   0  0  0  0  0  0  0  0  0  0  0  0
    4.7210   -1.0697   -2.0010 C   0  0  0  0  0  0  0  0  0  0  0  0
    5.4152   -0.6790   -0.8724 N   0  0  0  0  0  0  0  0  0  0  0  0
    6.3379   -1.5711   -0.3095 C   0  0  0  0  0  0  0  0  0  0  0  0
    7.3590   -1.2787    0.4803 N   0  0  0  0  0  0  0  0  0  0  0  0
    8.0156   -2.4802    0.4794 C   0  0  0  0  0  0  0  0  0  0  0  0
    7.4656   -3.4515   -0.2344 N   0  0  0  0  0  0  0  0  0  0  0  0
    6.3647   -2.8435   -0.7286 N   0  0  0  0  0  0  0  0  0  0  0  0
    5.4153   -3.5073   -1.6057 C   0  0  1  0  0  0  0  0  0  0  0  0
    4.4607   -4.3223   -0.7433 C   0  0  0  0  0  0  0  0  0  0  0  0
    4.8978   -5.5048   -0.1083 C   0  0  0  0  0  0  0  0  0  0  0  0
    3.9719   -6.2498    0.6421 C   0  0  0  0  0  0  0  0  0  0  0  0
    2.6478   -5.7836    0.7245 C   0  0  0  0  0  0  0  0  0  0  0  0
    2.2154   -4.6641    0.1182 N   0  0  0  0  0  0  0  0  0  0  0  0
    3.1009   -3.9453   -0.5897 C   0  0  0  0  0  0  0  0  0  0  0  0
    4.7315   -2.4268   -2.4126 C   0  0  0  0  0  0  0  0  0  0  0  0
    2.3460   -1.1601   -3.9591 H   0  0  0  0  0  0  0  0  0  0  0  0
    3.8083   -0.8275   -4.9359 H   0  0  0  0  0  0  0  0  0  0  0  0
    3.8331    0.7085   -2.7953 H   0  0  0  0  0  0  0  0  0  0  0  0
    8.9417   -2.6469    1.0072 H   0  0  0  0  0  0  0  0  0  0  0  0
    5.9457   -4.1419   -2.3159 H   0  0  0  0  0  0  0  0  0  0  0  0
    5.9136   -5.8573   -0.2259 H   0  0  0  0  0  0  0  0  0  0  0  0
    4.2521   -7.1646    1.1378 H   0  0  0  0  0  0  0  0  0  0  0  0
    1.9008   -6.3137    1.2920 H   0  0  0  0  0  0  0  0  0  0  0  0
    2.6753   -3.0778   -1.0766 H   0  0  0  0  0  0  0  0  0  0  0  0
    5.4483    0.3105   -0.6483 H   0  0  0  0  0  0  0  0  0  0  0  0
  1  2  1  0
  2  3  1  0
  2 19  2  0
  3  4  1  0
  3 20  1  0
  3 21  1  0
  4 22  1  0
  4  5  2  0
  5 19  1  0
  5  6  1  0
  6  7  1  0
  6 29  1  0
  7 11  1  0
  7  8  2  0
  8  9  1  0
  9 10  2  0
  9 23  1  0
 10 11  1  0
 11 12  1  0
 12 13  1  0
 12 24  1  6
 12 19  1  0
 13 18  1  0
 13 14  2  0
 14 15  1  0
 14 25  1  0
 15 16  2  0
 15 26  1  0
 16 17  1  0
 16 27  1  0
 17 18  2  0
 18 28  1  0
M  CHG  1   1  -1
M  END
>  <i_m_ct_stereo_status>  (214) 
1

>  <s_m_source_file>  (214) 
/var/tmp/pbs.5076255.sched01/tmpstc2q6q5/48db17pvb_.sdf

>  <i_m_source_file_index>  (214) 
36

>  <i_lp_mmshare_version>  (214) 
48012

>  <i_f3d_flags>  (214) 
0

>  <s_epik_input>  (214) 
bjFbY0hdbmMoTjIpbjFbQ0BIXShbQ0BASF0oQz0yMylDKD1PKVtDSDJdW0NIMl0zKWM0W2NIXVtjSF1bY0hdbltjSF00

>  <s_epik_cmdline>  (214) 
J2VwaWtfcHl0aG9uJywgJy1waHQnLCAnMi4wJywgJy1waCcsICc3LjAnLCAnLXRuJywgJzgnLCAnLW1hJywgJzIwMCcsICctaW1hZScsICc8aW5maWxlLm1hZT4nLCAnLW9tYWUnLCAnPG91dGZpbGUubWFlPic=

>  <r_epik_Ionization_Penalty>  (214) 
0.411352

>  <r_epik_Ionization_Penalty_Charging>  (214) 
0.410807

>  <r_epik_Ionization_Penalty_Neutral>  (214) 
0.00054537

>  <r_epik_State_Penalty>  (214) 
0.410815

>  <r_epik_Charging_Adjusted_Penalty>  (214) 
0.821621

>  <i_epik_Tot_Q>  (214) 
-1

>  <i_epik_Tot_abs_Q>  (214) 
1

>  <s_epik_Chemistry_Notes>  (214) 
This compound has an imine and may undergo hydrolysis.

>  <s_lp_Force_Field>  (214) 
OPLS3e

>  <r_lp_Energy>  (214) 
21.3959

>  <b_lp_Chiralities_Consistent>  (214) 
1

>  <s_lp_Variant>  (214) 
45:0-2

>  <s_i_glide_gridfile>  (214) 
pfpi4k_grid

>  <i_i_glide_lignum>  (214) 
36

>  <i_i_glide_rotatable_bonds>  (214) 
1

>  <r_i_docking_score>  (214) 
-4.27243

>  <r_i_glide_ligand_efficiency>  (214) 
-0.224865

>  <r_i_glide_ligand_efficiency_sa>  (214) 
-0.600029

>  <r_i_glide_ligand_efficiency_ln>  (214) 
-1.08315

>  <r_i_glide_gscore>  (214) 
-4.27243

>  <r_i_glide_lipo>  (214) 
-0.815973

>  <r_i_glide_hbond>  (214) 
-0.423961

>  <r_i_glide_metal>  (214) 
-0

>  <r_i_glide_rewards>  (214) 
-1.98039

>  <r_i_glide_evdw>  (214) 
-21.3486

>  <r_i_glide_ecoul>  (214) 
-1.05932

>  <r_i_glide_erotb>  (214) 
0.275727

>  <r_i_glide_esite>  (214) 
-0.101509

>  <r_i_glide_emodel>  (214) 
-30.3286

>  <r_i_glide_energy>  (214) 
-22.4079

>  <r_i_glide_einternal>  (214) 
1.15612

>  <r_i_glide_intrahb_reward>  (214) 
-0

>  <i_i_glide_confnum>  (214) 
4

>  <i_i_glide_posenum>  (214) 
5

>  <r_i_glide_eff_state_penalty>  (214) 
0

>  <ligand_id>  (214) 
45

>  <original_smiles>  (214) 
O=C1CCC2=Nc3ncnn3C(c3cccnc3)C12

>  <smiles>  (214) 
[H]C1=C2C(=C([O-])C1([H])[H])C([H])(c1c([H])nc([H])c([H])c1[H])n1nc([H])nc1N2[H]

$$$$
45:1:1
     RDKit          3D

 29 32  0  0  1  0  0  0  0  0999 V2000
    4.6170   -4.1261   -4.2426 O   0  0  0  0  0  0  0  0  0  0  0  0
    4.3509   -3.1370   -3.5154 C   0  0  0  0  0  0  0  0  0  0  0  0
    3.5285   -2.0924   -4.2461 C   0  0  0  0  0  0  0  0  0  0  0  0
    3.4156   -1.0258   -3.1921 C   0  0  0  0  0  0  0  0  0  0  0  0
    4.0473   -1.3976   -2.0831 C   0  0  0  0  0  0  0  0  0  0  0  0
    4.2509   -0.6620   -0.9342 N   0  0  0  0  0  0  0  0  0  0  0  0
    5.1550   -1.1092    0.0066 C   0  0  0  0  0  0  0  0  0  0  0  0
    5.6529   -0.4039    1.0011 N   0  0  0  0  0  0  0  0  0  0  0  0
    6.5989   -1.2892    1.4271 C   0  0  0  0  0  0  0  0  0  0  0  0
    6.6643   -2.4648    0.7998 N   0  0  0  0  0  0  0  0  0  0  0  0
    5.6887   -2.3355   -0.1239 N   0  0  0  0  0  0  0  0  0  0  0  0
    5.3207   -3.3834   -1.0717 C   0  0  1  0  0  0  0  0  0  0  0  0
    4.4587   -4.4206   -0.3557 C   0  0  0  0  0  0  0  0  0  0  0  0
    5.0097   -5.6339    0.0995 C   0  0  0  0  0  0  0  0  0  0  0  0
    4.1607   -6.5623    0.7311 C   0  0  0  0  0  0  0  0  0  0  0  0
    2.8012   -6.2370    0.8843 C   0  0  0  0  0  0  0  0  0  0  0  0
    2.2578   -5.0772    0.4644 N   0  0  0  0  0  0  0  0  0  0  0  0
    3.0770   -4.1948   -0.1487 C   0  0  0  0  0  0  0  0  0  0  0  0
    4.5873   -2.7165   -2.2231 C   0  0  0  0  0  0  0  0  0  0  0  0
    2.5492   -2.4775   -4.5165 H   0  0  0  0  0  0  0  0  0  0  0  0
    4.0573   -1.6949   -5.1054 H   0  0  0  0  0  0  0  0  0  0  0  0
    2.9254   -0.0901   -3.3709 H   0  0  0  0  0  0  0  0  0  0  0  0
    7.2674   -1.0297    2.2253 H   0  0  0  0  0  0  0  0  0  0  0  0
    6.2347   -3.8217   -1.4649 H   0  0  0  0  0  0  0  0  0  0  0  0
    6.0560   -5.8554   -0.0483 H   0  0  0  0  0  0  0  0  0  0  0  0
    4.5377   -7.5116    1.0784 H   0  0  0  0  0  0  0  0  0  0  0  0
    2.1212   -6.9257    1.3573 H   0  0  0  0  0  0  0  0  0  0  0  0
    2.6021   -3.2853   -0.4892 H   0  0  0  0  0  0  0  0  0  0  0  0
    3.9095    0.2847   -0.8408 H   0  0  0  0  0  0  0  0  0  0  0  0
  1  2  1  0
  2  3  1  0
  2 19  2  0
  3  4  1  0
  3 20  1  0
  3 21  1  0
  4 22  1  0
  4  5  2  0
  5 19  1  0
  5  6  1  0
  6  7  1  0
  6 29  1  0
  7 11  1  0
  7  8  2  0
  8  9  1  0
  9 10  2  0
  9 23  1  0
 10 11  1  0
 11 12  1  0
 12 13  1  0
 12 24  1  6
 12 19  1  0
 13 18  1  0
 13 14  2  0
 14 15  1  0
 14 25  1  0
 15 16  2  0
 15 26  1  0
 16 17  1  0
 16 27  1  0
 17 18  2  0
 18 28  1  0
M  CHG  1   1  -1
M  END
>  <i_m_ct_stereo_status>  (215) 
1

>  <s_m_source_file>  (215) 
/var/tmp/pbs.5076255.sched01/tmpstc2q6q5/48db17pvb_.sdf

>  <i_m_source_file_index>  (215) 
36

>  <i_lp_mmshare_version>  (215) 
48012

>  <i_f3d_flags>  (215) 
0

>  <s_epik_input>  (215) 
bjFbY0hdbmMoTjIpbjFbQ0BIXShbQ0BASF0oQz0yMylDKD1PKVtDSDJdW0NIMl0zKWM0W2NIXVtjSF1bY0hdbltjSF00

>  <s_epik_cmdline>  (215) 
J2VwaWtfcHl0aG9uJywgJy1waHQnLCAnMi4wJywgJy1waCcsICc3LjAnLCAnLXRuJywgJzgnLCAnLW1hJywgJzIwMCcsICctaW1hZScsICc8aW5maWxlLm1hZT4nLCAnLW9tYWUnLCAnPG91dGZpbGUubWFlPic=

>  <r_epik_Ionization_Penalty>  (215) 
0.411352

>  <r_epik_Ionization_Penalty_Charging>  (215) 
0.410807

>  <r_epik_Ionization_Penalty_Neutral>  (215) 
0.00054537

>  <r_epik_State_Penalty>  (215) 
0.410815

>  <r_epik_Charging_Adjusted_Penalty>  (215) 
0.821621

>  <i_epik_Tot_Q>  (215) 
-1

>  <i_epik_Tot_abs_Q>  (215) 
1

>  <s_epik_Chemistry_Notes>  (215) 
This compound has an imine and may undergo hydrolysis.

>  <s_lp_Force_Field>  (215) 
OPLS3e

>  <r_lp_Energy>  (215) 
21.3959

>  <b_lp_Chiralities_Consistent>  (215) 
1

>  <s_lp_Variant>  (215) 
45:0-2

>  <s_i_glide_gridfile>  (215) 
pfpi4k_grid

>  <i_i_glide_lignum>  (215) 
36

>  <i_i_glide_rotatable_bonds>  (215) 
1

>  <r_i_docking_score>  (215) 
-3.15145

>  <r_i_glide_ligand_efficiency>  (215) 
-0.165866

>  <r_i_glide_ligand_efficiency_sa>  (215) 
-0.442597

>  <r_i_glide_ligand_efficiency_ln>  (215) 
-0.798961

>  <r_i_glide_gscore>  (215) 
-3.15145

>  <r_i_glide_lipo>  (215) 
-0.575376

>  <r_i_glide_hbond>  (215) 
-0.0789878

>  <r_i_glide_metal>  (215) 
-0

>  <r_i_glide_rewards>  (215) 
-1.82354

>  <r_i_glide_evdw>  (215) 
-22.586

>  <r_i_glide_ecoul>  (215) 
1.4548

>  <r_i_glide_erotb>  (215) 
0.275727

>  <r_i_glide_esite>  (215) 
-0.0382021

>  <r_i_glide_emodel>  (215) 
-27.2286

>  <r_i_glide_energy>  (215) 
-21.1312

>  <r_i_glide_einternal>  (215) 
0.192189

>  <r_i_glide_intrahb_reward>  (215) 
-0

>  <i_i_glide_confnum>  (215) 
4

>  <i_i_glide_posenum>  (215) 
36

>  <r_i_glide_eff_state_penalty>  (215) 
0

>  <ligand_id>  (215) 
45

>  <original_smiles>  (215) 
O=C1CCC2=Nc3ncnn3C(c3cccnc3)C12

>  <smiles>  (215) 
[H]C1=C2C(=C([O-])C1([H])[H])C([H])(c1c([H])nc([H])c([H])c1[H])n1nc([H])nc1N2[H]

$$$$
45:1:2
     RDKit          3D

 29 32  0  0  1  0  0  0  0  0999 V2000
   -0.5861   -0.7552    6.6765 O   0  0  0  0  0  0  0  0  0  0  0  0
   -0.7724    0.2003    5.8893 C   0  0  0  0  0  0  0  0  0  0  0  0
   -1.2879   -0.2438    4.5252 C   0  0  0  0  0  0  0  0  0  0  0  0
   -1.3860    1.0948    3.8253 C   0  0  0  0  0  0  0  0  0  0  0  0
   -1.0060    2.0893    4.6233 C   0  0  0  0  0  0  0  0  0  0  0  0
   -0.8623    3.4349    4.3339 N   0  0  0  0  0  0  0  0  0  0  0  0
   -0.1370    4.2450    5.2069 C   0  0  0  0  0  0  0  0  0  0  0  0
    0.3247    5.4626    4.9630 N   0  0  0  0  0  0  0  0  0  0  0  0
    1.0626    5.6477    6.1069 C   0  0  0  0  0  0  0  0  0  0  0  0
    1.0109    4.6692    7.0162 N   0  0  0  0  0  0  0  0  0  0  0  0
    0.2076    3.7604    6.4129 N   0  0  0  0  0  0  0  0  0  0  0  0
   -0.1807    2.4917    7.0288 C   0  0  1  0  0  0  0  0  0  0  0  0
   -1.2795    2.7317    8.0566 C   0  0  0  0  0  0  0  0  0  0  0  0
   -1.0107    2.7171    9.4410 C   0  0  0  0  0  0  0  0  0  0  0  0
   -2.0743    2.9470   10.3343 C   0  0  0  0  0  0  0  0  0  0  0  0
   -3.3608    3.1696    9.8114 C   0  0  0  0  0  0  0  0  0  0  0  0
   -3.6307    3.1856    8.4929 N   0  0  0  0  0  0  0  0  0  0  0  0
   -2.6091    2.9732    7.6410 C   0  0  0  0  0  0  0  0  0  0  0  0
   -0.6559    1.5731    5.9193 C   0  0  0  0  0  0  0  0  0  0  0  0
   -2.2684   -0.7162    4.5872 H   0  0  0  0  0  0  0  0  0  0  0  0
   -0.5775   -0.8972    4.0150 H   0  0  0  0  0  0  0  0  0  0  0  0
   -1.6915    1.1907    2.7981 H   0  0  0  0  0  0  0  0  0  0  0  0
    1.6511    6.5377    6.2780 H   0  0  0  0  0  0  0  0  0  0  0  0
    0.6944    2.0471    7.4998 H   0  0  0  0  0  0  0  0  0  0  0  0
   -0.0155    2.5277    9.8182 H   0  0  0  0  0  0  0  0  0  0  0  0
   -1.9229    2.9374   11.4043 H   0  0  0  0  0  0  0  0  0  0  0  0
   -4.1958    3.3277   10.4722 H   0  0  0  0  0  0  0  0  0  0  0  0
   -2.8700    2.9952    6.5932 H   0  0  0  0  0  0  0  0  0  0  0  0
   -1.0094    3.7634    3.3883 H   0  0  0  0  0  0  0  0  0  0  0  0
  1  2  1  0
  2  3  1  0
  2 19  2  0
  3  4  1  0
  3 20  1  0
  3 21  1  0
  4 22  1  0
  4  5  2  0
  5 19  1  0
  5  6  1  0
  6  7  1  0
  6 29  1  0
  7 11  1  0
  7  8  2  0
  8  9  1  0
  9 10  2  0
  9 23  1  0
 10 11  1  0
 11 12  1  0
 12 13  1  0
 12 24  1  1
 12 19  1  0
 13 18  1  0
 13 14  2  0
 14 15  1  0
 14 25  1  0
 15 16  2  0
 15 26  1  0
 16 17  1  0
 16 27  1  0
 17 18  2  0
 18 28  1  0
M  CHG  1   1  -1
M  END
>  <i_m_ct_stereo_status>  (216) 
1

>  <s_m_source_file>  (216) 
/var/tmp/pbs.5076255.sched01/tmpstc2q6q5/48db17pvb_.sdf

>  <i_m_source_file_index>  (216) 
36

>  <i_lp_mmshare_version>  (216) 
48012

>  <i_f3d_flags>  (216) 
0

>  <s_epik_input>  (216) 
bjFbY0hdbmMoTjIpbjFbQ0BIXShbQ0BASF0oQz0yMylDKD1PKVtDSDJdW0NIMl0zKWM0W2NIXVtjSF1bY0hdbltjSF00

>  <s_epik_cmdline>  (216) 
J2VwaWtfcHl0aG9uJywgJy1waHQnLCAnMi4wJywgJy1waCcsICc3LjAnLCAnLXRuJywgJzgnLCAnLW1hJywgJzIwMCcsICctaW1hZScsICc8aW5maWxlLm1hZT4nLCAnLW9tYWUnLCAnPG91dGZpbGUubWFlPic=

>  <r_epik_Ionization_Penalty>  (216) 
0.411352

>  <r_epik_Ionization_Penalty_Charging>  (216) 
0.410807

>  <r_epik_Ionization_Penalty_Neutral>  (216) 
0.00054537

>  <r_epik_State_Penalty>  (216) 
0.410815

>  <r_epik_Charging_Adjusted_Penalty>  (216) 
0.821621

>  <i_epik_Tot_Q>  (216) 
-1

>  <i_epik_Tot_abs_Q>  (216) 
1

>  <s_epik_Chemistry_Notes>  (216) 
This compound has an imine and may undergo hydrolysis.

>  <s_lp_Force_Field>  (216) 
OPLS3e

>  <r_lp_Energy>  (216) 
21.3959

>  <b_lp_Chiralities_Consistent>  (216) 
1

>  <s_lp_Variant>  (216) 
45:0-2

>  <s_i_glide_gridfile>  (216) 
pfpi4k_grid

>  <i_i_glide_lignum>  (216) 
36

>  <i_i_glide_rotatable_bonds>  (216) 
1

>  <r_i_docking_score>  (216) 
-2.90866

>  <r_i_glide_ligand_efficiency>  (216) 
-0.153087

>  <r_i_glide_ligand_efficiency_sa>  (216) 
-0.408498

>  <r_i_glide_ligand_efficiency_ln>  (216) 
-0.737407

>  <r_i_glide_gscore>  (216) 
-2.90866

>  <r_i_glide_lipo>  (216) 
-0.125061

>  <r_i_glide_hbond>  (216) 
-0.0265378

>  <r_i_glide_metal>  (216) 
-0

>  <r_i_glide_rewards>  (216) 
-1.6892

>  <r_i_glide_evdw>  (216) 
-18.5482

>  <r_i_glide_ecoul>  (216) 
-2.35257

>  <r_i_glide_erotb>  (216) 
0.275727

>  <r_i_glide_esite>  (216) 
-0.0632918

>  <r_i_glide_emodel>  (216) 
-26.5807

>  <r_i_glide_energy>  (216) 
-20.9008

>  <r_i_glide_einternal>  (216) 
0.118881

>  <r_i_glide_intrahb_reward>  (216) 
-0

>  <i_i_glide_confnum>  (216) 
4

>  <i_i_glide_posenum>  (216) 
25

>  <r_i_glide_eff_state_penalty>  (216) 
0

>  <ligand_id>  (216) 
45

>  <original_smiles>  (216) 
O=C1CCC2=Nc3ncnn3C(c3cccnc3)C12

>  <smiles>  (216) 
[H]C1=C2C(=C([O-])C1([H])[H])C([H])(c1c([H])nc([H])c([H])c1[H])n1nc([H])nc1N2[H]

$$$$
46:0:0
     RDKit          3D

 83 88  0  0  1  0  0  0  0  0999 V2000
   -3.0475    3.2103    8.7343 C   0  0  0  0  0  0  0  0  0  0  0  0
   -2.4530    2.0615    8.1384 O   0  0  0  0  0  0  0  0  0  0  0  0
   -1.1333    2.3166    7.6614 C   0  0  2  0  0  0  0  0  0  0  0  0
   -1.0998    2.9980    6.2739 C   0  0  1  0  0  0  0  0  0  0  0  0
   -2.3000    2.9151    5.3331 C   0  0  0  0  0  0  0  0  0  0  0  0
   -0.7751    4.3761    6.2989 O   0  0  0  0  0  0  0  0  0  0  0  0
    0.0945    2.0658    6.0208 C   0  0  2  0  0  0  0  0  0  0  0  0
    0.4680    1.6187    4.6077 C   0  0  0  0  0  0  0  0  0  0  0  0
    1.9286    1.0503    4.3628 C   0  0  1  0  0  0  0  0  0  0  0  0
    2.7714    2.0711    4.8842 O   0  0  0  0  0  0  0  0  0  0  0  0
    3.0874    3.2540    4.2789 C   0  0  0  0  0  0  0  0  0  0  0  0
    2.6099    3.4938    2.8334 C   0  0  0  0  0  0  0  0  0  0  0  0
    3.7679    4.0989    4.8500 O   0  0  0  0  0  0  0  0  0  0  0  0
    2.4137   -0.4440    4.7364 C   0  0  1  0  0  0  0  0  0  0  0  0
    1.4317   -1.4544    3.9348 C   0  0  1  0  0  0  0  0  0  0  0  0
   -0.0626   -1.6347    4.3396 C   0  0  0  0  0  0  0  0  0  0  0  0
    1.3363   -1.0125    2.5901 O   0  0  0  0  0  0  0  0  0  0  0  0
    1.8776   -2.9406    3.7916 C   0  0  0  0  0  0  0  0  0  0  0  0
    3.3823   -3.2067    3.7015 C   0  0  1  0  0  0  0  0  0  0  0  0
    3.7633   -4.3988    3.0016 O   0  0  0  0  0  0  0  0  0  0  0  0
    3.4412   -4.6412    1.7050 C   0  0  0  0  0  0  0  0  0  0  0  0
    4.0501   -5.9306    1.1837 C   0  0  0  0  0  0  0  0  0  0  0  0
    2.7374   -3.9417    0.9805 O   0  0  0  0  0  0  0  0  0  0  0  0
    4.2417   -1.9604    3.4078 C   0  0  1  0  0  0  0  0  0  0  0  0
    4.0484   -1.5802    2.0445 O   0  0  0  0  0  0  0  0  0  0  0  0
    5.0547   -1.6592    1.1438 C   0  0  0  0  0  0  0  0  0  0  0  0
    4.5915   -1.2772   -0.2502 C   0  0  0  0  0  0  0  0  0  0  0  0
    6.2119   -2.0247    1.3643 O   0  0  0  0  0  0  0  0  0  0  0  0
    3.9335   -0.7677    4.3541 C   0  0  1  0  0  0  0  0  0  0  0  0
    4.8174    0.3538    3.7369 C   0  0  0  0  0  0  0  0  0  0  0  0
    4.2030   -1.1343    5.8260 C   0  0  1  0  0  0  0  0  0  0  0  0
    5.1736   -0.2574    6.5728 C   0  0  0  0  0  0  0  0  0  0  0  0
    6.3979   -0.3126    6.6875 O   0  0  0  0  0  0  0  0  0  0  0  0
    4.4076    0.8679    7.2430 C   0  0  0  0  0  0  0  0  0  0  0  0
    3.0226    0.2259    7.3943 C   0  0  1  0  0  0  0  0  0  0  0  0
    1.8689    1.0061    7.5760 O   0  0  0  0  0  0  0  0  0  0  0  0
    0.6839    0.2859    7.8184 C   0  0  2  0  0  0  0  0  0  0  0  0
    0.4142    0.2468    9.2001 O   0  0  0  0  0  0  0  0  0  0  0  0
    0.6883   -1.0269    7.2872 O   0  0  0  0  0  0  0  0  0  0  0  0
    1.8900   -1.7372    7.0068 C   0  0  0  0  0  0  0  0  0  0  0  0
    2.7853   -0.7792    6.2579 C   0  0  1  0  0  0  0  0  0  0  0  0
   -0.4413    1.0630    7.0670 C   0  0  1  0  0  0  0  0  0  0  0  0
   -1.3918    0.1640    6.5189 O   0  0  0  0  0  0  0  0  0  0  0  0
   -4.0888    3.0037    8.9881 H   0  0  0  0  0  0  0  0  0  0  0  0
   -3.0286    4.0775    8.0682 H   0  0  0  0  0  0  0  0  0  0  0  0
   -2.5125    3.4686    9.6487 H   0  0  0  0  0  0  0  0  0  0  0  0
   -0.4836    2.8008    8.3987 H   0  0  0  0  0  0  0  0  0  0  0  0
   -2.5730    1.8836    5.1455 H   0  0  0  0  0  0  0  0  0  0  0  0
   -2.0710    3.3574    4.3630 H   0  0  0  0  0  0  0  0  0  0  0  0
   -3.1653    3.4387    5.7422 H   0  0  0  0  0  0  0  0  0  0  0  0
   -0.0533    4.4727    6.8937 H   0  0  0  0  0  0  0  0  0  0  0  0
    0.9119    2.6657    6.4169 H   0  0  0  0  0  0  0  0  0  0  0  0
   -0.2959    1.0121    4.1547 H   0  0  0  0  0  0  0  0  0  0  0  0
    0.3569    2.5053    3.9977 H   0  0  0  0  0  0  0  0  0  0  0  0
    2.0587    1.1057    3.2890 H   0  0  0  0  0  0  0  0  0  0  0  0
    1.5385    3.6401    2.7526 H   0  0  0  0  0  0  0  0  0  0  0  0
    2.9043    2.6721    2.1733 H   0  0  0  0  0  0  0  0  0  0  0  0
    3.0795    4.3912    2.4094 H   0  0  0  0  0  0  0  0  0  0  0  0
   -0.2130   -2.0069    5.3507 H   0  0  0  0  0  0  0  0  0  0  0  0
   -0.5011   -2.3954    3.6905 H   0  0  0  0  0  0  0  0  0  0  0  0
   -0.7436   -0.8239    4.1602 H   0  0  0  0  0  0  0  0  0  0  0  0
    2.1988   -1.0158    2.1947 H   0  0  0  0  0  0  0  0  0  0  0  0
    1.4687   -3.5788    4.5855 H   0  0  0  0  0  0  0  0  0  0  0  0
    1.3660   -3.3324    2.9074 H   0  0  0  0  0  0  0  0  0  0  0  0
    3.6376   -3.4719    4.7214 H   0  0  0  0  0  0  0  0  0  0  0  0
    3.6864   -6.7892    1.7508 H   0  0  0  0  0  0  0  0  0  0  0  0
    5.1388   -5.8868    1.2261 H   0  0  0  0  0  0  0  0  0  0  0  0
    3.7475   -6.0411    0.1448 H   0  0  0  0  0  0  0  0  0  0  0  0
    5.2767   -2.2696    3.5804 H   0  0  0  0  0  0  0  0  0  0  0  0
    3.8023   -1.9560   -0.5769 H   0  0  0  0  0  0  0  0  0  0  0  0
    5.4156   -1.3406   -0.9568 H   0  0  0  0  0  0  0  0  0  0  0  0
    4.1988   -0.2603   -0.2497 H   0  0  0  0  0  0  0  0  0  0  0  0
    5.8066   -0.0215    3.4472 H   0  0  0  0  0  0  0  0  0  0  0  0
    5.0115    1.1995    4.3895 H   0  0  0  0  0  0  0  0  0  0  0  0
    4.3503    0.7501    2.8360 H   0  0  0  0  0  0  0  0  0  0  0  0
    4.4240   -2.1867    5.9782 H   0  0  0  0  0  0  0  0  0  0  0  0
    4.8586    1.1047    8.2146 H   0  0  0  0  0  0  0  0  0  0  0  0
    4.4117    1.7580    6.6032 H   0  0  0  0  0  0  0  0  0  0  0  0
    3.1343   -0.2845    8.3576 H   0  0  0  0  0  0  0  0  0  0  0  0
    1.1695   -0.1044    9.6402 H   0  0  0  0  0  0  0  0  0  0  0  0
    2.3218   -2.1405    7.9219 H   0  0  0  0  0  0  0  0  0  0  0  0
    1.6415   -2.6206    6.4366 H   0  0  0  0  0  0  0  0  0  0  0  0
   -1.6487    0.5492    5.7038 H   0  0  0  0  0  0  0  0  0  0  0  0
  1  2  1  0
  1 44  1  0
  1 45  1  0
  1 46  1  0
  2  3  1  0
  3 42  1  0
  3  4  1  0
  3 47  1  1
  4  5  1  0
  4  6  1  1
  4  7  1  0
  5 48  1  0
  5 49  1  0
  5 50  1  0
  6 51  1  0
  7 42  1  0
  7  8  1  0
  7 52  1  1
  8  9  1  0
  8 53  1  0
  8 54  1  0
  9 10  1  0
  9 14  1  0
  9 55  1  6
 10 11  1  0
 11 12  1  0
 11 13  2  0
 12 56  1  0
 12 57  1  0
 12 58  1  0
 14 29  1  0
 14 41  1  0
 14 15  1  6
 15 16  1  0
 15 17  1  6
 15 18  1  0
 16 59  1  0
 16 60  1  0
 16 61  1  0
 17 62  1  0
 18 19  1  0
 18 63  1  0
 18 64  1  0
 19 20  1  0
 19 24  1  0
 19 65  1  1
 20 21  1  0
 21 22  1  0
 21 23  2  0
 22 66  1  0
 22 67  1  0
 22 68  1  0
 24 25  1  0
 24 29  1  0
 24 69  1  6
 25 26  1  0
 26 27  1  0
 26 28  2  0
 27 70  1  0
 27 71  1  0
 27 72  1  0
 29 30  1  6
 29 31  1  0
 30 73  1  0
 30 74  1  0
 30 75  1  0
 31 41  1  0
 31 32  1  0
 31 76  1  6
 32 33  2  0
 32 34  1  0
 34 35  1  0
 34 77  1  0
 34 78  1  0
 35 41  1  0
 35 36  1  0
 35 79  1  1
 36 37  1  0
 37 38  1  1
 37 39  1  0
 37 42  1  0
 38 80  1  0
 39 40  1  0
 41 40  1  1
 40 81  1  0
 40 82  1  0
 42 43  1  6
 43 83  1  0
M  END
>  <i_m_ct_stereo_status>  (217) 
1

>  <s_m_source_file>  (217) 
/var/tmp/pbs.5076255.sched01/tmpstc2q6q5/48db17pvb_.sdf

>  <i_m_source_file_index>  (217) 
37

>  <i_lp_mmshare_version>  (217) 
48012

>  <i_f3d_flags>  (217) 
0

>  <s_epik_input>  (217) 
W0NIM11DKD1PKU9bQ0BASF0xW0NIMl1bQ0BASF0oW0NAXShbQ0gzXSkoW09IXSlbQ0BIXTJPW0NIM10pW0NAQF0yKFtPSF0pW0NAQF0oW09IXSkoT1tDSDJdMylPW0NAQEhdNFtDSDJdQyg9TylbQ0BASF0oW0NAQF0zNFtDQF0xNTYpW0NAQF02KFtDSDNdKVtDQEhdKE9DKD1PKVtDSDNdKVtDQEBIXShbQ0gyXVtDQF01KFtDSDNdKVtPSF0pT0MoPU8pW0NIM10=

>  <s_epik_cmdline>  (217) 
J2VwaWtfcHl0aG9uJywgJy1waHQnLCAnMi4wJywgJy1waCcsICc3LjAnLCAnLXRuJywgJzgnLCAnLW1hJywgJzIwMCcsICctaW1hZScsICc8aW5maWxlLm1hZT4nLCAnLW9tYWUnLCAnPG91dGZpbGUubWFlPic=

>  <r_lp_tautomer_probability>  (217) 
1

>  <r_epik_Ionization_Penalty>  (217) 
5.48378e-05

>  <r_epik_Ionization_Penalty_Charging>  (217) 
0

>  <r_epik_Ionization_Penalty_Neutral>  (217) 
5.48378e-05

>  <r_epik_State_Penalty>  (217) 
-0

>  <r_epik_Charging_Adjusted_Penalty>  (217) 
0

>  <i_epik_Tot_Q>  (217) 
0

>  <i_epik_Tot_abs_Q>  (217) 
0

>  <s_epik_Chemistry_Notes>  (217) 
This compound has an ester and may undergo hydrolysis at high or low pH.

>  <s_lp_Force_Field>  (217) 
OPLS3e

>  <r_lp_Energy>  (217) 
96.6549

>  <b_lp_Chiralities_Consistent>  (217) 
1

>  <s_lp_Variant>  (217) 
46:0-1

>  <s_i_glide_gridfile>  (217) 
pfpi4k_grid

>  <i_i_glide_lignum>  (217) 
37

>  <i_i_glide_rotatable_bonds>  (217) 
11

>  <r_i_docking_score>  (217) 
-3.07714

>  <r_i_glide_ligand_efficiency>  (217) 
-0.0715615

>  <r_i_glide_ligand_efficiency_sa>  (217) 
-0.250708

>  <r_i_glide_ligand_efficiency_ln>  (217) 
-0.646296

>  <r_i_glide_gscore>  (217) 
-3.07714

>  <r_i_glide_lipo>  (217) 
-0.158834

>  <r_i_glide_hbond>  (217) 
0

>  <r_i_glide_metal>  (217) 
-0

>  <r_i_glide_rewards>  (217) 
-0.596192

>  <r_i_glide_evdw>  (217) 
-27.7489

>  <r_i_glide_ecoul>  (217) 
-6.33642

>  <r_i_glide_erotb>  (217) 
0.0419559

>  <r_i_glide_esite>  (217) 
-0.0261616

>  <r_i_glide_emodel>  (217) 
-40.6516

>  <r_i_glide_energy>  (217) 
-34.0854

>  <r_i_glide_einternal>  (217) 
10.1316

>  <r_i_glide_intrahb_reward>  (217) 
-0.5

>  <i_i_glide_confnum>  (217) 
4

>  <i_i_glide_posenum>  (217) 
16

>  <r_i_glide_eff_state_penalty>  (217) 
0

>  <ligand_id>  (217) 
46

>  <original_smiles>  (217) 
COC1C(C)(O)C2CC(OC(C)=O)C34C(C)(O)CC(OC(C)=O)C(OC(C)=O)C3(C)C3C(=O)CC5OC(O)(OCC534)C21O

>  <smiles>  (217) 
[H]OC12OC([H])([H])C34C([H])(O1)C([H])([H])C(=O)C3([H])C1(C([H])([H])[H])C([H])(OC(=O)C([H])([H])[H])C([H])(OC(=O)C([H])([H])[H])C([H])([H])C(O[H])(C([H])([H])[H])C14C([H])(OC(=O)C([H])([H])[H])C([H])([H])C1([H])C(O[H])(C([H])([H])[H])C([H])(OC([H])([H])[H])C21O[H]

$$$$
46:0:1
     RDKit          3D

 83 88  0  0  1  0  0  0  0  0999 V2000
   -3.3459    2.9360    8.6043 C   0  0  0  0  0  0  0  0  0  0  0  0
   -3.0295    2.7734    7.2333 O   0  0  0  0  0  0  0  0  0  0  0  0
   -1.6344    2.8094    6.9400 C   0  0  2  0  0  0  0  0  0  0  0  0
   -1.3877    3.2108    5.4711 C   0  0  1  0  0  0  0  0  0  0  0  0
   -2.4558    2.9750    4.3958 C   0  0  0  0  0  0  0  0  0  0  0  0
   -0.9747    4.5569    5.3058 O   0  0  0  0  0  0  0  0  0  0  0  0
   -0.2378    2.1978    5.5471 C   0  0  2  0  0  0  0  0  0  0  0  0
    0.2689    1.4688    4.2924 C   0  0  0  0  0  0  0  0  0  0  0  0
    1.6933    0.7768    4.3909 C   0  0  1  0  0  0  0  0  0  0  0  0
    2.5609    1.8162    4.8365 O   0  0  0  0  0  0  0  0  0  0  0  0
    2.9674    2.8704    4.0799 C   0  0  0  0  0  0  0  0  0  0  0  0
    2.5061    2.9237    2.6223 C   0  0  0  0  0  0  0  0  0  0  0  0
    3.6701    3.7763    4.5443 O   0  0  0  0  0  0  0  0  0  0  0  0
    2.0060   -0.6535    5.1002 C   0  0  1  0  0  0  0  0  0  0  0  0
    1.0436   -1.7555    4.4113 C   0  0  1  0  0  0  0  0  0  0  0  0
   -0.4991   -1.7791    4.6284 C   0  0  0  0  0  0  0  0  0  0  0  0
    1.1832   -1.5839    3.0112 O   0  0  0  0  0  0  0  0  0  0  0  0
    1.3872   -3.2591    4.6193 C   0  0  0  0  0  0  0  0  0  0  0  0
    2.8571   -3.6350    4.8090 C   0  0  1  0  0  0  0  0  0  0  0  0
    3.1951   -4.9754    4.4265 O   0  0  0  0  0  0  0  0  0  0  0  0
    2.9904   -5.4825    3.1959 C   0  0  0  0  0  0  0  0  0  0  0  0
    3.6169   -6.8363    2.9821 C   0  0  0  0  0  0  0  0  0  0  0  0
    2.3695   -4.9039    2.2770 O   0  0  0  0  0  0  0  0  0  0  0  0
    3.8644   -2.5427    4.3745 C   0  0  1  0  0  0  0  0  0  0  0  0
    3.8832   -2.4545    2.9454 O   0  0  0  0  0  0  0  0  0  0  0  0
    4.7523   -3.1679    2.2020 C   0  0  0  0  0  0  0  0  0  0  0  0
    4.5686   -2.9443    0.7231 C   0  0  0  0  0  0  0  0  0  0  0  0
    5.6495   -3.8886    2.6453 O   0  0  0  0  0  0  0  0  0  0  0  0
    3.5409   -1.1381    4.9905 C   0  0  1  0  0  0  0  0  0  0  0  0
    4.5851   -0.2131    4.2923 C   0  0  0  0  0  0  0  0  0  0  0  0
    3.6077   -1.1984    6.5408 C   0  0  1  0  0  0  0  0  0  0  0  0
    4.5314   -0.2297    7.2381 C   0  0  0  0  0  0  0  0  0  0  0  0
    5.7265   -0.3619    7.5167 O   0  0  0  0  0  0  0  0  0  0  0  0
    3.7678    1.0473    7.5674 C   0  0  0  0  0  0  0  0  0  0  0  0
    2.3401    0.5052    7.6456 C   0  0  1  0  0  0  0  0  0  0  0  0
    1.2527    1.3741    7.5125 O   0  0  0  0  0  0  0  0  0  0  0  0
   -0.0086    0.7788    7.7277 C   0  0  2  0  0  0  0  0  0  0  0  0
   -0.4451    1.0482    9.0406 O   0  0  0  0  0  0  0  0  0  0  0  0
   -0.0587   -0.6160    7.4856 O   0  0  0  0  0  0  0  0  0  0  0  0
    1.1123   -1.4305    7.4942 C   0  0  0  0  0  0  0  0  0  0  0  0
    2.1756   -0.6938    6.6918 C   0  0  1  0  0  0  0  0  0  0  0  0
   -0.9652    1.4342    6.6960 C   0  0  1  0  0  0  0  0  0  0  0  0
   -1.9175    0.4846    6.2361 O   0  0  0  0  0  0  0  0  0  0  0  0
   -4.4286    2.9855    8.7242 H   0  0  0  0  0  0  0  0  0  0  0  0
   -2.9217    3.8577    8.9977 H   0  0  0  0  0  0  0  0  0  0  0  0
   -2.9763    2.0976    9.1895 H   0  0  0  0  0  0  0  0  0  0  0  0
   -1.0578    3.4515    7.6197 H   0  0  0  0  0  0  0  0  0  0  0  0
   -2.7948    1.9441    4.3658 H   0  0  0  0  0  0  0  0  0  0  0  0
   -2.0862    3.2107    3.3953 H   0  0  0  0  0  0  0  0  0  0  0  0
   -3.3279    3.5919    4.5916 H   0  0  0  0  0  0  0  0  0  0  0  0
   -0.3027    4.5646    4.6452 H   0  0  0  0  0  0  0  0  0  0  0  0
    0.5773    2.8127    5.9343 H   0  0  0  0  0  0  0  0  0  0  0  0
   -0.4808    0.7769    3.9236 H   0  0  0  0  0  0  0  0  0  0  0  0
    0.3024    2.1513    3.5274 H   0  0  0  0  0  0  0  0  0  0  0  0
    1.9828    0.6126    3.3667 H   0  0  0  0  0  0  0  0  0  0  0  0
    1.4845    3.1353    2.5246 H   0  0  0  0  0  0  0  0  0  0  0  0
    2.7514    1.9896    2.0946 H   0  0  0  0  0  0  0  0  0  0  0  0
    3.0913    3.7125    2.1182 H   0  0  0  0  0  0  0  0  0  0  0  0
   -0.7986   -1.9263    5.6575 H   0  0  0  0  0  0  0  0  0  0  0  0
   -0.9081   -2.6277    4.0883 H   0  0  0  0  0  0  0  0  0  0  0  0
   -1.0865   -0.9909    4.2042 H   0  0  0  0  0  0  0  0  0  0  0  0
    2.1013   -1.6343    2.7694 H   0  0  0  0  0  0  0  0  0  0  0  0
    0.8328   -3.7051    5.4496 H   0  0  0  0  0  0  0  0  0  0  0  0
    0.9604   -3.7851    3.7676 H   0  0  0  0  0  0  0  0  0  0  0  0
    2.9682   -3.6850    5.8826 H   0  0  0  0  0  0  0  0  0  0  0  0
    3.1782   -7.5991    3.6414 H   0  0  0  0  0  0  0  0  0  0  0  0
    4.6933   -6.7632    3.1560 H   0  0  0  0  0  0  0  0  0  0  0  0
    3.4604   -7.1332    1.9459 H   0  0  0  0  0  0  0  0  0  0  0  0
    4.8588   -2.8441    4.7382 H   0  0  0  0  0  0  0  0  0  0  0  0
    3.5361   -3.1767    0.4822 H   0  0  0  0  0  0  0  0  0  0  0  0
    5.2145   -3.6141    0.1509 H   0  0  0  0  0  0  0  0  0  0  0  0
    4.7841   -1.9076    0.4240 H   0  0  0  0  0  0  0  0  0  0  0  0
    5.5659   -0.6936    4.2293 H   0  0  0  0  0  0  0  0  0  0  0  0
    4.7583    0.7347    4.7970 H   0  0  0  0  0  0  0  0  0  0  0  0
    4.2816    0.0271    3.2718 H   0  0  0  0  0  0  0  0  0  0  0  0
    3.7229   -2.2122    6.9404 H   0  0  0  0  0  0  0  0  0  0  0  0
    4.1183    1.4426    8.5187 H   0  0  0  0  0  0  0  0  0  0  0  0
    3.9333    1.7812    6.7791 H   0  0  0  0  0  0  0  0  0  0  0  0
    2.2915    0.2028    8.6983 H   0  0  0  0  0  0  0  0  0  0  0  0
    0.2319    0.7920    9.6396 H   0  0  0  0  0  0  0  0  0  0  0  0
    1.4056   -1.6716    8.5189 H   0  0  0  0  0  0  0  0  0  0  0  0
    0.8662   -2.3940    7.0718 H   0  0  0  0  0  0  0  0  0  0  0  0
   -2.2318    0.8347    5.4248 H   0  0  0  0  0  0  0  0  0  0  0  0
  1  2  1  0
  1 44  1  0
  1 45  1  0
  1 46  1  0
  2  3  1  0
  3 42  1  0
  3  4  1  0
  3 47  1  1
  4  5  1  0
  4  6  1  1
  4  7  1  0
  5 48  1  0
  5 49  1  0
  5 50  1  0
  6 51  1  0
  7 42  1  0
  7  8  1  0
  7 52  1  1
  8  9  1  0
  8 53  1  0
  8 54  1  0
  9 10  1  0
  9 14  1  0
  9 55  1  6
 10 11  1  0
 11 12  1  0
 11 13  2  0
 12 56  1  0
 12 57  1  0
 12 58  1  0
 14 29  1  0
 14 41  1  0
 14 15  1  1
 15 16  1  0
 15 17  1  6
 15 18  1  0
 16 59  1  0
 16 60  1  0
 16 61  1  0
 17 62  1  0
 18 19  1  0
 18 63  1  0
 18 64  1  0
 19 20  1  0
 19 24  1  0
 19 65  1  1
 20 21  1  0
 21 22  1  0
 21 23  2  0
 22 66  1  0
 22 67  1  0
 22 68  1  0
 24 25  1  0
 24 29  1  0
 24 69  1  1
 25 26  1  0
 26 27  1  0
 26 28  2  0
 27 70  1  0
 27 71  1  0
 27 72  1  0
 29 30  1  6
 29 31  1  0
 30 73  1  0
 30 74  1  0
 30 75  1  0
 31 41  1  0
 31 32  1  0
 31 76  1  6
 32 33  2  0
 32 34  1  0
 34 35  1  0
 34 77  1  0
 34 78  1  0
 35 41  1  0
 35 36  1  0
 35 79  1  1
 36 37  1  0
 37 38  1  1
 37 39  1  0
 37 42  1  0
 38 80  1  0
 39 40  1  0
 41 40  1  1
 40 81  1  0
 40 82  1  0
 42 43  1  6
 43 83  1  0
M  END
>  <i_m_ct_stereo_status>  (218) 
1

>  <s_m_source_file>  (218) 
/var/tmp/pbs.5076255.sched01/tmpstc2q6q5/48db17pvb_.sdf

>  <i_m_source_file_index>  (218) 
37

>  <i_lp_mmshare_version>  (218) 
48012

>  <i_f3d_flags>  (218) 
0

>  <s_epik_input>  (218) 
W0NIM11DKD1PKU9bQ0BASF0xW0NIMl1bQ0BASF0oW0NAXShbQ0gzXSkoW09IXSlbQ0BIXTJPW0NIM10pW0NAQF0yKFtPSF0pW0NAQF0oW09IXSkoT1tDSDJdMylPW0NAQEhdNFtDSDJdQyg9TylbQ0BASF0oW0NAQF0zNFtDQF0xNTYpW0NAQF02KFtDSDNdKVtDQEhdKE9DKD1PKVtDSDNdKVtDQEBIXShbQ0gyXVtDQF01KFtDSDNdKVtPSF0pT0MoPU8pW0NIM10=

>  <s_epik_cmdline>  (218) 
J2VwaWtfcHl0aG9uJywgJy1waHQnLCAnMi4wJywgJy1waCcsICc3LjAnLCAnLXRuJywgJzgnLCAnLW1hJywgJzIwMCcsICctaW1hZScsICc8aW5maWxlLm1hZT4nLCAnLW9tYWUnLCAnPG91dGZpbGUubWFlPic=

>  <r_lp_tautomer_probability>  (218) 
1

>  <r_epik_Ionization_Penalty>  (218) 
5.48378e-05

>  <r_epik_Ionization_Penalty_Charging>  (218) 
0

>  <r_epik_Ionization_Penalty_Neutral>  (218) 
5.48378e-05

>  <r_epik_State_Penalty>  (218) 
-0

>  <r_epik_Charging_Adjusted_Penalty>  (218) 
0

>  <i_epik_Tot_Q>  (218) 
0

>  <i_epik_Tot_abs_Q>  (218) 
0

>  <s_epik_Chemistry_Notes>  (218) 
This compound has an ester and may undergo hydrolysis at high or low pH.

>  <s_lp_Force_Field>  (218) 
OPLS3e

>  <r_lp_Energy>  (218) 
96.6549

>  <b_lp_Chiralities_Consistent>  (218) 
1

>  <s_lp_Variant>  (218) 
46:0-1

>  <s_i_glide_gridfile>  (218) 
pfpi4k_grid

>  <i_i_glide_lignum>  (218) 
37

>  <i_i_glide_rotatable_bonds>  (218) 
11

>  <r_i_docking_score>  (218) 
-2.83356

>  <r_i_glide_ligand_efficiency>  (218) 
-0.0658967

>  <r_i_glide_ligand_efficiency_sa>  (218) 
-0.230862

>  <r_i_glide_ligand_efficiency_ln>  (218) 
-0.595135

>  <r_i_glide_gscore>  (218) 
-2.83356

>  <r_i_glide_lipo>  (218) 
-0.117551

>  <r_i_glide_hbond>  (218) 
0

>  <r_i_glide_metal>  (218) 
-0

>  <r_i_glide_rewards>  (218) 
-0.544209

>  <r_i_glide_evdw>  (218) 
-23.9909

>  <r_i_glide_ecoul>  (218) 
-6.48857

>  <r_i_glide_erotb>  (218) 
0.0419559

>  <r_i_glide_esite>  (218) 
-0.0409213

>  <r_i_glide_emodel>  (218) 
-33.0589

>  <r_i_glide_energy>  (218) 
-30.4795

>  <r_i_glide_einternal>  (218) 
11.467

>  <r_i_glide_intrahb_reward>  (218) 
-0.5

>  <i_i_glide_confnum>  (218) 
2

>  <i_i_glide_posenum>  (218) 
20

>  <r_i_glide_eff_state_penalty>  (218) 
0

>  <ligand_id>  (218) 
46

>  <original_smiles>  (218) 
COC1C(C)(O)C2CC(OC(C)=O)C34C(C)(O)CC(OC(C)=O)C(OC(C)=O)C3(C)C3C(=O)CC5OC(O)(OCC534)C21O

>  <smiles>  (218) 
[H]OC12OC([H])([H])C34C([H])(O1)C([H])([H])C(=O)C3([H])C1(C([H])([H])[H])C([H])(OC(=O)C([H])([H])[H])C([H])(OC(=O)C([H])([H])[H])C([H])([H])C(O[H])(C([H])([H])[H])C14C([H])(OC(=O)C([H])([H])[H])C([H])([H])C1([H])C(O[H])(C([H])([H])[H])C([H])(OC([H])([H])[H])C21O[H]

$$$$
46:0:2
     RDKit          3D

 83 88  0  0  1  0  0  0  0  0999 V2000
    5.3716   -4.2467   -0.3180 C   0  0  0  0  0  0  0  0  0  0  0  0
    4.3771   -4.9185    0.4328 O   0  0  0  0  0  0  0  0  0  0  0  0
    4.3095   -4.5748    1.8130 C   0  0  2  0  0  0  0  0  0  0  0  0
    3.0910   -5.2385    2.5013 C   0  0  1  0  0  0  0  0  0  0  0  0
    1.8995   -5.6819    1.6591 C   0  0  0  0  0  0  0  0  0  0  0  0
    3.3999   -6.3675    3.2936 O   0  0  0  0  0  0  0  0  0  0  0  0
    2.9827   -3.9265    3.2972 C   0  0  2  0  0  0  0  0  0  0  0  0
    1.6549   -3.4139    3.8808 C   0  0  0  0  0  0  0  0  0  0  0  0
    1.7209   -2.2869    4.9823 C   0  0  1  0  0  0  0  0  0  0  0  0
    2.6209   -2.8045    5.9623 O   0  0  0  0  0  0  0  0  0  0  0  0
    2.2206   -3.6416    6.9478 C   0  0  0  0  0  0  0  0  0  0  0  0
    3.3613   -4.0352    7.8827 C   0  0  0  0  0  0  0  0  0  0  0  0
    1.0694   -4.0382    7.1329 O   0  0  0  0  0  0  0  0  0  0  0  0
    1.9558   -0.7246    4.6712 C   0  0  1  0  0  0  0  0  0  0  0  0
    0.7928   -0.2409    3.6362 C   0  0  1  0  0  0  0  0  0  0  0  0
    0.8149   -0.6617    2.1391 C   0  0  0  0  0  0  0  0  0  0  0  0
   -0.4482   -0.7106    4.1344 O   0  0  0  0  0  0  0  0  0  0  0  0
    0.5481    1.2930    3.4937 C   0  0  0  0  0  0  0  0  0  0  0  0
    0.9544    2.1781    4.6608 C   0  0  1  0  0  0  0  0  0  0  0  0
    0.1600    3.3567    4.6964 O   0  0  0  0  0  0  0  0  0  0  0  0
    0.4747    4.5130    4.0427 C   0  0  0  0  0  0  0  0  0  0  0  0
    1.7160    4.4878    3.1388 C   0  0  0  0  0  0  0  0  0  0  0  0
   -0.1842    5.5347    4.1613 O   0  0  0  0  0  0  0  0  0  0  0  0
    0.9696    1.4295    6.0057 C   0  0  1  0  0  0  0  0  0  0  0  0
   -0.3624    1.0570    6.3732 O   0  0  0  0  0  0  0  0  0  0  0  0
   -1.1208    1.7550    7.2589 C   0  0  0  0  0  0  0  0  0  0  0  0
   -0.5624    3.0829    7.7898 C   0  0  0  0  0  0  0  0  0  0  0  0
   -2.2185    1.3545    7.6221 O   0  0  0  0  0  0  0  0  0  0  0  0
    1.9174    0.2050    5.9765 C   0  0  1  0  0  0  0  0  0  0  0  0
    1.6774   -0.4308    7.3704 C   0  0  0  0  0  0  0  0  0  0  0  0
    3.3592    0.6690    5.6713 C   0  0  1  0  0  0  0  0  0  0  0  0
    4.4375    0.3041    6.6500 C   0  0  0  0  0  0  0  0  0  0  0  0
    4.8323    0.8872    7.6480 O   0  0  0  0  0  0  0  0  0  0  0  0
    5.0691   -1.0027    6.2138 C   0  0  0  0  0  0  0  0  0  0  0  0
    4.7717   -0.9808    4.7141 C   0  0  1  0  0  0  0  0  0  0  0  0
    4.7665   -2.1606    3.9683 O   0  0  0  0  0  0  0  0  0  0  0  0
    4.5913   -1.9826    2.5878 C   0  0  2  0  0  0  0  0  0  0  0  0
    5.8342   -1.9849    1.9363 O   0  0  0  0  0  0  0  0  0  0  0  0
    3.8655   -0.8185    2.2291 O   0  0  0  0  0  0  0  0  0  0  0  0
    3.8152    0.3243    3.0760 C   0  0  0  0  0  0  0  0  0  0  0  0
    3.4636   -0.2099    4.4418 C   0  0  1  0  0  0  0  0  0  0  0  0
    3.7078   -3.1816    2.1342 C   0  0  1  0  0  0  0  0  0  0  0  0
    2.8395   -2.7442    1.1101 O   0  0  0  0  0  0  0  0  0  0  0  0
    5.4066   -4.6604   -1.3265 H   0  0  0  0  0  0  0  0  0  0  0  0
    6.3553   -4.3711    0.1354 H   0  0  0  0  0  0  0  0  0  0  0  0
    5.1498   -3.1831   -0.4134 H   0  0  0  0  0  0  0  0  0  0  0  0
    5.2429   -4.7527    2.3539 H   0  0  0  0  0  0  0  0  0  0  0  0
    1.5395   -4.8754    1.0245 H   0  0  0  0  0  0  0  0  0  0  0  0
    1.0743   -6.0040    2.2935 H   0  0  0  0  0  0  0  0  0  0  0  0
    2.1623   -6.5090    0.9999 H   0  0  0  0  0  0  0  0  0  0  0  0
    4.1652   -6.1438    3.7917 H   0  0  0  0  0  0  0  0  0  0  0  0
    3.6686   -4.1143    4.1296 H   0  0  0  0  0  0  0  0  0  0  0  0
    0.9273   -3.2090    3.1111 H   0  0  0  0  0  0  0  0  0  0  0  0
    1.1877   -4.2662    4.3693 H   0  0  0  0  0  0  0  0  0  0  0  0
    0.7326   -2.3275    5.4424 H   0  0  0  0  0  0  0  0  0  0  0  0
    3.7084   -3.1662    8.4425 H   0  0  0  0  0  0  0  0  0  0  0  0
    4.2027   -4.4371    7.3172 H   0  0  0  0  0  0  0  0  0  0  0  0
    3.0363   -4.7886    8.6006 H   0  0  0  0  0  0  0  0  0  0  0  0
    1.6893   -0.3266    1.5868 H   0  0  0  0  0  0  0  0  0  0  0  0
   -0.0079   -0.1537    1.6262 H   0  0  0  0  0  0  0  0  0  0  0  0
    0.6302   -1.6992    1.9301 H   0  0  0  0  0  0  0  0  0  0  0  0
   -0.6208   -0.2476    4.9423 H   0  0  0  0  0  0  0  0  0  0  0  0
    1.0590    1.6874    2.6195 H   0  0  0  0  0  0  0  0  0  0  0  0
   -0.5107    1.4750    3.2736 H   0  0  0  0  0  0  0  0  0  0  0  0
    1.9768    2.4805    4.5017 H   0  0  0  0  0  0  0  0  0  0  0  0
    1.6246    3.6993    2.3988 H   0  0  0  0  0  0  0  0  0  0  0  0
    2.6252    4.3266    3.7206 H   0  0  0  0  0  0  0  0  0  0  0  0
    1.8321    5.4181    2.5869 H   0  0  0  0  0  0  0  0  0  0  0  0
    1.3967    2.1128    6.7314 H   0  0  0  0  0  0  0  0  0  0  0  0
    0.3869    2.9311    8.3128 H   0  0  0  0  0  0  0  0  0  0  0  0
   -1.2580    3.5372    8.4867 H   0  0  0  0  0  0  0  0  0  0  0  0
   -0.4077    3.7971    6.9831 H   0  0  0  0  0  0  0  0  0  0  0  0
    1.5935    0.3305    8.1475 H   0  0  0  0  0  0  0  0  0  0  0  0
    2.4916   -1.0712    7.7043 H   0  0  0  0  0  0  0  0  0  0  0  0
    0.7640   -1.0248    7.3970 H   0  0  0  0  0  0  0  0  0  0  0  0
    3.4492    1.7240    5.4202 H   0  0  0  0  0  0  0  0  0  0  0  0
    6.1400   -0.9995    6.4291 H   0  0  0  0  0  0  0  0  0  0  0  0
    4.5894   -1.8217    6.7440 H   0  0  0  0  0  0  0  0  0  0  0  0
    5.6476   -0.4413    4.3380 H   0  0  0  0  0  0  0  0  0  0  0  0
    5.6736   -2.1912    1.0326 H   0  0  0  0  0  0  0  0  0  0  0  0
    4.7455    0.8806    3.0645 H   0  0  0  0  0  0  0  0  0  0  0  0
    3.0919    1.0240    2.6790 H   0  0  0  0  0  0  0  0  0  0  0  0
    2.6023   -1.8525    1.3489 H   0  0  0  0  0  0  0  0  0  0  0  0
  1  2  1  0
  1 44  1  0
  1 45  1  0
  1 46  1  0
  2  3  1  0
  3 42  1  0
  3  4  1  0
  3 47  1  1
  4  5  1  0
  4  6  1  1
  4  7  1  0
  5 48  1  0
  5 49  1  0
  5 50  1  0
  6 51  1  0
  7 42  1  0
  7  8  1  0
  7 52  1  1
  8  9  1  0
  8 53  1  0
  8 54  1  0
  9 10  1  0
  9 14  1  0
  9 55  1  1
 10 11  1  0
 11 12  1  0
 11 13  2  0
 12 56  1  0
 12 57  1  0
 12 58  1  0
 14 29  1  0
 14 41  1  0
 14 15  1  6
 15 16  1  0
 15 17  1  1
 15 18  1  0
 16 59  1  0
 16 60  1  0
 16 61  1  0
 17 62  1  0
 18 19  1  0
 18 63  1  0
 18 64  1  0
 19 20  1  0
 19 24  1  0
 19 65  1  6
 20 21  1  0
 21 22  1  0
 21 23  2  0
 22 66  1  0
 22 67  1  0
 22 68  1  0
 24 25  1  0
 24 29  1  0
 24 69  1  1
 25 26  1  0
 26 27  1  0
 26 28  2  0
 27 70  1  0
 27 71  1  0
 27 72  1  0
 29 30  1  1
 29 31  1  0
 30 73  1  0
 30 74  1  0
 30 75  1  0
 31 41  1  0
 31 32  1  0
 31 76  1  6
 32 33  2  0
 32 34  1  0
 34 35  1  0
 34 77  1  0
 34 78  1  0
 35 41  1  0
 35 36  1  0
 35 79  1  6
 36 37  1  0
 37 38  1  6
 37 39  1  0
 37 42  1  0
 38 80  1  0
 39 40  1  0
 41 40  1  6
 40 81  1  0
 40 82  1  0
 42 43  1  6
 43 83  1  0
M  END
>  <i_m_ct_stereo_status>  (219) 
1

>  <s_m_source_file>  (219) 
/var/tmp/pbs.5076255.sched01/tmpstc2q6q5/48db17pvb_.sdf

>  <i_m_source_file_index>  (219) 
37

>  <i_lp_mmshare_version>  (219) 
48012

>  <i_f3d_flags>  (219) 
0

>  <s_epik_input>  (219) 
W0NIM11DKD1PKU9bQ0BASF0xW0NIMl1bQ0BASF0oW0NAXShbQ0gzXSkoW09IXSlbQ0BIXTJPW0NIM10pW0NAQF0yKFtPSF0pW0NAQF0oW09IXSkoT1tDSDJdMylPW0NAQEhdNFtDSDJdQyg9TylbQ0BASF0oW0NAQF0zNFtDQF0xNTYpW0NAQF02KFtDSDNdKVtDQEhdKE9DKD1PKVtDSDNdKVtDQEBIXShbQ0gyXVtDQF01KFtDSDNdKVtPSF0pT0MoPU8pW0NIM10=

>  <s_epik_cmdline>  (219) 
J2VwaWtfcHl0aG9uJywgJy1waHQnLCAnMi4wJywgJy1waCcsICc3LjAnLCAnLXRuJywgJzgnLCAnLW1hJywgJzIwMCcsICctaW1hZScsICc8aW5maWxlLm1hZT4nLCAnLW9tYWUnLCAnPG91dGZpbGUubWFlPic=

>  <r_lp_tautomer_probability>  (219) 
1

>  <r_epik_Ionization_Penalty>  (219) 
5.48378e-05

>  <r_epik_Ionization_Penalty_Charging>  (219) 
0

>  <r_epik_Ionization_Penalty_Neutral>  (219) 
5.48378e-05

>  <r_epik_State_Penalty>  (219) 
-0

>  <r_epik_Charging_Adjusted_Penalty>  (219) 
0

>  <i_epik_Tot_Q>  (219) 
0

>  <i_epik_Tot_abs_Q>  (219) 
0

>  <s_epik_Chemistry_Notes>  (219) 
This compound has an ester and may undergo hydrolysis at high or low pH.

>  <s_lp_Force_Field>  (219) 
OPLS3e

>  <r_lp_Energy>  (219) 
96.6549

>  <b_lp_Chiralities_Consistent>  (219) 
1

>  <s_lp_Variant>  (219) 
46:0-1

>  <s_i_glide_gridfile>  (219) 
pfpi4k_grid

>  <i_i_glide_lignum>  (219) 
37

>  <i_i_glide_rotatable_bonds>  (219) 
11

>  <r_i_docking_score>  (219) 
-2.62389

>  <r_i_glide_ligand_efficiency>  (219) 
-0.0610208

>  <r_i_glide_ligand_efficiency_sa>  (219) 
-0.21378

>  <r_i_glide_ligand_efficiency_ln>  (219) 
-0.551099

>  <r_i_glide_gscore>  (219) 
-2.62389

>  <r_i_glide_lipo>  (219) 
-0.13428

>  <r_i_glide_hbond>  (219) 
-0.150141

>  <r_i_glide_metal>  (219) 
-0

>  <r_i_glide_rewards>  (219) 
-0.551349

>  <r_i_glide_evdw>  (219) 
-23.9978

>  <r_i_glide_ecoul>  (219) 
-3.56929

>  <r_i_glide_erotb>  (219) 
0.0419559

>  <r_i_glide_esite>  (219) 
-0.0947945

>  <r_i_glide_emodel>  (219) 
-31.7698

>  <r_i_glide_energy>  (219) 
-27.5671

>  <r_i_glide_einternal>  (219) 
12.6023

>  <r_i_glide_intrahb_reward>  (219) 
-0.5

>  <i_i_glide_confnum>  (219) 
1

>  <i_i_glide_posenum>  (219) 
14

>  <r_i_glide_eff_state_penalty>  (219) 
0

>  <ligand_id>  (219) 
46

>  <original_smiles>  (219) 
COC1C(C)(O)C2CC(OC(C)=O)C34C(C)(O)CC(OC(C)=O)C(OC(C)=O)C3(C)C3C(=O)CC5OC(O)(OCC534)C21O

>  <smiles>  (219) 
[H]OC12OC([H])([H])C34C([H])(O1)C([H])([H])C(=O)C3([H])C1(C([H])([H])[H])C([H])(OC(=O)C([H])([H])[H])C([H])(OC(=O)C([H])([H])[H])C([H])([H])C(O[H])(C([H])([H])[H])C14C([H])(OC(=O)C([H])([H])[H])C([H])([H])C1([H])C(O[H])(C([H])([H])[H])C([H])(OC([H])([H])[H])C21O[H]

$$$$
47:0:0
     RDKit          3D

 54 57  0  0  1  0  0  0  0  0999 V2000
   -1.0453   -0.9111    5.1786 C   0  0  0  0  0  0  0  0  0  0  0  0
   -0.2373   -0.0418    4.2326 C   0  0  0  0  0  0  0  0  0  0  0  0
    1.1042   -0.1325    4.0887 C   0  0  0  0  0  0  0  0  0  0  0  0
    1.9458   -1.0799    4.9542 C   0  0  0  0  0  0  0  0  0  0  0  0
    1.8136    0.7420    3.0292 C   0  0  1  0  0  0  0  0  0  0  0  0
    2.7245   -0.0120    2.1590 N   0  0  0  0  0  0  0  0  0  0  0  0
    4.0743   -0.2372    2.6897 C   0  0  0  0  0  0  0  0  0  0  0  0
    5.0154   -0.8560    1.6399 C   0  0  0  0  0  0  0  0  0  0  0  0
    4.4008   -2.1645    1.0220 C   0  0  0  0  0  0  0  0  0  0  0  0
    2.9573   -1.8355    0.5229 C   0  0  0  0  0  0  0  0  0  0  0  0
    2.1027   -1.2294    1.6402 C   0  0  0  0  0  0  0  0  0  0  0  0
    4.3868   -3.2921    2.0781 C   0  0  0  0  0  0  0  0  0  0  0  0
    3.8832   -3.1894    3.2073 O   0  0  0  0  0  0  0  0  0  0  0  0
    4.9583   -4.3975    1.6317 N   0  0  0  0  0  0  0  0  0  0  0  0
    4.8451   -5.7189    2.2686 C   0  0  0  0  0  0  0  0  0  0  0  0
    5.4341   -4.2699    0.2683 C   0  0  0  0  0  0  0  0  0  0  0  0
    5.3132   -2.7529   -0.1023 C   0  0  1  0  0  0  0  0  0  0  0  0
    4.9013   -2.4676   -1.5581 C   0  0  0  0  0  0  0  0  0  0  0  0
    4.6626   -3.4841   -2.5170 C   0  0  0  0  0  0  0  0  0  0  0  0
    4.1150   -3.1025   -3.7440 C   0  0  0  0  0  0  0  0  0  0  0  0
    3.8444   -1.8214   -4.0388 N   0  0  0  0  0  0  0  0  0  0  0  0
    4.1852   -0.9092   -3.1254 C   0  0  0  0  0  0  0  0  0  0  0  0
    4.7492   -1.1617   -1.9217 N   0  0  0  0  0  0  0  0  0  0  0  0
    0.8028    1.5248    2.1343 C   0  0  0  0  0  0  0  0  0  0  0  0
   -0.2307    2.0504    2.9504 O   0  0  0  0  0  0  0  0  0  0  0  0
   -1.0425    1.0143    3.4860 C   0  0  0  0  0  0  0  0  0  0  0  0
   -2.0181   -1.1522    4.7484 H   0  0  0  0  0  0  0  0  0  0  0  0
   -1.1904   -0.3800    6.1176 H   0  0  0  0  0  0  0  0  0  0  0  0
   -0.5519   -1.8599    5.3866 H   0  0  0  0  0  0  0  0  0  0  0  0
    2.9002   -0.6204    5.2318 H   0  0  0  0  0  0  0  0  0  0  0  0
    2.1271   -2.0078    4.4128 H   0  0  0  0  0  0  0  0  0  0  0  0
    1.4779   -1.3629    5.9014 H   0  0  0  0  0  0  0  0  0  0  0  0
    2.3765    1.5099    3.5485 H   0  0  0  0  0  0  0  0  0  0  0  0
    4.5086    0.6946    3.0581 H   0  0  0  0  0  0  0  0  0  0  0  0
    4.0466   -0.9067    3.5366 H   0  0  0  0  0  0  0  0  0  0  0  0
    5.2312   -0.1132    0.8725 H   0  0  0  0  0  0  0  0  0  0  0  0
    5.9678   -1.0646    2.1363 H   0  0  0  0  0  0  0  0  0  0  0  0
    2.9499   -1.1106   -0.2877 H   0  0  0  0  0  0  0  0  0  0  0  0
    2.4698   -2.7439    0.1598 H   0  0  0  0  0  0  0  0  0  0  0  0
    1.9287   -1.9851    2.4044 H   0  0  0  0  0  0  0  0  0  0  0  0
    1.0946   -0.9905    1.2763 H   0  0  0  0  0  0  0  0  0  0  0  0
    4.3061   -5.6599    3.2187 H   0  0  0  0  0  0  0  0  0  0  0  0
    5.8438   -6.0926    2.4838 H   0  0  0  0  0  0  0  0  0  0  0  0
    4.2929   -6.4369    1.6557 H   0  0  0  0  0  0  0  0  0  0  0  0
    6.4805   -4.5933    0.1839 H   0  0  0  0  0  0  0  0  0  0  0  0
    4.7575   -4.9090   -0.3076 H   0  0  0  0  0  0  0  0  0  0  0  0
    6.3092   -2.3189    0.0427 H   0  0  0  0  0  0  0  0  0  0  0  0
    4.8219   -4.5386   -2.3291 H   0  0  0  0  0  0  0  0  0  0  0  0
    3.9057   -3.8403   -4.5077 H   0  0  0  0  0  0  0  0  0  0  0  0
    3.9286    0.1146   -3.3546 H   0  0  0  0  0  0  0  0  0  0  0  0
    1.3119    2.3422    1.6132 H   0  0  0  0  0  0  0  0  0  0  0  0
    0.3445    0.9301    1.3337 H   0  0  0  0  0  0  0  0  0  0  0  0
   -1.6476    0.5512    2.7015 H   0  0  0  0  0  0  0  0  0  0  0  0
   -1.7299    1.5031    4.1773 H   0  0  0  0  0  0  0  0  0  0  0  0
  1  2  1  0
  1 27  1  0
  1 28  1  0
  1 29  1  0
  2 26  1  0
  2  3  2  0
  3  4  1  0
  3  5  1  0
  4 30  1  0
  4 31  1  0
  4 32  1  0
  5  6  1  0
  5 24  1  0
  5 33  1  1
  6 11  1  0
  6  7  1  0
  7  8  1  0
  7 34  1  0
  7 35  1  0
  8  9  1  0
  8 36  1  0
  8 37  1  0
  9 17  1  0
  9 10  1  0
  9 12  1  0
 10 11  1  0
 10 38  1  0
 10 39  1  0
 11 40  1  0
 11 41  1  0
 12 13  2  0
 12 14  1  0
 14 15  1  0
 14 16  1  0
 15 42  1  0
 15 43  1  0
 15 44  1  0
 16 17  1  0
 16 45  1  0
 16 46  1  0
 17 18  1  0
 17 47  1  1
 18 23  1  0
 18 19  2  0
 19 20  1  0
 19 48  1  0
 20 21  2  0
 20 49  1  0
 21 22  1  0
 22 23  2  0
 22 50  1  0
 24 25  1  0
 24 51  1  0
 24 52  1  0
 25 26  1  0
 26 53  1  0
 26 54  1  0
M  END
>  <i_m_ct_stereo_status>  (220) 
1

>  <s_m_source_file>  (220) 
/var/tmp/pbs.5076255.sched01/tmpstc2q6q5/48db17pvb_.sdf

>  <i_m_source_file_index>  (220) 
38

>  <i_lp_mmshare_version>  (220) 
48012

>  <i_f3d_flags>  (220) 
0

>  <s_epik_input>  (220) 
W0NIM11DMT1DKFtDSDNdKVtDQEhdKFtDSDJdT1tDSDJdMSlOKFtDSDJdW0NIMl0yKVtDSDJdW0NIMl1DMjNDKD1PKU4oW0NIM10pW0NIMl1bQ0BIXTNjNFtjSF1bY0hdbltjSF1uNA==

>  <s_epik_cmdline>  (220) 
J2VwaWtfcHl0aG9uJywgJy1waHQnLCAnMi4wJywgJy1waCcsICc3LjAnLCAnLXRuJywgJzgnLCAnLW1hJywgJzIwMCcsICctaW1hZScsICc8aW5maWxlLm1hZT4nLCAnLW9tYWUnLCAnPG91dGZpbGUubWFlPic=

>  <r_lp_tautomer_probability>  (220) 
1

>  <r_epik_Ionization_Penalty>  (220) 
0.302859

>  <r_epik_Ionization_Penalty_Charging>  (220) 
0

>  <r_epik_Ionization_Penalty_Neutral>  (220) 
0.302859

>  <r_epik_State_Penalty>  (220) 
0.296459

>  <r_epik_Charging_Adjusted_Penalty>  (220) 
0.296459

>  <i_epik_Tot_Q>  (220) 
0

>  <i_epik_Tot_abs_Q>  (220) 
0

>  <s_epik_Chemistry_Notes>  (220) 
This compound contains an electron-poor aromatic ring that is susceptible to covalent hydrolysis at low pH, typically resulting in measured values for nitrogen ring protonation that are around two units higher than predicted values.

>  <s_lp_Force_Field>  (220) 
OPLS3e

>  <r_lp_Energy>  (220) 
22.9813

>  <b_lp_Chiralities_Consistent>  (220) 
1

>  <s_lp_Variant>  (220) 
47:0-1

>  <s_i_glide_gridfile>  (220) 
pfpi4k_grid

>  <i_i_glide_lignum>  (220) 
38

>  <i_i_glide_rotatable_bonds>  (220) 
2

>  <r_i_docking_score>  (220) 
-3.31369

>  <r_i_glide_ligand_efficiency>  (220) 
-0.12745

>  <r_i_glide_ligand_efficiency_sa>  (220) 
-0.377569

>  <r_i_glide_ligand_efficiency_ln>  (220) 
-0.77821

>  <r_i_glide_gscore>  (220) 
-3.31369

>  <r_i_glide_lipo>  (220) 
-0.421203

>  <r_i_glide_hbond>  (220) 
-0.175679

>  <r_i_glide_metal>  (220) 
-0

>  <r_i_glide_rewards>  (220) 
-1.20703

>  <r_i_glide_evdw>  (220) 
-30.3242

>  <r_i_glide_ecoul>  (220) 
-1.96478

>  <r_i_glide_erotb>  (220) 
0.301147

>  <r_i_glide_esite>  (220) 
0

>  <r_i_glide_emodel>  (220) 
-32.1465

>  <r_i_glide_energy>  (220) 
-32.289

>  <r_i_glide_einternal>  (220) 
9.8767

>  <r_i_glide_intrahb_reward>  (220) 
-0

>  <i_i_glide_confnum>  (220) 
3

>  <i_i_glide_posenum>  (220) 
31

>  <r_i_glide_eff_state_penalty>  (220) 
0

>  <ligand_id>  (220) 
47

>  <original_smiles>  (220) 
CC1=C(C)C(N2CCC3(CC2)C(=O)N(C)CC3c2ccncn2)COC1

>  <smiles>  (220) 
[H]c1nc([H])c([H])c(C2([H])C([H])([H])N(C([H])([H])[H])C(=O)C23C([H])([H])C([H])([H])N(C2([H])C(C([H])([H])[H])=C(C([H])([H])[H])C([H])([H])OC2([H])[H])C([H])([H])C3([H])[H])n1

$$$$
47:0:1
     RDKit          3D

 54 57  0  0  1  0  0  0  0  0999 V2000
   -1.2147    0.8993    4.7790 C   0  0  0  0  0  0  0  0  0  0  0  0
    0.1293    1.1537    4.1377 C   0  0  0  0  0  0  0  0  0  0  0  0
    1.1970    0.3209    4.2400 C   0  0  0  0  0  0  0  0  0  0  0  0
    1.1456   -0.9556    5.1052 C   0  0  0  0  0  0  0  0  0  0  0  0
    2.4868    0.6438    3.4634 C   0  0  1  0  0  0  0  0  0  0  0  0
    3.0170   -0.4771    2.6993 N   0  0  0  0  0  0  0  0  0  0  0  0
    3.8244   -1.4598    3.4530 C   0  0  0  0  0  0  0  0  0  0  0  0
    4.4954   -2.5185    2.5493 C   0  0  0  0  0  0  0  0  0  0  0  0
    3.4393   -3.2233    1.6451 C   0  0  0  0  0  0  0  0  0  0  0  0
    2.6257   -2.1108    0.9404 C   0  0  0  0  0  0  0  0  0  0  0  0
    1.9729   -1.1343    1.8944 C   0  0  0  0  0  0  0  0  0  0  0  0
    2.5068   -4.1394    2.4748 C   0  0  0  0  0  0  0  0  0  0  0  0
    1.9172   -3.7705    3.4805 O   0  0  0  0  0  0  0  0  0  0  0  0
    2.4222   -5.3741    1.9581 N   0  0  0  0  0  0  0  0  0  0  0  0
    1.4931   -6.3963    2.4010 C   0  0  0  0  0  0  0  0  0  0  0  0
    3.2477   -5.5465    0.7628 C   0  0  0  0  0  0  0  0  0  0  0  0
    4.0720   -4.2090    0.6428 C   0  0  1  0  0  0  0  0  0  0  0  0
    4.2245   -3.7218   -0.8167 C   0  0  0  0  0  0  0  0  0  0  0  0
    5.4783   -3.4218   -1.3706 C   0  0  0  0  0  0  0  0  0  0  0  0
    5.4691   -2.9215   -2.6946 C   0  0  0  0  0  0  0  0  0  0  0  0
    4.3345   -2.7033   -3.3831 N   0  0  0  0  0  0  0  0  0  0  0  0
    3.1929   -3.0377   -2.7370 C   0  0  0  0  0  0  0  0  0  0  0  0
    3.0777   -3.5243   -1.5026 N   0  0  0  0  0  0  0  0  0  0  0  0
    2.3115    1.8541    2.5010 C   0  0  0  0  0  0  0  0  0  0  0  0
    1.5947    2.8681    3.1703 O   0  0  0  0  0  0  0  0  0  0  0  0
    0.2462    2.4794    3.3826 C   0  0  0  0  0  0  0  0  0  0  0  0
   -2.0343    1.2449    4.1357 H   0  0  0  0  0  0  0  0  0  0  0  0
   -1.2657    1.4283    5.7342 H   0  0  0  0  0  0  0  0  0  0  0  0
   -1.3819   -0.1636    4.9610 H   0  0  0  0  0  0  0  0  0  0  0  0
    2.1132   -1.1080    5.6153 H   0  0  0  0  0  0  0  0  0  0  0  0
    0.9423   -1.7841    4.4234 H   0  0  0  0  0  0  0  0  0  0  0  0
    0.3795   -0.9060    5.9011 H   0  0  0  0  0  0  0  0  0  0  0  0
    3.2420    0.9642    4.1865 H   0  0  0  0  0  0  0  0  0  0  0  0
    4.6115   -0.9466    4.0267 H   0  0  0  0  0  0  0  0  0  0  0  0
    3.2048   -1.9703    4.1854 H   0  0  0  0  0  0  0  0  0  0  0  0
    5.2752   -2.0332    1.9480 H   0  0  0  0  0  0  0  0  0  0  0  0
    5.0125   -3.2330    3.1962 H   0  0  0  0  0  0  0  0  0  0  0  0
    3.2279   -1.5301    0.2140 H   0  0  0  0  0  0  0  0  0  0  0  0
    1.8094   -2.5713    0.3886 H   0  0  0  0  0  0  0  0  0  0  0  0
    1.2501   -1.6245    2.5408 H   0  0  0  0  0  0  0  0  0  0  0  0
    1.4680   -0.3894    1.2515 H   0  0  0  0  0  0  0  0  0  0  0  0
    0.8793   -6.0379    3.2295 H   0  0  0  0  0  0  0  0  0  0  0  0
    2.0372   -7.2648    2.7784 H   0  0  0  0  0  0  0  0  0  0  0  0
    0.7917   -6.6979    1.6150 H   0  0  0  0  0  0  0  0  0  0  0  0
    3.9393   -6.4058    0.8741 H   0  0  0  0  0  0  0  0  0  0  0  0
    2.6098   -5.6971   -0.1194 H   0  0  0  0  0  0  0  0  0  0  0  0
    5.0531   -4.4906    1.0293 H   0  0  0  0  0  0  0  0  0  0  0  0
    6.4030   -3.5085   -0.8267 H   0  0  0  0  0  0  0  0  0  0  0  0
    6.3825   -2.6672   -3.2015 H   0  0  0  0  0  0  0  0  0  0  0  0
    2.2603   -2.8470   -3.2745 H   0  0  0  0  0  0  0  0  0  0  0  0
    3.2886    2.2211    2.1902 H   0  0  0  0  0  0  0  0  0  0  0  0
    1.7931    1.6211    1.5624 H   0  0  0  0  0  0  0  0  0  0  0  0
   -0.3112    2.4377    2.4400 H   0  0  0  0  0  0  0  0  0  0  0  0
   -0.1948    3.2757    3.9807 H   0  0  0  0  0  0  0  0  0  0  0  0
  1  2  1  0
  1 27  1  0
  1 28  1  0
  1 29  1  0
  2 26  1  0
  2  3  2  0
  3  4  1  0
  3  5  1  0
  4 30  1  0
  4 31  1  0
  4 32  1  0
  5  6  1  0
  5 24  1  0
  5 33  1  1
  6 11  1  0
  6  7  1  0
  7  8  1  0
  7 34  1  0
  7 35  1  0
  8  9  1  0
  8 36  1  0
  8 37  1  0
  9 17  1  0
  9 10  1  0
  9 12  1  0
 10 11  1  0
 10 38  1  0
 10 39  1  0
 11 40  1  0
 11 41  1  0
 12 13  2  0
 12 14  1  0
 14 15  1  0
 14 16  1  0
 15 42  1  0
 15 43  1  0
 15 44  1  0
 16 17  1  0
 16 45  1  0
 16 46  1  0
 17 18  1  0
 17 47  1  1
 18 23  1  0
 18 19  2  0
 19 20  1  0
 19 48  1  0
 20 21  2  0
 20 49  1  0
 21 22  1  0
 22 23  2  0
 22 50  1  0
 24 25  1  0
 24 51  1  0
 24 52  1  0
 25 26  1  0
 26 53  1  0
 26 54  1  0
M  END
>  <i_m_ct_stereo_status>  (221) 
1

>  <s_m_source_file>  (221) 
/var/tmp/pbs.5076255.sched01/tmpstc2q6q5/48db17pvb_.sdf

>  <i_m_source_file_index>  (221) 
38

>  <i_lp_mmshare_version>  (221) 
48012

>  <i_f3d_flags>  (221) 
0

>  <s_epik_input>  (221) 
W0NIM11DMT1DKFtDSDNdKVtDQEhdKFtDSDJdT1tDSDJdMSlOKFtDSDJdW0NIMl0yKVtDSDJdW0NIMl1DMjNDKD1PKU4oW0NIM10pW0NIMl1bQ0BIXTNjNFtjSF1bY0hdbltjSF1uNA==

>  <s_epik_cmdline>  (221) 
J2VwaWtfcHl0aG9uJywgJy1waHQnLCAnMi4wJywgJy1waCcsICc3LjAnLCAnLXRuJywgJzgnLCAnLW1hJywgJzIwMCcsICctaW1hZScsICc8aW5maWxlLm1hZT4nLCAnLW9tYWUnLCAnPG91dGZpbGUubWFlPic=

>  <r_lp_tautomer_probability>  (221) 
1

>  <r_epik_Ionization_Penalty>  (221) 
0.302859

>  <r_epik_Ionization_Penalty_Charging>  (221) 
0

>  <r_epik_Ionization_Penalty_Neutral>  (221) 
0.302859

>  <r_epik_State_Penalty>  (221) 
0.296459

>  <r_epik_Charging_Adjusted_Penalty>  (221) 
0.296459

>  <i_epik_Tot_Q>  (221) 
0

>  <i_epik_Tot_abs_Q>  (221) 
0

>  <s_epik_Chemistry_Notes>  (221) 
This compound contains an electron-poor aromatic ring that is susceptible to covalent hydrolysis at low pH, typically resulting in measured values for nitrogen ring protonation that are around two units higher than predicted values.

>  <s_lp_Force_Field>  (221) 
OPLS3e

>  <r_lp_Energy>  (221) 
22.9813

>  <b_lp_Chiralities_Consistent>  (221) 
1

>  <s_lp_Variant>  (221) 
47:0-1

>  <s_i_glide_gridfile>  (221) 
pfpi4k_grid

>  <i_i_glide_lignum>  (221) 
38

>  <i_i_glide_rotatable_bonds>  (221) 
2

>  <r_i_docking_score>  (221) 
-2.36008

>  <r_i_glide_ligand_efficiency>  (221) 
-0.0907722

>  <r_i_glide_ligand_efficiency_sa>  (221) 
-0.268912

>  <r_i_glide_ligand_efficiency_ln>  (221) 
-0.554257

>  <r_i_glide_gscore>  (221) 
-2.36008

>  <r_i_glide_lipo>  (221) 
-0.329787

>  <r_i_glide_hbond>  (221) 
0

>  <r_i_glide_metal>  (221) 
-0

>  <r_i_glide_rewards>  (221) 
-0.978669

>  <r_i_glide_evdw>  (221) 
-24.7978

>  <r_i_glide_ecoul>  (221) 
-0.412497

>  <r_i_glide_erotb>  (221) 
0.301147

>  <r_i_glide_esite>  (221) 
-0.0510027

>  <r_i_glide_emodel>  (221) 
-26.0866

>  <r_i_glide_energy>  (221) 
-25.2103

>  <r_i_glide_einternal>  (221) 
3.3507

>  <r_i_glide_intrahb_reward>  (221) 
-0

>  <i_i_glide_confnum>  (221) 
3

>  <i_i_glide_posenum>  (221) 
2

>  <r_i_glide_eff_state_penalty>  (221) 
0

>  <ligand_id>  (221) 
47

>  <original_smiles>  (221) 
CC1=C(C)C(N2CCC3(CC2)C(=O)N(C)CC3c2ccncn2)COC1

>  <smiles>  (221) 
[H]c1nc([H])c([H])c(C2([H])C([H])([H])N(C([H])([H])[H])C(=O)C23C([H])([H])C([H])([H])N(C2([H])C(C([H])([H])[H])=C(C([H])([H])[H])C([H])([H])OC2([H])[H])C([H])([H])C3([H])[H])n1

$$$$
47:0:2
     RDKit          3D

 54 57  0  0  1  0  0  0  0  0999 V2000
    3.5873   -2.1936   -4.0133 C   0  0  0  0  0  0  0  0  0  0  0  0
    3.8331   -2.1452   -2.5203 C   0  0  0  0  0  0  0  0  0  0  0  0
    3.0143   -2.6711   -1.5911 C   0  0  0  0  0  0  0  0  0  0  0  0
    1.6655   -3.3366   -1.9093 C   0  0  0  0  0  0  0  0  0  0  0  0
    3.3605   -2.5850   -0.1108 C   0  0  1  0  0  0  0  0  0  0  0  0
    3.0391   -3.8348    0.5489 N   0  0  0  0  0  0  0  0  0  0  0  0
    3.8253   -4.9900    0.0781 C   0  0  0  0  0  0  0  0  0  0  0  0
    3.2955   -6.3072    0.6394 C   0  0  0  0  0  0  0  0  0  0  0  0
    3.2114   -6.2767    2.1901 C   0  0  0  0  0  0  0  0  0  0  0  0
    2.4655   -4.9806    2.6188 C   0  0  0  0  0  0  0  0  0  0  0  0
    3.0395   -3.7173    2.0026 C   0  0  0  0  0  0  0  0  0  0  0  0
    4.6206   -6.3226    2.8092 C   0  0  0  0  0  0  0  0  0  0  0  0
    5.5288   -5.5294    2.4917 O   0  0  0  0  0  0  0  0  0  0  0  0
    4.7439   -7.2635    3.7256 N   0  0  0  0  0  0  0  0  0  0  0  0
    5.8816   -7.3920    4.6112 C   0  0  0  0  0  0  0  0  0  0  0  0
    3.5378   -8.0660    3.8850 C   0  0  0  0  0  0  0  0  0  0  0  0
    2.5783   -7.5771    2.7754 C   0  0  1  0  0  0  0  0  0  0  0  0
    1.0967   -7.5026    3.2164 C   0  0  0  0  0  0  0  0  0  0  0  0
    0.0395   -7.9115    2.3928 C   0  0  0  0  0  0  0  0  0  0  0  0
   -1.2715   -7.7145    2.9053 C   0  0  0  0  0  0  0  0  0  0  0  0
   -1.4924   -7.0599    4.0637 N   0  0  0  0  0  0  0  0  0  0  0  0
   -0.3995   -6.7281    4.7607 C   0  0  0  0  0  0  0  0  0  0  0  0
    0.8687   -6.9044    4.4063 N   0  0  0  0  0  0  0  0  0  0  0  0
    4.8213   -2.1080    0.1334 C   0  0  0  0  0  0  0  0  0  0  0  0
    5.1013   -1.0234   -0.7243 O   0  0  0  0  0  0  0  0  0  0  0  0
    5.0968   -1.4062   -2.0957 C   0  0  0  0  0  0  0  0  0  0  0  0
    4.5299   -2.3755   -4.5311 H   0  0  0  0  0  0  0  0  0  0  0  0
    3.1631   -1.2465   -4.3520 H   0  0  0  0  0  0  0  0  0  0  0  0
    2.9094   -2.9947   -4.3063 H   0  0  0  0  0  0  0  0  0  0  0  0
    0.9176   -3.0577   -1.1660 H   0  0  0  0  0  0  0  0  0  0  0  0
    1.7339   -4.4223   -1.8748 H   0  0  0  0  0  0  0  0  0  0  0  0
    1.2532   -3.0493   -2.8767 H   0  0  0  0  0  0  0  0  0  0  0  0
    2.7026   -1.8141    0.2926 H   0  0  0  0  0  0  0  0  0  0  0  0
    3.8258   -5.0508   -1.0108 H   0  0  0  0  0  0  0  0  0  0  0  0
    4.8720   -4.8761    0.3378 H   0  0  0  0  0  0  0  0  0  0  0  0
    2.3013   -6.4683    0.2069 H   0  0  0  0  0  0  0  0  0  0  0  0
    3.9253   -7.1225    0.2725 H   0  0  0  0  0  0  0  0  0  0  0  0
    1.4107   -5.0171    2.3149 H   0  0  0  0  0  0  0  0  0  0  0  0
    2.4808   -4.8733    3.7021 H   0  0  0  0  0  0  0  0  0  0  0  0
    4.0440   -3.5197    2.3694 H   0  0  0  0  0  0  0  0  0  0  0  0
    2.4240   -2.8706    2.3216 H   0  0  0  0  0  0  0  0  0  0  0  0
    6.6470   -6.6280    4.4094 H   0  0  0  0  0  0  0  0  0  0  0  0
    6.3649   -8.3638    4.4599 H   0  0  0  0  0  0  0  0  0  0  0  0
    5.6040   -7.2645    5.6674 H   0  0  0  0  0  0  0  0  0  0  0  0
    3.7545   -9.1357    3.7771 H   0  0  0  0  0  0  0  0  0  0  0  0
    3.1376   -7.8829    4.8815 H   0  0  0  0  0  0  0  0  0  0  0  0
    2.6427   -8.3535    2.0044 H   0  0  0  0  0  0  0  0  0  0  0  0
    0.1720   -8.3372    1.4155 H   0  0  0  0  0  0  0  0  0  0  0  0
   -2.1625   -7.9851    2.3487 H   0  0  0  0  0  0  0  0  0  0  0  0
   -0.5674   -6.1890    5.6915 H   0  0  0  0  0  0  0  0  0  0  0  0
    4.9664   -1.7965    1.1705 H   0  0  0  0  0  0  0  0  0  0  0  0
    5.5676   -2.8831   -0.0605 H   0  0  0  0  0  0  0  0  0  0  0  0
    5.9649   -2.0318   -2.3214 H   0  0  0  0  0  0  0  0  0  0  0  0
    5.1815   -0.4842   -2.6688 H   0  0  0  0  0  0  0  0  0  0  0  0
  1  2  1  0
  1 27  1  0
  1 28  1  0
  1 29  1  0
  2 26  1  0
  2  3  2  0
  3  4  1  0
  3  5  1  0
  4 30  1  0
  4 31  1  0
  4 32  1  0
  5  6  1  0
  5 24  1  0
  5 33  1  1
  6 11  1  0
  6  7  1  0
  7  8  1  0
  7 34  1  0
  7 35  1  0
  8  9  1  0
  8 36  1  0
  8 37  1  0
  9 17  1  0
  9 10  1  0
  9 12  1  0
 10 11  1  0
 10 38  1  0
 10 39  1  0
 11 40  1  0
 11 41  1  0
 12 13  2  0
 12 14  1  0
 14 15  1  0
 14 16  1  0
 15 42  1  0
 15 43  1  0
 15 44  1  0
 16 17  1  0
 16 45  1  0
 16 46  1  0
 17 18  1  0
 17 47  1  6
 18 23  1  0
 18 19  2  0
 19 20  1  0
 19 48  1  0
 20 21  2  0
 20 49  1  0
 21 22  1  0
 22 23  2  0
 22 50  1  0
 24 25  1  0
 24 51  1  0
 24 52  1  0
 25 26  1  0
 26 53  1  0
 26 54  1  0
M  END
>  <i_m_ct_stereo_status>  (222) 
1

>  <s_m_source_file>  (222) 
/var/tmp/pbs.5076255.sched01/tmpstc2q6q5/48db17pvb_.sdf

>  <i_m_source_file_index>  (222) 
38

>  <i_lp_mmshare_version>  (222) 
48012

>  <i_f3d_flags>  (222) 
0

>  <s_epik_input>  (222) 
W0NIM11DMT1DKFtDSDNdKVtDQEhdKFtDSDJdT1tDSDJdMSlOKFtDSDJdW0NIMl0yKVtDSDJdW0NIMl1DMjNDKD1PKU4oW0NIM10pW0NIMl1bQ0BIXTNjNFtjSF1bY0hdbltjSF1uNA==

>  <s_epik_cmdline>  (222) 
J2VwaWtfcHl0aG9uJywgJy1waHQnLCAnMi4wJywgJy1waCcsICc3LjAnLCAnLXRuJywgJzgnLCAnLW1hJywgJzIwMCcsICctaW1hZScsICc8aW5maWxlLm1hZT4nLCAnLW9tYWUnLCAnPG91dGZpbGUubWFlPic=

>  <r_lp_tautomer_probability>  (222) 
1

>  <r_epik_Ionization_Penalty>  (222) 
0.302859

>  <r_epik_Ionization_Penalty_Charging>  (222) 
0

>  <r_epik_Ionization_Penalty_Neutral>  (222) 
0.302859

>  <r_epik_State_Penalty>  (222) 
0.296459

>  <r_epik_Charging_Adjusted_Penalty>  (222) 
0.296459

>  <i_epik_Tot_Q>  (222) 
0

>  <i_epik_Tot_abs_Q>  (222) 
0

>  <s_epik_Chemistry_Notes>  (222) 
This compound contains an electron-poor aromatic ring that is susceptible to covalent hydrolysis at low pH, typically resulting in measured values for nitrogen ring protonation that are around two units higher than predicted values.

>  <s_lp_Force_Field>  (222) 
OPLS3e

>  <r_lp_Energy>  (222) 
22.9813

>  <b_lp_Chiralities_Consistent>  (222) 
1

>  <s_lp_Variant>  (222) 
47:0-1

>  <s_i_glide_gridfile>  (222) 
pfpi4k_grid

>  <i_i_glide_lignum>  (222) 
38

>  <i_i_glide_rotatable_bonds>  (222) 
2

>  <r_i_docking_score>  (222) 
-2.1094

>  <r_i_glide_ligand_efficiency>  (222) 
-0.0811308

>  <r_i_glide_ligand_efficiency_sa>  (222) 
-0.24035

>  <r_i_glide_ligand_efficiency_ln>  (222) 
-0.495386

>  <r_i_glide_gscore>  (222) 
-2.1094

>  <r_i_glide_lipo>  (222) 
-0.0340739

>  <r_i_glide_hbond>  (222) 
0

>  <r_i_glide_metal>  (222) 
-0

>  <r_i_glide_rewards>  (222) 
-0.978669

>  <r_i_glide_evdw>  (222) 
-25.5506

>  <r_i_glide_ecoul>  (222) 
-0.599288

>  <r_i_glide_erotb>  (222) 
0.301147

>  <r_i_glide_esite>  (222) 
-0.0303805

>  <r_i_glide_emodel>  (222) 
-28.5013

>  <r_i_glide_energy>  (222) 
-26.1499

>  <r_i_glide_einternal>  (222) 
0.15305

>  <r_i_glide_intrahb_reward>  (222) 
-0

>  <i_i_glide_confnum>  (222) 
4

>  <i_i_glide_posenum>  (222) 
34

>  <r_i_glide_eff_state_penalty>  (222) 
0

>  <ligand_id>  (222) 
47

>  <original_smiles>  (222) 
CC1=C(C)C(N2CCC3(CC2)C(=O)N(C)CC3c2ccncn2)COC1

>  <smiles>  (222) 
[H]c1nc([H])c([H])c(C2([H])C([H])([H])N(C([H])([H])[H])C(=O)C23C([H])([H])C([H])([H])N(C2([H])C(C([H])([H])[H])=C(C([H])([H])[H])C([H])([H])OC2([H])[H])C([H])([H])C3([H])[H])n1

$$$$
47:1:0
     RDKit          3D

 55 58  0  0  1  0  0  0  0  0999 V2000
    0.7505    2.8149    4.8769 C   0  0  0  0  0  0  0  0  0  0  0  0
    0.8727    1.3506    4.4690 C   0  0  0  0  0  0  0  0  0  0  0  0
    1.0523    0.8882    3.2131 C   0  0  0  0  0  0  0  0  0  0  0  0
    1.1424    1.7664    1.9589 C   0  0  0  0  0  0  0  0  0  0  0  0
    1.2243   -0.6022    2.9673 C   0  0  1  0  0  0  0  0  0  0  0  0
    2.3440   -0.8623    2.0115 N   0  0  1  0  0  0  0  0  0  0  0  0
    3.6828   -0.4059    2.4580 C   0  0  0  0  0  0  0  0  0  0  0  0
    4.7079   -0.5268    1.3210 C   0  0  0  0  0  0  0  0  0  0  0  0
    4.7544   -1.9701    0.7326 C   0  0  2  0  0  0  0  0  0  0  0  0
    3.3168   -2.3998    0.3634 C   0  0  0  0  0  0  0  0  0  0  0  0
    2.3560   -2.2544    1.5298 C   0  0  0  0  0  0  0  0  0  0  0  0
    5.3958   -2.9448    1.7351 C   0  0  0  0  0  0  0  0  0  0  0  0
    5.0018   -3.0709    2.9126 O   0  0  0  0  0  0  0  0  0  0  0  0
    6.3709   -3.6504    1.2036 N   0  0  0  0  0  0  0  0  0  0  0  0
    6.9918   -4.8024    1.8455 C   0  0  0  0  0  0  0  0  0  0  0  0
    6.6533   -3.2971   -0.1700 C   0  0  0  0  0  0  0  0  0  0  0  0
    5.7323   -2.0822   -0.4672 C   0  0  1  0  0  0  0  0  0  0  0  0
    5.0917   -2.0671   -1.8709 C   0  0  0  0  0  0  0  0  0  0  0  0
    4.6560   -0.8847   -2.4927 C   0  0  0  0  0  0  0  0  0  0  0  0
    3.9987   -1.0308   -3.7493 C   0  0  0  0  0  0  0  0  0  0  0  0
    3.8050   -2.2388   -4.3126 N   0  0  0  0  0  0  0  0  0  0  0  0
    4.1896   -3.2915   -3.5841 C   0  0  0  0  0  0  0  0  0  0  0  0
    4.8187   -3.2673   -2.4099 N   0  0  0  0  0  0  0  0  0  0  0  0
    1.3783   -1.4236    4.2757 C   0  0  0  0  0  0  0  0  0  0  0  0
    0.4306   -0.9568    5.2188 O   0  0  0  0  0  0  0  0  0  0  0  0
    0.7272    0.3712    5.6394 C   0  0  0  0  0  0  0  0  0  0  0  0
    1.3357    3.0083    5.7799 H   0  0  0  0  0  0  0  0  0  0  0  0
   -0.2960    3.0543    5.0748 H   0  0  0  0  0  0  0  0  0  0  0  0
    1.1198    3.5124    4.1287 H   0  0  0  0  0  0  0  0  0  0  0  0
    0.6445    1.3068    1.1000 H   0  0  0  0  0  0  0  0  0  0  0  0
    2.1837    1.9602    1.7008 H   0  0  0  0  0  0  0  0  0  0  0  0
    0.6772    2.7361    2.0882 H   0  0  0  0  0  0  0  0  0  0  0  0
    0.3077   -0.9198    2.4874 H   0  0  0  0  0  0  0  0  0  0  0  0
    3.6626    0.6285    2.7681 H   0  0  0  0  0  0  0  0  0  0  0  0
    4.0144   -0.9582    3.3295 H   0  0  0  0  0  0  0  0  0  0  0  0
    4.4424    0.2037    0.5499 H   0  0  0  0  0  0  0  0  0  0  0  0
    5.6888   -0.2173    1.6890 H   0  0  0  0  0  0  0  0  0  0  0  0
    2.9049   -1.8109   -0.4653 H   0  0  0  0  0  0  0  0  0  0  0  0
    3.3017   -3.4332    0.0266 H   0  0  0  0  0  0  0  0  0  0  0  0
    2.5240   -2.9691    2.3317 H   0  0  0  0  0  0  0  0  0  0  0  0
    1.4175   -2.5043    1.1261 H   0  0  0  0  0  0  0  0  0  0  0  0
    6.5955   -4.9689    2.8575 H   0  0  0  0  0  0  0  0  0  0  0  0
    8.0673   -4.6316    1.9543 H   0  0  0  0  0  0  0  0  0  0  0  0
    6.8119   -5.7396    1.3027 H   0  0  0  0  0  0  0  0  0  0  0  0
    7.7009   -3.0332   -0.3082 H   0  0  0  0  0  0  0  0  0  0  0  0
    6.4182   -4.1741   -0.7597 H   0  0  0  0  0  0  0  0  0  0  0  0
    6.3940   -1.2233   -0.4092 H   0  0  0  0  0  0  0  0  0  0  0  0
    4.7740    0.1073   -2.0792 H   0  0  0  0  0  0  0  0  0  0  0  0
    3.6410   -0.1837   -4.3177 H   0  0  0  0  0  0  0  0  0  0  0  0
    4.0329   -4.2619   -4.0247 H   0  0  0  0  0  0  0  0  0  0  0  0
    1.2082   -2.4892    4.1042 H   0  0  0  0  0  0  0  0  0  0  0  0
    2.3692   -1.3473    4.7330 H   0  0  0  0  0  0  0  0  0  0  0  0
    1.6346    0.3904    6.2477 H   0  0  0  0  0  0  0  0  0  0  0  0
   -0.0999    0.6745    6.2781 H   0  0  0  0  0  0  0  0  0  0  0  0
    2.1088   -0.3148    1.1835 H   0  0  0  0  0  0  0  0  0  0  0  0
  1  2  1  0
  1 27  1  0
  1 28  1  0
  1 29  1  0
  2 26  1  0
  2  3  2  0
  3  4  1  0
  3  5  1  0
  4 30  1  0
  4 31  1  0
  4 32  1  0
  5  6  1  0
  5 24  1  0
  5 33  1  6
  6 11  1  0
  6  7  1  0
  6 55  1  6
  7  8  1  0
  7 34  1  0
  7 35  1  0
  9  8  1  1
  8 36  1  0
  8 37  1  0
  9 17  1  0
  9 10  1  0
  9 12  1  0
 10 11  1  0
 10 38  1  0
 10 39  1  0
 11 40  1  0
 11 41  1  0
 12 13  2  0
 12 14  1  0
 14 15  1  0
 14 16  1  0
 15 42  1  0
 15 43  1  0
 15 44  1  0
 16 17  1  0
 16 45  1  0
 16 46  1  0
 17 18  1  0
 17 47  1  6
 18 23  1  0
 18 19  2  0
 19 20  1  0
 19 48  1  0
 20 21  2  0
 20 49  1  0
 21 22  1  0
 22 23  2  0
 22 50  1  0
 24 25  1  0
 24 51  1  0
 24 52  1  0
 25 26  1  0
 26 53  1  0
 26 54  1  0
M  CHG  1   6   1
M  END
>  <i_m_ct_stereo_status>  (223) 
1

>  <s_m_source_file>  (223) 
/var/tmp/pbs.5076255.sched01/tmpstc2q6q5/48db17pvb_.sdf

>  <i_m_source_file_index>  (223) 
39

>  <i_lp_mmshare_version>  (223) 
48012

>  <i_f3d_flags>  (223) 
0

>  <s_epik_input>  (223) 
W0NIM11DMT1DKFtDSDNdKVtDQEhdKFtDSDJdT1tDSDJdMSlOKFtDSDJdW0NIMl0yKVtDSDJdW0NIMl1DMjNDKD1PKU4oW0NIM10pW0NIMl1bQ0BIXTNjNFtjSF1bY0hdbltjSF1uNA==

>  <s_epik_cmdline>  (223) 
J2VwaWtfcHl0aG9uJywgJy1waHQnLCAnMi4wJywgJy1waCcsICc3LjAnLCAnLXRuJywgJzgnLCAnLW1hJywgJzIwMCcsICctaW1hZScsICc8aW5maWxlLm1hZT4nLCAnLW9tYWUnLCAnPG91dGZpbGUubWFlPic=

>  <r_lp_tautomer_probability>  (223) 
1

>  <r_epik_Ionization_Penalty>  (223) 
0.542613

>  <r_epik_Ionization_Penalty_Charging>  (223) 
0.54261

>  <r_epik_Ionization_Penalty_Neutral>  (223) 
3.47276e-06

>  <r_epik_State_Penalty>  (223) 
0.552309

>  <r_epik_Charging_Adjusted_Penalty>  (223) 
1.09492

>  <i_epik_Tot_Q>  (223) 
1

>  <i_epik_Tot_abs_Q>  (223) 
1

>  <s_epik_Chemistry_Notes>  (223) 
This compound contains an electron-poor aromatic ring that is susceptible to covalent hydrolysis at low pH, typically resulting in measured values for nitrogen ring protonation that are around two units higher than predicted values.

>  <s_lp_Force_Field>  (223) 
OPLS3e

>  <r_lp_Energy>  (223) 
32.2455

>  <b_lp_Chiralities_Consistent>  (223) 
1

>  <s_lp_Variant>  (223) 
47:0-2

>  <s_i_glide_gridfile>  (223) 
pfpi4k_grid

>  <i_i_glide_lignum>  (223) 
39

>  <i_i_glide_rotatable_bonds>  (223) 
2

>  <r_i_docking_score>  (223) 
-4.37834

>  <r_i_glide_ligand_efficiency>  (223) 
-0.168398

>  <r_i_glide_ligand_efficiency_sa>  (223) 
-0.498877

>  <r_i_glide_ligand_efficiency_ln>  (223) 
-1.02824

>  <r_i_glide_gscore>  (223) 
-4.37834

>  <r_i_glide_lipo>  (223) 
-0.558063

>  <r_i_glide_hbond>  (223) 
-0.32

>  <r_i_glide_metal>  (223) 
-0

>  <r_i_glide_rewards>  (223) 
-1.44466

>  <r_i_glide_evdw>  (223) 
-26.438

>  <r_i_glide_ecoul>  (223) 
-6.59266

>  <r_i_glide_erotb>  (223) 
0.299636

>  <r_i_glide_esite>  (223) 
-0.0444486

>  <r_i_glide_emodel>  (223) 
-41.6035

>  <r_i_glide_energy>  (223) 
-33.0307

>  <r_i_glide_einternal>  (223) 
1.29995

>  <r_i_glide_intrahb_reward>  (223) 
-0

>  <i_i_glide_confnum>  (223) 
1

>  <i_i_glide_posenum>  (223) 
13

>  <r_i_glide_eff_state_penalty>  (223) 
0

>  <ligand_id>  (223) 
47

>  <original_smiles>  (223) 
CC1=C(C)C(N2CCC3(CC2)C(=O)N(C)CC3c2ccncn2)COC1

>  <smiles>  (223) 
[H]c1nc([H])c([H])c(C2([H])C([H])([H])N(C([H])([H])[H])C(=O)C23C([H])([H])C([H])([H])[N+]([H])(C2([H])C(C([H])([H])[H])=C(C([H])([H])[H])C([H])([H])OC2([H])[H])C([H])([H])C3([H])[H])n1

$$$$
47:1:1
     RDKit          3D

 55 58  0  0  1  0  0  0  0  0999 V2000
    0.7787    2.8768    5.0704 C   0  0  0  0  0  0  0  0  0  0  0  0
    0.9484    1.4163    4.6790 C   0  0  0  0  0  0  0  0  0  0  0  0
    1.0605    0.9349    3.4216 C   0  0  0  0  0  0  0  0  0  0  0  0
    0.9959    1.7847    2.1398 C   0  0  0  0  0  0  0  0  0  0  0  0
    1.2904   -0.5497    3.1934 C   0  0  1  0  0  0  0  0  0  0  0  0
    2.3454   -0.7685    2.1460 N   0  0  1  0  0  0  0  0  0  0  0  0
    3.6960   -0.2754    2.4985 C   0  0  0  0  0  0  0  0  0  0  0  0
    4.6456   -0.3495    1.2847 C   0  0  0  0  0  0  0  0  0  0  0  0
    4.6977   -1.7956    0.6859 C   0  0  2  0  0  0  0  0  0  0  0  0
    3.2343   -2.2576    0.4365 C   0  0  0  0  0  0  0  0  0  0  0  0
    2.3423   -2.1549    1.6673 C   0  0  0  0  0  0  0  0  0  0  0  0
    5.4236   -2.7508    1.6423 C   0  0  0  0  0  0  0  0  0  0  0  0
    5.1290   -2.8772    2.8267 O   0  0  0  0  0  0  0  0  0  0  0  0
    6.3951   -3.4331    1.0228 N   0  0  0  0  0  0  0  0  0  0  0  0
    7.0926   -4.5746    1.6041 C   0  0  0  0  0  0  0  0  0  0  0  0
    6.5729   -3.0474   -0.3652 C   0  0  0  0  0  0  0  0  0  0  0  0
    5.6003   -1.8708   -0.5782 C   0  0  1  0  0  0  0  0  0  0  0  0
    4.8375   -1.9097   -1.9197 C   0  0  0  0  0  0  0  0  0  0  0  0
    4.3082   -3.1169   -2.4310 C   0  0  0  0  0  0  0  0  0  0  0  0
    3.6109   -3.0488   -3.6445 C   0  0  0  0  0  0  0  0  0  0  0  0
    3.4484   -1.8756   -4.3080 N   0  0  0  0  0  0  0  0  0  0  0  0
    3.9403   -0.7873   -3.7120 C   0  0  0  0  0  0  0  0  0  0  0  0
    4.6276   -0.7449   -2.5598 N   0  0  0  0  0  0  0  0  0  0  0  0
    1.5921   -1.3356    4.5046 C   0  0  0  0  0  0  0  0  0  0  0  0
    0.6885   -0.8949    5.4986 O   0  0  0  0  0  0  0  0  0  0  0  0
    0.9508    0.4510    5.8717 C   0  0  0  0  0  0  0  0  0  0  0  0
    1.4099    3.1135    5.9317 H   0  0  0  0  0  0  0  0  0  0  0  0
   -0.2603    3.0592    5.3502 H   0  0  0  0  0  0  0  0  0  0  0  0
    1.0467    3.5771    4.2744 H   0  0  0  0  0  0  0  0  0  0  0  0
    0.4785    1.2708    1.3219 H   0  0  0  0  0  0  0  0  0  0  0  0
    2.0038    2.0243    1.8003 H   0  0  0  0  0  0  0  0  0  0  0  0
    0.4835    2.7301    2.3003 H   0  0  0  0  0  0  0  0  0  0  0  0
    0.3506   -0.9289    2.7949 H   0  0  0  0  0  0  0  0  0  0  0  0
    3.6552    0.7696    2.8132 H   0  0  0  0  0  0  0  0  0  0  0  0
    4.1174   -0.8294    3.3422 H   0  0  0  0  0  0  0  0  0  0  0  0
    4.3071    0.3777    0.5452 H   0  0  0  0  0  0  0  0  0  0  0  0
    5.6354   -0.0148    1.5890 H   0  0  0  0  0  0  0  0  0  0  0  0
    2.7558   -1.6841   -0.3591 H   0  0  0  0  0  0  0  0  0  0  0  0
    3.2116   -3.3005    0.1209 H   0  0  0  0  0  0  0  0  0  0  0  0
    2.6056   -2.8749    2.4480 H   0  0  0  0  0  0  0  0  0  0  0  0
    1.3478   -2.4136    1.3418 H   0  0  0  0  0  0  0  0  0  0  0  0
    6.7511   -4.7645    2.6213 H   0  0  0  0  0  0  0  0  0  0  0  0
    8.1579   -4.3571    1.6467 H   0  0  0  0  0  0  0  0  0  0  0  0
    6.9025   -5.4983    1.0524 H   0  0  0  0  0  0  0  0  0  0  0  0
    7.6070   -2.7310   -0.5637 H   0  0  0  0  0  0  0  0  0  0  0  0
    6.3407   -3.9160   -0.9867 H   0  0  0  0  0  0  0  0  0  0  0  0
    6.2354   -0.9817   -0.5615 H   0  0  0  0  0  0  0  0  0  0  0  0
    4.3472   -4.0625   -1.9109 H   0  0  0  0  0  0  0  0  0  0  0  0
    3.1465   -3.9175   -4.0645 H   0  0  0  0  0  0  0  0  0  0  0  0
    3.8066    0.1265   -4.2598 H   0  0  0  0  0  0  0  0  0  0  0  0
    1.4702   -2.4128    4.3627 H   0  0  0  0  0  0  0  0  0  0  0  0
    2.6053   -1.1941    4.8893 H   0  0  0  0  0  0  0  0  0  0  0  0
    1.9019    0.5336    6.4054 H   0  0  0  0  0  0  0  0  0  0  0  0
    0.1613    0.7273    6.5685 H   0  0  0  0  0  0  0  0  0  0  0  0
    2.0334   -0.2242    1.3463 H   0  0  0  0  0  0  0  0  0  0  0  0
  1  2  1  0
  1 27  1  0
  1 28  1  0
  1 29  1  0
  2 26  1  0
  2  3  2  0
  3  4  1  0
  3  5  1  0
  4 30  1  0
  4 31  1  0
  4 32  1  0
  5  6  1  0
  5 24  1  0
  5 33  1  6
  6 11  1  0
  6  7  1  0
  6 55  1  6
  7  8  1  0
  7 34  1  0
  7 35  1  0
  9  8  1  1
  8 36  1  0
  8 37  1  0
  9 17  1  0
  9 10  1  0
  9 12  1  0
 10 11  1  0
 10 38  1  0
 10 39  1  0
 11 40  1  0
 11 41  1  0
 12 13  2  0
 12 14  1  0
 14 15  1  0
 14 16  1  0
 15 42  1  0
 15 43  1  0
 15 44  1  0
 16 17  1  0
 16 45  1  0
 16 46  1  0
 17 18  1  0
 17 47  1  6
 18 23  1  0
 18 19  2  0
 19 20  1  0
 19 48  1  0
 20 21  2  0
 20 49  1  0
 21 22  1  0
 22 23  2  0
 22 50  1  0
 24 25  1  0
 24 51  1  0
 24 52  1  0
 25 26  1  0
 26 53  1  0
 26 54  1  0
M  CHG  1   6   1
M  END
>  <i_m_ct_stereo_status>  (224) 
1

>  <s_m_source_file>  (224) 
/var/tmp/pbs.5076255.sched01/tmpstc2q6q5/48db17pvb_.sdf

>  <i_m_source_file_index>  (224) 
39

>  <i_lp_mmshare_version>  (224) 
48012

>  <i_f3d_flags>  (224) 
0

>  <s_epik_input>  (224) 
W0NIM11DMT1DKFtDSDNdKVtDQEhdKFtDSDJdT1tDSDJdMSlOKFtDSDJdW0NIMl0yKVtDSDJdW0NIMl1DMjNDKD1PKU4oW0NIM10pW0NIMl1bQ0BIXTNjNFtjSF1bY0hdbltjSF1uNA==

>  <s_epik_cmdline>  (224) 
J2VwaWtfcHl0aG9uJywgJy1waHQnLCAnMi4wJywgJy1waCcsICc3LjAnLCAnLXRuJywgJzgnLCAnLW1hJywgJzIwMCcsICctaW1hZScsICc8aW5maWxlLm1hZT4nLCAnLW9tYWUnLCAnPG91dGZpbGUubWFlPic=

>  <r_lp_tautomer_probability>  (224) 
1

>  <r_epik_Ionization_Penalty>  (224) 
0.542613

>  <r_epik_Ionization_Penalty_Charging>  (224) 
0.54261

>  <r_epik_Ionization_Penalty_Neutral>  (224) 
3.47276e-06

>  <r_epik_State_Penalty>  (224) 
0.552309

>  <r_epik_Charging_Adjusted_Penalty>  (224) 
1.09492

>  <i_epik_Tot_Q>  (224) 
1

>  <i_epik_Tot_abs_Q>  (224) 
1

>  <s_epik_Chemistry_Notes>  (224) 
This compound contains an electron-poor aromatic ring that is susceptible to covalent hydrolysis at low pH, typically resulting in measured values for nitrogen ring protonation that are around two units higher than predicted values.

>  <s_lp_Force_Field>  (224) 
OPLS3e

>  <r_lp_Energy>  (224) 
32.2455

>  <b_lp_Chiralities_Consistent>  (224) 
1

>  <s_lp_Variant>  (224) 
47:0-2

>  <s_i_glide_gridfile>  (224) 
pfpi4k_grid

>  <i_i_glide_lignum>  (224) 
39

>  <i_i_glide_rotatable_bonds>  (224) 
2

>  <r_i_docking_score>  (224) 
-4.26884

>  <r_i_glide_ligand_efficiency>  (224) 
-0.164186

>  <r_i_glide_ligand_efficiency_sa>  (224) 
-0.486401

>  <r_i_glide_ligand_efficiency_ln>  (224) 
-1.00252

>  <r_i_glide_gscore>  (224) 
-4.26884

>  <r_i_glide_lipo>  (224) 
-0.555995

>  <r_i_glide_hbond>  (224) 
-0.304963

>  <r_i_glide_metal>  (224) 
-0

>  <r_i_glide_rewards>  (224) 
-1.48036

>  <r_i_glide_evdw>  (224) 
-27.0464

>  <r_i_glide_ecoul>  (224) 
-5.59421

>  <r_i_glide_erotb>  (224) 
0.299636

>  <r_i_glide_esite>  (224) 
-0.0357087

>  <r_i_glide_emodel>  (224) 
-41.3689

>  <r_i_glide_energy>  (224) 
-32.6406

>  <r_i_glide_einternal>  (224) 
1.16941

>  <r_i_glide_intrahb_reward>  (224) 
-0

>  <i_i_glide_confnum>  (224) 
5

>  <i_i_glide_posenum>  (224) 
1

>  <r_i_glide_eff_state_penalty>  (224) 
0

>  <ligand_id>  (224) 
47

>  <original_smiles>  (224) 
CC1=C(C)C(N2CCC3(CC2)C(=O)N(C)CC3c2ccncn2)COC1

>  <smiles>  (224) 
[H]c1nc([H])c([H])c(C2([H])C([H])([H])N(C([H])([H])[H])C(=O)C23C([H])([H])C([H])([H])[N+]([H])(C2([H])C(C([H])([H])[H])=C(C([H])([H])[H])C([H])([H])OC2([H])[H])C([H])([H])C3([H])[H])n1

$$$$
47:1:2
     RDKit          3D

 55 58  0  0  1  0  0  0  0  0999 V2000
   -0.9633   -1.0919    5.2326 C   0  0  0  0  0  0  0  0  0  0  0  0
   -0.2271   -0.1641    4.2722 C   0  0  0  0  0  0  0  0  0  0  0  0
    1.1063   -0.1220    4.1103 C   0  0  0  0  0  0  0  0  0  0  0  0
    2.0586   -0.9729    4.9618 C   0  0  0  0  0  0  0  0  0  0  0  0
    1.7070    0.7708    2.9991 C   0  0  1  0  0  0  0  0  0  0  0  0
    2.6530    0.0242    2.1166 N   0  0  1  0  0  0  0  0  0  0  0  0
    4.0509   -0.0604    2.6144 C   0  0  0  0  0  0  0  0  0  0  0  0
    4.9938   -0.6568    1.5428 C   0  0  0  0  0  0  0  0  0  0  0  0
    4.4541   -2.0287    1.0007 C   0  0  2  0  0  0  0  0  0  0  0  0
    2.9590   -1.8278    0.5564 C   0  0  0  0  0  0  0  0  0  0  0  0
    2.0787   -1.2965    1.7108 C   0  0  0  0  0  0  0  0  0  0  0  0
    4.5571   -3.0977    2.1336 C   0  0  0  0  0  0  0  0  0  0  0  0
    4.0751   -2.9634    3.2482 O   0  0  0  0  0  0  0  0  0  0  0  0
    5.2261   -4.1925    1.7137 N   0  0  0  0  0  0  0  0  0  0  0  0
    5.2136   -5.4725    2.4143 C   0  0  0  0  0  0  0  0  0  0  0  0
    5.6473   -4.1107    0.3393 C   0  0  0  0  0  0  0  0  0  0  0  0
    5.4028   -2.6211   -0.1039 C   0  0  1  0  0  0  0  0  0  0  0  0
    4.9433   -2.4360   -1.5680 C   0  0  0  0  0  0  0  0  0  0  0  0
    4.7943   -3.5241   -2.4411 C   0  0  0  0  0  0  0  0  0  0  0  0
    4.2074   -3.2428   -3.6955 C   0  0  0  0  0  0  0  0  0  0  0  0
    3.8387   -2.0022   -4.0462 N   0  0  0  0  0  0  0  0  0  0  0  0
    4.0990   -1.0180   -3.1685 C   0  0  0  0  0  0  0  0  0  0  0  0
    4.6715   -1.1737   -1.9710 N   0  0  0  0  0  0  0  0  0  0  0  0
    0.6196    1.4446    2.0970 C   0  0  0  0  0  0  0  0  0  0  0  0
   -0.4498    1.8919    2.9220 O   0  0  0  0  0  0  0  0  0  0  0  0
   -1.1541    0.7941    3.5041 C   0  0  0  0  0  0  0  0  0  0  0  0
   -1.8807   -1.4864    4.7834 H   0  0  0  0  0  0  0  0  0  0  0  0
   -1.2227   -0.5287    6.1270 H   0  0  0  0  0  0  0  0  0  0  0  0
   -0.3442   -1.9388    5.5150 H   0  0  0  0  0  0  0  0  0  0  0  0
    2.9733   -0.4222    5.1817 H   0  0  0  0  0  0  0  0  0  0  0  0
    2.2882   -1.8375    4.3966 H   0  0  0  0  0  0  0  0  0  0  0  0
    1.6272   -1.2795    5.9242 H   0  0  0  0  0  0  0  0  0  0  0  0
    2.2262    1.5956    3.4674 H   0  0  0  0  0  0  0  0  0  0  0  0
    4.3927    0.9445    2.8690 H   0  0  0  0  0  0  0  0  0  0  0  0
    4.1017   -0.6585    3.5204 H   0  0  0  0  0  0  0  0  0  0  0  0
    5.1503    0.0707    0.7274 H   0  0  0  0  0  0  0  0  0  0  0  0
    5.9839   -0.7674    2.0026 H   0  0  0  0  0  0  0  0  0  0  0  0
    2.9116   -1.1485   -0.3230 H   0  0  0  0  0  0  0  0  0  0  0  0
    2.5611   -2.7806    0.2243 H   0  0  0  0  0  0  0  0  0  0  0  0
    2.0083   -2.0194    2.4935 H   0  0  0  0  0  0  0  0  0  0  0  0
    1.0309   -1.1152    1.4605 H   0  0  0  0  0  0  0  0  0  0  0  0
    4.7189   -5.4106    3.3879 H   0  0  0  0  0  0  0  0  0  0  0  0
    6.2465   -5.7944    2.6044 H   0  0  0  0  0  0  0  0  0  0  0  0
    4.6743   -6.2680    1.8677 H   0  0  0  0  0  0  0  0  0  0  0  0
    6.7181   -4.3232    0.2468 H   0  0  0  0  0  0  0  0  0  0  0  0
    5.0269   -4.7811   -0.2520 H   0  0  0  0  0  0  0  0  0  0  0  0
    6.3699   -2.1071    0.0144 H   0  0  0  0  0  0  0  0  0  0  0  0
    5.0202   -4.5347   -2.1787 H   0  0  0  0  0  0  0  0  0  0  0  0
    4.0361   -4.0208   -4.4286 H   0  0  0  0  0  0  0  0  0  0  0  0
    3.7478   -0.0278   -3.4585 H   0  0  0  0  0  0  0  0  0  0  0  0
    1.0382    2.2904    1.5400 H   0  0  0  0  0  0  0  0  0  0  0  0
    0.1866    0.8072    1.3094 H   0  0  0  0  0  0  0  0  0  0  0  0
   -1.7388    0.2648    2.7430 H   0  0  0  0  0  0  0  0  0  0  0  0
   -1.8654    1.2441    4.1945 H   0  0  0  0  0  0  0  0  0  0  0  0
    2.7420    0.6074    1.2727 H   0  0  0  0  0  0  0  0  0  0  0  0
  1  2  1  0
  1 27  1  0
  1 28  1  0
  1 29  1  0
  2 26  1  0
  2  3  2  0
  3  4  1  0
  3  5  1  0
  4 30  1  0
  4 31  1  0
  4 32  1  0
  5  6  1  0
  5 24  1  0
  5 33  1  1
  6 11  1  0
  6  7  1  0
  6 55  1  6
  7  8  1  0
  7 34  1  0
  7 35  1  0
  9  8  1  1
  8 36  1  0
  8 37  1  0
  9 17  1  0
  9 10  1  0
  9 12  1  0
 10 11  1  0
 10 38  1  0
 10 39  1  0
 11 40  1  0
 11 41  1  0
 12 13  2  0
 12 14  1  0
 14 15  1  0
 14 16  1  0
 15 42  1  0
 15 43  1  0
 15 44  1  0
 16 17  1  0
 16 45  1  0
 16 46  1  0
 17 18  1  0
 17 47  1  6
 18 23  1  0
 18 19  2  0
 19 20  1  0
 19 48  1  0
 20 21  2  0
 20 49  1  0
 21 22  1  0
 22 23  2  0
 22 50  1  0
 24 25  1  0
 24 51  1  0
 24 52  1  0
 25 26  1  0
 26 53  1  0
 26 54  1  0
M  CHG  1   6   1
M  END
>  <i_m_ct_stereo_status>  (225) 
1

>  <s_m_source_file>  (225) 
/var/tmp/pbs.5076255.sched01/tmpstc2q6q5/48db17pvb_.sdf

>  <i_m_source_file_index>  (225) 
39

>  <i_lp_mmshare_version>  (225) 
48012

>  <i_f3d_flags>  (225) 
0

>  <s_epik_input>  (225) 
W0NIM11DMT1DKFtDSDNdKVtDQEhdKFtDSDJdT1tDSDJdMSlOKFtDSDJdW0NIMl0yKVtDSDJdW0NIMl1DMjNDKD1PKU4oW0NIM10pW0NIMl1bQ0BIXTNjNFtjSF1bY0hdbltjSF1uNA==

>  <s_epik_cmdline>  (225) 
J2VwaWtfcHl0aG9uJywgJy1waHQnLCAnMi4wJywgJy1waCcsICc3LjAnLCAnLXRuJywgJzgnLCAnLW1hJywgJzIwMCcsICctaW1hZScsICc8aW5maWxlLm1hZT4nLCAnLW9tYWUnLCAnPG91dGZpbGUubWFlPic=

>  <r_lp_tautomer_probability>  (225) 
1

>  <r_epik_Ionization_Penalty>  (225) 
0.542613

>  <r_epik_Ionization_Penalty_Charging>  (225) 
0.54261

>  <r_epik_Ionization_Penalty_Neutral>  (225) 
3.47276e-06

>  <r_epik_State_Penalty>  (225) 
0.552309

>  <r_epik_Charging_Adjusted_Penalty>  (225) 
1.09492

>  <i_epik_Tot_Q>  (225) 
1

>  <i_epik_Tot_abs_Q>  (225) 
1

>  <s_epik_Chemistry_Notes>  (225) 
This compound contains an electron-poor aromatic ring that is susceptible to covalent hydrolysis at low pH, typically resulting in measured values for nitrogen ring protonation that are around two units higher than predicted values.

>  <s_lp_Force_Field>  (225) 
OPLS3e

>  <r_lp_Energy>  (225) 
32.2455

>  <b_lp_Chiralities_Consistent>  (225) 
1

>  <s_lp_Variant>  (225) 
47:0-2

>  <s_i_glide_gridfile>  (225) 
pfpi4k_grid

>  <i_i_glide_lignum>  (225) 
39

>  <i_i_glide_rotatable_bonds>  (225) 
2

>  <r_i_docking_score>  (225) 
-3.88212

>  <r_i_glide_ligand_efficiency>  (225) 
-0.149312

>  <r_i_glide_ligand_efficiency_sa>  (225) 
-0.442337

>  <r_i_glide_ligand_efficiency_ln>  (225) 
-0.911702

>  <r_i_glide_gscore>  (225) 
-3.88212

>  <r_i_glide_lipo>  (225) 
-0.480712

>  <r_i_glide_hbond>  (225) 
-0.214406

>  <r_i_glide_metal>  (225) 
-0

>  <r_i_glide_rewards>  (225) 
-1.22502

>  <r_i_glide_evdw>  (225) 
-28.9087

>  <r_i_glide_ecoul>  (225) 
-5.34343

>  <r_i_glide_erotb>  (225) 
0.299636

>  <r_i_glide_esite>  (225) 
-0.0146671

>  <r_i_glide_emodel>  (225) 
-35.1936

>  <r_i_glide_energy>  (225) 
-34.2522

>  <r_i_glide_einternal>  (225) 
11.2696

>  <r_i_glide_intrahb_reward>  (225) 
-0

>  <i_i_glide_confnum>  (225) 
5

>  <i_i_glide_posenum>  (225) 
12

>  <r_i_glide_eff_state_penalty>  (225) 
0

>  <ligand_id>  (225) 
47

>  <original_smiles>  (225) 
CC1=C(C)C(N2CCC3(CC2)C(=O)N(C)CC3c2ccncn2)COC1

>  <smiles>  (225) 
[H]c1nc([H])c([H])c(C2([H])C([H])([H])N(C([H])([H])[H])C(=O)C23C([H])([H])C([H])([H])[N+]([H])(C2([H])C(C([H])([H])[H])=C(C([H])([H])[H])C([H])([H])OC2([H])[H])C([H])([H])C3([H])[H])n1

$$$$
48:0:0
     RDKit          3D

 65 69  0  0  1  0  0  0  0  0999 V2000
    3.9409    0.1879   -3.4431 C   0  0  0  0  0  0  0  0  0  0  0  0
    3.9047   -0.8846   -2.3992 C   0  0  2  0  0  0  0  0  0  0  0  0
    5.2629   -1.2228   -1.7612 C   0  0  0  0  0  0  0  0  0  0  0  0
    5.5639   -2.7139   -1.5282 C   0  0  2  0  0  0  0  0  0  0  0  0
    5.7129   -3.3455   -2.8995 C   0  0  0  0  0  0  0  0  0  0  0  0
    4.3211   -3.7231   -3.3250 C   0  0  2  0  0  0  0  0  0  0  0  0
    3.4111   -2.7935   -4.0990 C   0  0  0  0  0  0  0  0  0  0  0  0
    3.0819   -2.1266   -2.7686 C   0  0  1  0  0  0  0  0  0  0  0  0
    3.4342   -3.4562   -2.0963 C   0  0  2  0  0  0  0  0  0  0  0  0
    4.3826   -3.5922   -0.9130 C   0  0  1  0  0  0  0  0  0  0  0  0
    4.8152   -5.0968   -0.8443 C   0  0  0  0  0  0  0  0  0  0  0  0
    3.7837   -3.1629    0.5219 C   0  0  1  0  0  0  0  0  0  0  0  0
    3.3692   -1.6896    0.5728 C   0  0  0  0  0  0  0  0  0  0  0  0
    2.5040   -3.9906    0.7789 C   0  0  0  0  0  0  0  0  0  0  0  0
    2.7578   -5.0292    1.8614 C   0  0  0  0  0  0  0  0  0  0  0  0
    4.2941   -4.9758    2.0969 C   0  0  2  0  0  0  0  0  0  0  0  0
    4.8578   -5.5883    3.3692 C   0  0  0  0  0  0  0  0  0  0  0  0
    4.1958   -6.9513    3.6147 C   0  0  0  0  0  0  0  0  0  0  0  0
    6.3669   -5.8869    3.1767 C   0  0  0  0  0  0  0  0  0  0  0  0
    4.5976   -4.6004    4.5292 C   0  0  1  0  0  0  0  0  0  0  0  0
    5.2182   -5.1136    5.6995 O   0  0  0  0  0  0  0  0  0  0  0  0
    5.0953   -3.1897    4.2191 C   0  0  0  0  0  0  0  0  0  0  0  0
    4.4520   -2.6390    2.9480 C   0  0  0  0  0  0  0  0  0  0  0  0
    4.7124   -3.5215    1.7189 C   0  0  2  0  0  0  0  0  0  0  0  0
    6.1997   -3.3088    1.3560 C   0  0  0  0  0  0  0  0  0  0  0  0
    4.6148   -0.0799   -4.3111 H   0  0  0  0  0  0  0  0  0  0  0  0
    4.3784    1.0816   -3.0038 H   0  0  0  0  0  0  0  0  0  0  0  0
    2.9751    0.4736   -3.8198 H   0  0  0  0  0  0  0  0  0  0  0  0
    3.3258   -0.3559   -1.6628 H   0  0  0  0  0  0  0  0  0  0  0  0
    6.0444   -0.8386   -2.3349 H   0  0  0  0  0  0  0  0  0  0  0  0
    5.4815   -0.5732   -0.9001 H   0  0  0  0  0  0  0  0  0  0  0  0
    6.5253   -2.8334   -1.0587 H   0  0  0  0  0  0  0  0  0  0  0  0
    6.1924   -2.6440   -3.5777 H   0  0  0  0  0  0  0  0  0  0  0  0
    6.3624   -4.2022   -2.8335 H   0  0  0  0  0  0  0  0  0  0  0  0
    4.2621   -4.7516   -3.7039 H   0  0  0  0  0  0  0  0  0  0  0  0
    3.9876   -2.1613   -4.7761 H   0  0  0  0  0  0  0  0  0  0  0  0
    2.5793   -3.3071   -4.5840 H   0  0  0  0  0  0  0  0  0  0  0  0
    1.9948   -1.9476   -2.7174 H   0  0  0  0  0  0  0  0  0  0  0  0
    2.5814   -4.1325   -2.0793 H   0  0  0  0  0  0  0  0  0  0  0  0
    4.0593   -5.7445   -0.4651 H   0  0  0  0  0  0  0  0  0  0  0  0
    5.7596   -5.3603   -0.3815 H   0  0  0  0  0  0  0  0  0  0  0  0
    5.0237   -5.5705   -1.8229 H   0  0  0  0  0  0  0  0  0  0  0  0
    2.8910   -1.3097    1.4586 H   0  0  0  0  0  0  0  0  0  0  0  0
    2.6549   -1.4794   -0.1960 H   0  0  0  0  0  0  0  0  0  0  0  0
    4.2642   -1.0565    0.5228 H   0  0  0  0  0  0  0  0  0  0  0  0
    1.7399   -3.2996    1.1506 H   0  0  0  0  0  0  0  0  0  0  0  0
    2.0612   -4.4621   -0.0940 H   0  0  0  0  0  0  0  0  0  0  0  0
    2.2263   -4.7774    2.7548 H   0  0  0  0  0  0  0  0  0  0  0  0
    2.4209   -6.0178    1.5267 H   0  0  0  0  0  0  0  0  0  0  0  0
    4.7197   -5.7009    1.3972 H   0  0  0  0  0  0  0  0  0  0  0  0
    4.7001   -7.4730    4.4297 H   0  0  0  0  0  0  0  0  0  0  0  0
    4.2810   -7.5887    2.7302 H   0  0  0  0  0  0  0  0  0  0  0  0
    3.1390   -6.8688    3.8677 H   0  0  0  0  0  0  0  0  0  0  0  0
    6.7480   -6.5213    3.9697 H   0  0  0  0  0  0  0  0  0  0  0  0
    6.9885   -5.0251    3.2368 H   0  0  0  0  0  0  0  0  0  0  0  0
    6.5855   -6.3513    2.2174 H   0  0  0  0  0  0  0  0  0  0  0  0
    3.5202   -4.5486    4.7314 H   0  0  0  0  0  0  0  0  0  0  0  0
    4.9248   -5.9601    5.8152 H   0  0  0  0  0  0  0  0  0  0  0  0
    4.9220   -2.5100    5.0642 H   0  0  0  0  0  0  0  0  0  0  0  0
    6.1708   -3.1897    4.1021 H   0  0  0  0  0  0  0  0  0  0  0  0
    3.3760   -2.5214    3.1481 H   0  0  0  0  0  0  0  0  0  0  0  0
    4.8382   -1.6333    2.7613 H   0  0  0  0  0  0  0  0  0  0  0  0
    6.8927   -3.3198    2.1506 H   0  0  0  0  0  0  0  0  0  0  0  0
    6.3405   -2.3303    0.9248 H   0  0  0  0  0  0  0  0  0  0  0  0
    6.6612   -4.0661    0.7218 H   0  0  0  0  0  0  0  0  0  0  0  0
  1  2  1  0
  1 26  1  0
  1 27  1  0
  1 28  1  0
  2  8  1  0
  2  3  1  0
  2 29  1  1
  3  4  1  0
  3 30  1  0
  3 31  1  0
  4 10  1  0
  4  5  1  0
  4 32  1  1
  5  6  1  0
  5 33  1  0
  5 34  1  0
  6  9  1  0
  6  7  1  0
  6 35  1  6
  7  8  1  0
  7 36  1  0
  7 37  1  0
  8  9  1  0
  8 38  1  6
  9 10  1  0
  9 39  1  1
 10 11  1  1
 10 12  1  0
 11 40  1  0
 11 41  1  0
 11 42  1  0
 12 24  1  0
 12 13  1  6
 12 14  1  0
 13 43  1  0
 13 44  1  0
 13 45  1  0
 14 15  1  0
 14 46  1  0
 14 47  1  0
 15 16  1  0
 15 48  1  0
 15 49  1  0
 16 24  1  0
 16 17  1  0
 16 50  1  6
 17 18  1  0
 17 19  1  0
 17 20  1  0
 18 51  1  0
 18 52  1  0
 18 53  1  0
 19 54  1  0
 19 55  1  0
 19 56  1  0
 20 21  1  0
 20 22  1  0
 20 57  1  1
 21 58  1  0
 22 23  1  0
 22 59  1  0
 22 60  1  0
 23 24  1  0
 23 61  1  0
 23 62  1  0
 24 25  1  6
 25 63  1  0
 25 64  1  0
 25 65  1  0
M  END
>  <i_m_ct_stereo_status>  (226) 
1

>  <s_m_source_file>  (226) 
/var/tmp/pbs.5076255.sched01/tmpstc2q6q5/48db17pvb_.sdf

>  <i_m_source_file_index>  (226) 
40

>  <i_lp_mmshare_version>  (226) 
48012

>  <i_f3d_flags>  (226) 
0

>  <s_epik_input>  (226) 
W0NAQEhdMTJbQ0gyXVtDQEBIXShbQ0gzXSlbQ0BASF0zW0NAQEhdKFtDQEhdKFtDSDJdMSlbQ0gyXTMpW0NAXTIoW0NIM10pW0NAQF00KFtDSDNdKVtDSDJdW0NIMl1bQ0BASF0oW0NAQF00NVtDSDNdKUMoW0NIM10pKFtDSDNdKVtDQEBIXShbT0hdKVtDSDJdW0NIMl01

>  <s_epik_cmdline>  (226) 
J2VwaWtfcHl0aG9uJywgJy1waHQnLCAnMi4wJywgJy1waCcsICc3LjAnLCAnLXRuJywgJzgnLCAnLW1hJywgJzIwMCcsICctaW1hZScsICc8aW5maWxlLm1hZT4nLCAnLW9tYWUnLCAnPG91dGZpbGUubWFlPic=

>  <r_lp_tautomer_probability>  (226) 
1

>  <r_epik_Ionization_Penalty>  (226) 
2.9887e-06

>  <r_epik_Ionization_Penalty_Charging>  (226) 
0

>  <r_epik_Ionization_Penalty_Neutral>  (226) 
2.9887e-06

>  <r_epik_State_Penalty>  (226) 
-0

>  <r_epik_Charging_Adjusted_Penalty>  (226) 
0

>  <i_epik_Tot_Q>  (226) 
0

>  <i_epik_Tot_abs_Q>  (226) 
0

>  <s_lp_Force_Field>  (226) 
OPLS3e

>  <r_lp_Energy>  (226) 
105.18

>  <b_lp_Chiralities_Consistent>  (226) 
1

>  <s_lp_Variant>  (226) 
48:0-1

>  <s_i_glide_gridfile>  (226) 
pfpi4k_grid

>  <i_i_glide_lignum>  (226) 
40

>  <i_i_glide_rotatable_bonds>  (226) 
2

>  <r_i_docking_score>  (226) 
-1.50149

>  <r_i_glide_ligand_efficiency>  (226) 
-0.0600596

>  <r_i_glide_ligand_efficiency_sa>  (226) 
-0.175615

>  <r_i_glide_ligand_efficiency_ln>  (226) 
-0.355898

>  <r_i_glide_gscore>  (226) 
-1.50149

>  <r_i_glide_lipo>  (226) 
-0.431801

>  <r_i_glide_hbond>  (226) 
0

>  <r_i_glide_metal>  (226) 
-0

>  <r_i_glide_rewards>  (226) 
-1.05972

>  <r_i_glide_evdw>  (226) 
-4.84333

>  <r_i_glide_ecoul>  (226) 
-0.0853407

>  <r_i_glide_erotb>  (226) 
0.159934

>  <r_i_glide_esite>  (226) 
0

>  <r_i_glide_emodel>  (226) 
1.97217

>  <r_i_glide_energy>  (226) 
-4.92867

>  <r_i_glide_einternal>  (226) 
5.23251

>  <r_i_glide_intrahb_reward>  (226) 
-0

>  <i_i_glide_confnum>  (226) 
1

>  <i_i_glide_posenum>  (226) 
20

>  <r_i_glide_eff_state_penalty>  (226) 
0

>  <ligand_id>  (226) 
48

>  <original_smiles>  (226) 
CC1CC2CC3CC1C3C2(C)C1(C)CCC2C(C)(C)C(O)CCC21C

>  <smiles>  (226) 
[H]OC1([H])C([H])([H])C([H])([H])C2(C([H])([H])[H])C([H])(C([H])([H])C([H])([H])C2(C([H])([H])[H])C2(C([H])([H])[H])C3([H])C([H])([H])C([H])(C([H])([H])[H])C4([H])C([H])([H])C([H])(C3([H])[H])C42[H])C1(C([H])([H])[H])C([H])([H])[H]

$$$$
49:0:0
     RDKit          3D

 21 25  0  0  1  0  0  0  0  0999 V2000
    2.9225   -3.1678   -3.6860 C   0  0  0  0  0  0  0  0  0  0  0  0
    4.1995   -2.7039   -4.0914 O   0  0  0  0  0  0  0  0  0  0  0  0
    5.2855   -3.5888   -3.5335 O   0  0  0  0  0  0  0  0  0  0  0  0
    5.7078   -3.1498   -2.2490 C   0  0  1  0  0  0  0  0  0  0  0  0
    5.1039   -1.8342   -1.6844 C   0  0  1  0  0  0  0  0  0  0  0  0
    3.5442   -1.6908   -1.6215 C   0  0  1  0  0  0  0  0  0  0  0  0
    2.7032   -2.8536   -2.2089 C   0  0  2  0  0  0  0  0  0  0  0  0
    3.3665   -3.7585   -1.1366 C   0  0  1  0  0  0  0  0  0  0  0  0
    4.9215   -3.9191   -1.1665 C   0  0  2  0  0  0  0  0  0  0  0  0
    5.0374   -2.6203   -0.3583 C   0  0  2  0  0  0  0  0  0  0  0  0
    3.5428   -2.4809   -0.3105 C   0  0  1  0  0  0  0  0  0  0  0  0
    2.8386   -4.2371   -3.8985 H   0  0  0  0  0  0  0  0  0  0  0  0
    2.1733   -2.6590   -4.2934 H   0  0  0  0  0  0  0  0  0  0  0  0
    6.7921   -3.2332   -2.1295 H   0  0  0  0  0  0  0  0  0  0  0  0
    5.7066   -0.9278   -1.6607 H   0  0  0  0  0  0  0  0  0  0  0  0
    3.1167   -0.6892   -1.5908 H   0  0  0  0  0  0  0  0  0  0  0  0
    1.6381   -2.7312   -1.9859 H   0  0  0  0  0  0  0  0  0  0  0  0
    2.7792   -4.5571   -0.6825 H   0  0  0  0  0  0  0  0  0  0  0  0
    5.3595   -4.8242   -0.7349 H   0  0  0  0  0  0  0  0  0  0  0  0
    5.7266   -2.4916    0.4740 H   0  0  0  0  0  0  0  0  0  0  0  0
    2.9331   -2.2294    0.5503 H   0  0  0  0  0  0  0  0  0  0  0  0
  1  7  1  0
  1  2  1  0
  1 12  1  0
  1 13  1  0
  2  3  1  0
  3  4  1  0
  4  9  1  0
  4  5  1  0
  4 14  1  1
  5 10  1  0
  5  6  1  0
  5 15  1  1
  6 11  1  0
  6  7  1  0
  6 16  1  1
  7  8  1  0
  7 17  1  1
  8 11  1  0
  8  9  1  0
  8 18  1  1
  9 10  1  0
  9 19  1  1
 10 11  1  0
 10 20  1  1
 11 21  1  1
M  END
>  <i_m_ct_stereo_status>  (227) 
1

>  <s_m_source_file>  (227) 
/var/tmp/pbs.5076255.sched01/tmpstc2q6q5/48db17pvb_.sdf

>  <i_m_source_file_index>  (227) 
41

>  <i_lp_mmshare_version>  (227) 
48012

>  <i_f3d_flags>  (227) 
0

>  <s_epik_input>  (227) 
TzFPW0NIMl1bQ0BIXShbQ0BASF0yW0NAQEhdM1tDQEhdMTQpW0NASF01W0NAQEhdNFtDQEBIXTNbQ0BASF0yNQ==

>  <s_epik_cmdline>  (227) 
J2VwaWtfcHl0aG9uJywgJy1waHQnLCAnMi4wJywgJy1waCcsICc3LjAnLCAnLXRuJywgJzgnLCAnLW1hJywgJzIwMCcsICctaW1hZScsICc8aW5maWxlLm1hZT4nLCAnLW9tYWUnLCAnPG91dGZpbGUubWFlPic=

>  <r_lp_tautomer_probability>  (227) 
1

>  <r_epik_Ionization_Penalty>  (227) 
0

>  <r_epik_Ionization_Penalty_Charging>  (227) 
0

>  <r_epik_Ionization_Penalty_Neutral>  (227) 
0

>  <r_epik_State_Penalty>  (227) 
-0

>  <r_epik_Charging_Adjusted_Penalty>  (227) 
0

>  <i_epik_Tot_Q>  (227) 
0

>  <i_epik_Tot_abs_Q>  (227) 
0

>  <s_lp_Force_Field>  (227) 
OPLS3e

>  <r_lp_Energy>  (227) 
65.363

>  <b_lp_Chiralities_Consistent>  (227) 
1

>  <s_lp_Variant>  (227) 
49:0-1

>  <s_i_glide_gridfile>  (227) 
pfpi4k_grid

>  <i_i_glide_lignum>  (227) 
41

>  <i_i_glide_rotatable_bonds>  (227) 
0

>  <r_i_docking_score>  (227) 
-4.04098

>  <r_i_glide_ligand_efficiency>  (227) 
-0.367362

>  <r_i_glide_ligand_efficiency_sa>  (227) 
-0.817006

>  <r_i_glide_ligand_efficiency_ln>  (227) 
-1.18926

>  <r_i_glide_gscore>  (227) 
-4.04098

>  <r_i_glide_lipo>  (227) 
-0.391945

>  <r_i_glide_hbond>  (227) 
-0.268106

>  <r_i_glide_metal>  (227) 
-0

>  <r_i_glide_rewards>  (227) 
-2.25

>  <r_i_glide_evdw>  (227) 
-16.2956

>  <r_i_glide_ecoul>  (227) 
-2.10768

>  <r_i_glide_erotb>  (227) 
0

>  <r_i_glide_esite>  (227) 
0

>  <r_i_glide_emodel>  (227) 
-23.1457

>  <r_i_glide_energy>  (227) 
-18.4033

>  <r_i_glide_einternal>  (227) 
0

>  <r_i_glide_intrahb_reward>  (227) 
-0

>  <i_i_glide_confnum>  (227) 
2

>  <i_i_glide_posenum>  (227) 
13

>  <r_i_glide_eff_state_penalty>  (227) 
0

>  <ligand_id>  (227) 
49

>  <original_smiles>  (227) 
C1OOC2C3C4C1C1C2C3C41

>  <smiles>  (227) 
[H]C1([H])OOC2([H])C3([H])C4([H])C1([H])C1([H])C2([H])C3([H])C41[H]

$$$$
49:0:1
     RDKit          3D

 21 25  0  0  1  0  0  0  0  0999 V2000
    4.8412   -1.2132    0.2354 C   0  0  0  0  0  0  0  0  0  0  0  0
    5.9988   -2.0102    0.0194 O   0  0  0  0  0  0  0  0  0  0  0  0
    6.5338   -1.8352   -1.3901 O   0  0  0  0  0  0  0  0  0  0  0  0
    5.8912   -2.6931   -2.3228 C   0  0  1  0  0  0  0  0  0  0  0  0
    4.9647   -3.7819   -1.7410 C   0  0  1  0  0  0  0  0  0  0  0  0
    3.7865   -3.3632   -0.8100 C   0  0  1  0  0  0  0  0  0  0  0  0
    3.6478   -1.8516   -0.4560 C   0  0  2  0  0  0  0  0  0  0  0  0
    3.4778   -1.6021   -1.9810 C   0  0  1  0  0  0  0  0  0  0  0  0
    4.6371   -2.0046   -2.9366 C   0  0  2  0  0  0  0  0  0  0  0  0
    4.0899   -3.4387   -2.9516 C   0  0  2  0  0  0  0  0  0  0  0  0
    2.9570   -3.0346   -2.0444 C   0  0  1  0  0  0  0  0  0  0  0  0
    5.0422   -0.2057   -0.1017 H   0  0  0  0  0  0  0  0  0  0  0  0
    4.6816   -1.1600    1.3186 H   0  0  0  0  0  0  0  0  0  0  0  0
    6.5914   -3.0516   -3.0886 H   0  0  0  0  0  0  0  0  0  0  0  0
    5.3269   -4.8191   -1.7024 H   0  0  0  0  0  0  0  0  0  0  0  0
    3.3537   -4.1091   -0.1331 H   0  0  0  0  0  0  0  0  0  0  0  0
    2.7150   -1.6449    0.0781 H   0  0  0  0  0  0  0  0  0  0  0  0
    2.7571   -0.8403   -2.3201 H   0  0  0  0  0  0  0  0  0  0  0  0
    4.7012   -1.5282   -3.9252 H   0  0  0  0  0  0  0  0  0  0  0  0
    4.0316   -4.0517   -3.8405 H   0  0  0  0  0  0  0  0  0  0  0  0
    1.9167   -3.2990   -2.1626 H   0  0  0  0  0  0  0  0  0  0  0  0
  1  7  1  0
  1  2  1  0
  1 12  1  0
  1 13  1  0
  2  3  1  0
  3  4  1  0
  4  9  1  0
  4  5  1  0
  4 14  1  6
  5 10  1  0
  5  6  1  0
  5 15  1  6
  6 11  1  0
  6  7  1  0
  6 16  1  1
  7  8  1  0
  7 17  1  1
  8 11  1  0
  8  9  1  0
  8 18  1  1
  9 10  1  0
  9 19  1  6
 10 11  1  0
 10 20  1  6
 11 21  1  6
M  END
>  <i_m_ct_stereo_status>  (228) 
1

>  <s_m_source_file>  (228) 
/var/tmp/pbs.5076255.sched01/tmpstc2q6q5/48db17pvb_.sdf

>  <i_m_source_file_index>  (228) 
41

>  <i_lp_mmshare_version>  (228) 
48012

>  <i_f3d_flags>  (228) 
0

>  <s_epik_input>  (228) 
TzFPW0NIMl1bQ0BIXShbQ0BASF0yW0NAQEhdM1tDQEhdMTQpW0NASF01W0NAQEhdNFtDQEBIXTNbQ0BASF0yNQ==

>  <s_epik_cmdline>  (228) 
J2VwaWtfcHl0aG9uJywgJy1waHQnLCAnMi4wJywgJy1waCcsICc3LjAnLCAnLXRuJywgJzgnLCAnLW1hJywgJzIwMCcsICctaW1hZScsICc8aW5maWxlLm1hZT4nLCAnLW9tYWUnLCAnPG91dGZpbGUubWFlPic=

>  <r_lp_tautomer_probability>  (228) 
1

>  <r_epik_Ionization_Penalty>  (228) 
0

>  <r_epik_Ionization_Penalty_Charging>  (228) 
0

>  <r_epik_Ionization_Penalty_Neutral>  (228) 
0

>  <r_epik_State_Penalty>  (228) 
-0

>  <r_epik_Charging_Adjusted_Penalty>  (228) 
0

>  <i_epik_Tot_Q>  (228) 
0

>  <i_epik_Tot_abs_Q>  (228) 
0

>  <s_lp_Force_Field>  (228) 
OPLS3e

>  <r_lp_Energy>  (228) 
65.363

>  <b_lp_Chiralities_Consistent>  (228) 
1

>  <s_lp_Variant>  (228) 
49:0-1

>  <s_i_glide_gridfile>  (228) 
pfpi4k_grid

>  <i_i_glide_lignum>  (228) 
41

>  <i_i_glide_rotatable_bonds>  (228) 
0

>  <r_i_docking_score>  (228) 
-3.6836

>  <r_i_glide_ligand_efficiency>  (228) 
-0.334873

>  <r_i_glide_ligand_efficiency_sa>  (228) 
-0.74475

>  <r_i_glide_ligand_efficiency_ln>  (228) 
-1.08408

>  <r_i_glide_gscore>  (228) 
-3.6836

>  <r_i_glide_lipo>  (228) 
-0.177764

>  <r_i_glide_hbond>  (228) 
-0.16

>  <r_i_glide_metal>  (228) 
-0

>  <r_i_glide_rewards>  (228) 
-2.25

>  <r_i_glide_evdw>  (228) 
-15.4623

>  <r_i_glide_ecoul>  (228) 
-2.15149

>  <r_i_glide_erotb>  (228) 
0

>  <r_i_glide_esite>  (228) 
0

>  <r_i_glide_emodel>  (228) 
-21.9307

>  <r_i_glide_energy>  (228) 
-17.6137

>  <r_i_glide_einternal>  (228) 
0

>  <r_i_glide_intrahb_reward>  (228) 
-0

>  <i_i_glide_confnum>  (228) 
1

>  <i_i_glide_posenum>  (228) 
1

>  <r_i_glide_eff_state_penalty>  (228) 
0

>  <ligand_id>  (228) 
49

>  <original_smiles>  (228) 
C1OOC2C3C4C1C1C2C3C41

>  <smiles>  (228) 
[H]C1([H])OOC2([H])C3([H])C4([H])C1([H])C1([H])C2([H])C3([H])C41[H]

$$$$
49:0:2
     RDKit          3D

 21 25  0  0  1  0  0  0  0  0999 V2000
    3.2334   -1.2823   -2.7334 C   0  0  0  0  0  0  0  0  0  0  0  0
    4.2234   -1.6226   -3.6926 O   0  0  0  0  0  0  0  0  0  0  0  0
    4.4545   -3.1133   -3.6818 O   0  0  0  0  0  0  0  0  0  0  0  0
    5.4361   -3.4690   -2.7126 C   0  0  1  0  0  0  0  0  0  0  0  0
    6.1764   -2.3575   -1.9317 C   0  0  1  0  0  0  0  0  0  0  0  0
    5.3425   -1.2822   -1.1806 C   0  0  1  0  0  0  0  0  0  0  0  0
    3.8094   -1.3685   -1.3256 C   0  0  2  0  0  0  0  0  0  0  0  0
    3.9097   -2.7699   -0.6656 C   0  0  1  0  0  0  0  0  0  0  0  0
    4.7484   -3.8554   -1.3895 C   0  0  2  0  0  0  0  0  0  0  0  0
    6.0073   -3.2845   -0.7271 C   0  0  2  0  0  0  0  0  0  0  0  0
    5.1860   -2.2460   -0.0145 C   0  0  1  0  0  0  0  0  0  0  0  0
    2.3736   -1.9309   -2.8686 H   0  0  0  0  0  0  0  0  0  0  0  0
    2.9060   -0.2634   -2.9517 H   0  0  0  0  0  0  0  0  0  0  0  0
    6.0956   -4.2570   -3.0851 H   0  0  0  0  0  0  0  0  0  0  0  0
    7.2224   -2.1475   -2.1938 H   0  0  0  0  0  0  0  0  0  0  0  0
    5.7969   -0.3148   -0.9449 H   0  0  0  0  0  0  0  0  0  0  0  0
    3.3014   -0.6849   -0.6409 H   0  0  0  0  0  0  0  0  0  0  0  0
    3.1225   -3.0894    0.0218 H   0  0  0  0  0  0  0  0  0  0  0  0
    4.5561   -4.9147   -1.1737 H   0  0  0  0  0  0  0  0  0  0  0  0
    6.8024   -3.8877   -0.3075 H   0  0  0  0  0  0  0  0  0  0  0  0
    5.2744   -1.9572    1.0300 H   0  0  0  0  0  0  0  0  0  0  0  0
  1  7  1  0
  1  2  1  0
  1 12  1  0
  1 13  1  0
  2  3  1  0
  3  4  1  0
  4  9  1  0
  4  5  1  0
  4 14  1  6
  5 10  1  0
  5  6  1  0
  5 15  1  6
  6 11  1  0
  6  7  1  0
  6 16  1  1
  7  8  1  0
  7 17  1  1
  8 11  1  0
  8  9  1  0
  8 18  1  1
  9 10  1  0
  9 19  1  6
 10 11  1  0
 10 20  1  1
 11 21  1  1
M  END
>  <i_m_ct_stereo_status>  (229) 
1

>  <s_m_source_file>  (229) 
/var/tmp/pbs.5076255.sched01/tmpstc2q6q5/48db17pvb_.sdf

>  <i_m_source_file_index>  (229) 
41

>  <i_lp_mmshare_version>  (229) 
48012

>  <i_f3d_flags>  (229) 
0

>  <s_epik_input>  (229) 
TzFPW0NIMl1bQ0BIXShbQ0BASF0yW0NAQEhdM1tDQEhdMTQpW0NASF01W0NAQEhdNFtDQEBIXTNbQ0BASF0yNQ==

>  <s_epik_cmdline>  (229) 
J2VwaWtfcHl0aG9uJywgJy1waHQnLCAnMi4wJywgJy1waCcsICc3LjAnLCAnLXRuJywgJzgnLCAnLW1hJywgJzIwMCcsICctaW1hZScsICc8aW5maWxlLm1hZT4nLCAnLW9tYWUnLCAnPG91dGZpbGUubWFlPic=

>  <r_lp_tautomer_probability>  (229) 
1

>  <r_epik_Ionization_Penalty>  (229) 
0

>  <r_epik_Ionization_Penalty_Charging>  (229) 
0

>  <r_epik_Ionization_Penalty_Neutral>  (229) 
0

>  <r_epik_State_Penalty>  (229) 
-0

>  <r_epik_Charging_Adjusted_Penalty>  (229) 
0

>  <i_epik_Tot_Q>  (229) 
0

>  <i_epik_Tot_abs_Q>  (229) 
0

>  <s_lp_Force_Field>  (229) 
OPLS3e

>  <r_lp_Energy>  (229) 
65.363

>  <b_lp_Chiralities_Consistent>  (229) 
1

>  <s_lp_Variant>  (229) 
49:0-1

>  <s_i_glide_gridfile>  (229) 
pfpi4k_grid

>  <i_i_glide_lignum>  (229) 
41

>  <i_i_glide_rotatable_bonds>  (229) 
0

>  <r_i_docking_score>  (229) 
-3.66964

>  <r_i_glide_ligand_efficiency>  (229) 
-0.333604

>  <r_i_glide_ligand_efficiency_sa>  (229) 
-0.741929

>  <r_i_glide_ligand_efficiency_ln>  (229) 
-1.07998

>  <r_i_glide_gscore>  (229) 
-3.66964

>  <r_i_glide_lipo>  (229) 
-0.29135

>  <r_i_glide_hbond>  (229) 
0

>  <r_i_glide_metal>  (229) 
-0

>  <r_i_glide_rewards>  (229) 
-2.25

>  <r_i_glide_evdw>  (229) 
-16.5914

>  <r_i_glide_ecoul>  (229) 
-1.99151

>  <r_i_glide_erotb>  (229) 
0

>  <r_i_glide_esite>  (229) 
0

>  <r_i_glide_emodel>  (229) 
-22.8933

>  <r_i_glide_energy>  (229) 
-18.5829

>  <r_i_glide_einternal>  (229) 
0

>  <r_i_glide_intrahb_reward>  (229) 
-0

>  <i_i_glide_confnum>  (229) 
1

>  <i_i_glide_posenum>  (229) 
36

>  <r_i_glide_eff_state_penalty>  (229) 
0

>  <ligand_id>  (229) 
49

>  <original_smiles>  (229) 
C1OOC2C3C4C1C1C2C3C41

>  <smiles>  (229) 
[H]C1([H])OOC2([H])C3([H])C4([H])C1([H])C1([H])C2([H])C3([H])C41[H]

$$$$
53:0:0
     RDKit          3D

 59 63  0  0  1  0  0  0  0  0999 V2000
    1.8435   -3.9639   -1.1264 C   0  0  0  0  0  0  0  0  0  0  0  0
    2.8303   -4.4687   -0.1008 C   0  0  0  0  0  0  0  0  0  0  0  0
    2.7758   -5.6518    0.5168 C   0  0  0  0  0  0  0  0  0  0  0  0
    3.9356   -5.9198    1.4634 C   0  0  2  0  0  0  0  0  0  0  0  0
    3.7883   -7.2722    2.1734 C   0  0  0  0  0  0  0  0  0  0  0  0
    2.7893   -7.2335    3.3405 C   0  0  0  0  0  0  0  0  0  0  0  0
    3.0224   -6.0833    4.3612 C   0  0  1  0  0  0  0  0  0  0  0  0
    4.1129   -6.3824    5.4672 C   0  0  0  0  0  0  0  0  0  0  0  0
    3.6362   -7.5440    6.3755 C   0  0  0  0  0  0  0  0  0  0  0  0
    5.5019   -6.8071    4.9299 C   0  0  0  0  0  0  0  0  0  0  0  0
    4.2665   -5.1610    6.4090 C   0  0  0  0  0  0  0  0  0  0  0  0
    4.5128   -3.8309    5.7019 C   0  0  1  0  0  0  0  0  0  0  0  0
    5.8042   -3.8040    5.1398 O   0  0  0  0  0  0  0  0  0  0  0  0
    3.3790   -3.5594    4.7034 C   0  0  1  0  0  0  0  0  0  0  0  0
    3.5365   -2.2633    4.1592 O   0  0  0  0  0  0  0  0  0  0  0  0
    3.0575   -4.6761    3.6526 C   0  0  2  0  0  0  0  0  0  0  0  0
    1.6175   -4.3562    3.1606 C   0  0  0  0  0  0  0  0  0  0  0  0
    4.0558   -4.6978    2.4440 C   0  0  2  0  0  0  0  0  0  0  0  0
    4.0084   -3.4675    1.6862 O   0  0  0  0  0  0  0  0  0  0  0  0
    4.0376   -3.6276    0.2587 C   0  0  1  0  0  0  0  0  0  0  0  0
    5.2981   -4.4688   -0.1218 C   0  0  1  0  0  0  0  0  0  0  0  0
    6.6919   -3.9382    0.2335 C   0  0  1  0  0  0  0  0  0  0  0  0
    6.7698   -2.5538    0.8941 C   0  0  0  0  0  0  0  0  0  0  0  0
    7.2919   -5.0320    1.0988 C   0  0  0  0  0  0  0  0  0  0  0  0
    8.4291   -4.9798    1.5626 O   0  0  0  0  0  0  0  0  0  0  0  0
    6.4275   -6.0422    1.2335 O   0  0  0  0  0  0  0  0  0  0  0  0
    5.1945   -5.8681    0.5459 C   0  0  1  0  0  0  0  0  0  0  0  0
    2.3346   -3.7476   -2.0819 H   0  0  0  0  0  0  0  0  0  0  0  0
    1.4033   -3.0551   -0.7579 H   0  0  0  0  0  0  0  0  0  0  0  0
    1.0515   -4.6898   -1.3072 H   0  0  0  0  0  0  0  0  0  0  0  0
    2.0048   -6.3861    0.3544 H   0  0  0  0  0  0  0  0  0  0  0  0
    3.4835   -8.0392    1.4607 H   0  0  0  0  0  0  0  0  0  0  0  0
    4.7605   -7.5982    2.5284 H   0  0  0  0  0  0  0  0  0  0  0  0
    1.7830   -7.1534    2.9293 H   0  0  0  0  0  0  0  0  0  0  0  0
    2.7941   -8.2005    3.8384 H   0  0  0  0  0  0  0  0  0  0  0  0
    2.1011   -6.0690    4.9439 H   0  0  0  0  0  0  0  0  0  0  0  0
    4.3175   -7.6874    7.2175 H   0  0  0  0  0  0  0  0  0  0  0  0
    3.5892   -8.4978    5.8489 H   0  0  0  0  0  0  0  0  0  0  0  0
    2.6477   -7.3496    6.7947 H   0  0  0  0  0  0  0  0  0  0  0  0
    6.2555   -6.7407    5.7168 H   0  0  0  0  0  0  0  0  0  0  0  0
    5.8552   -6.1903    4.1112 H   0  0  0  0  0  0  0  0  0  0  0  0
    5.5049   -7.8410    4.5813 H   0  0  0  0  0  0  0  0  0  0  0  0
    3.3484   -5.0507    6.9867 H   0  0  0  0  0  0  0  0  0  0  0  0
    5.0544   -5.3353    7.1415 H   0  0  0  0  0  0  0  0  0  0  0  0
    4.4974   -3.0339    6.4466 H   0  0  0  0  0  0  0  0  0  0  0  0
    5.8424   -4.4533    4.4533 H   0  0  0  0  0  0  0  0  0  0  0  0
    2.4897   -3.4763    5.3296 H   0  0  0  0  0  0  0  0  0  0  0  0
    2.8225   -2.0944    3.5659 H   0  0  0  0  0  0  0  0  0  0  0  0
    1.5721   -3.3999    2.6370 H   0  0  0  0  0  0  0  0  0  0  0  0
    0.9079   -4.3015    3.9887 H   0  0  0  0  0  0  0  0  0  0  0  0
    1.2115   -5.1016    2.4829 H   0  0  0  0  0  0  0  0  0  0  0  0
    5.0507   -4.7013    2.8674 H   0  0  0  0  0  0  0  0  0  0  0  0
    4.0145   -2.6578   -0.2407 H   0  0  0  0  0  0  0  0  0  0  0  0
    5.2799   -4.6032   -1.2032 H   0  0  0  0  0  0  0  0  0  0  0  0
    7.2984   -3.9020   -0.6659 H   0  0  0  0  0  0  0  0  0  0  0  0
    7.8137   -2.2573    0.9912 H   0  0  0  0  0  0  0  0  0  0  0  0
    6.3388   -2.5628    1.9012 H   0  0  0  0  0  0  0  0  0  0  0  0
    6.2729   -1.7767    0.3106 H   0  0  0  0  0  0  0  0  0  0  0  0
    5.1128   -6.6359   -0.2264 H   0  0  0  0  0  0  0  0  0  0  0  0
  1  2  1  0
  1 28  1  0
  1 29  1  0
  1 30  1  0
  2 20  1  0
  2  3  2  0
  3  4  1  0
  3 31  1  0
  4 18  1  0
  4 27  1  0
  4  5  1  1
  5  6  1  0
  5 32  1  0
  5 33  1  0
  6  7  1  0
  6 34  1  0
  6 35  1  0
  7 16  1  0
  7  8  1  0
  7 36  1  1
  8  9  1  0
  8 10  1  0
  8 11  1  0
  9 37  1  0
  9 38  1  0
  9 39  1  0
 10 40  1  0
 10 41  1  0
 10 42  1  0
 11 12  1  0
 11 43  1  0
 11 44  1  0
 12 13  1  0
 12 14  1  0
 12 45  1  1
 13 46  1  0
 14 15  1  0
 14 16  1  0
 14 47  1  1
 15 48  1  0
 16 17  1  6
 16 18  1  0
 17 49  1  0
 17 50  1  0
 17 51  1  0
 18 19  1  0
 18 52  1  1
 19 20  1  0
 20 21  1  0
 20 53  1  6
 21 27  1  0
 21 22  1  0
 21 54  1  6
 22 23  1  0
 22 24  1  0
 22 55  1  6
 23 56  1  0
 23 57  1  0
 23 58  1  0
 24 25  2  0
 24 26  1  0
 26 27  1  0
 27 59  1  6
M  END
>  <i_m_ct_stereo_status>  (230) 
1

>  <s_m_source_file>  (230) 
/var/tmp/pbs.5076255.sched01/tmpstc2q6q5/48db17pvb_.sdf

>  <i_m_source_file_index>  (230) 
45

>  <i_lp_mmshare_version>  (230) 
48012

>  <i_f3d_flags>  (230) 
0

>  <s_epik_input>  (230) 
W0NIM11bQ0BIXTFDKD1PKU9bQ0BASF0yW0NASF0xW0NAQEhdKEMoW0NIM10pPVtDSF0zKU9bQ0BIXShbQ0BdMjM0KVtDQEBdNShbQ0gzXSlbQ0BASF0oW0NIMl1bQ0gyXTQpQyhbQ0gzXSkoW0NIM10pW0NIMl1bQ0BASF0oW09IXSlbQ0BIXTVbT0hd

>  <s_epik_cmdline>  (230) 
J2VwaWtfcHl0aG9uJywgJy1waHQnLCAnMi4wJywgJy1waCcsICc3LjAnLCAnLXRuJywgJzgnLCAnLW1hJywgJzIwMCcsICctaW1hZScsICc8aW5maWxlLm1hZT4nLCAnLW9tYWUnLCAnPG91dGZpbGUubWFlPic=

>  <r_lp_tautomer_probability>  (230) 
1

>  <r_epik_Ionization_Penalty>  (230) 
4.92208e-07

>  <r_epik_Ionization_Penalty_Charging>  (230) 
0

>  <r_epik_Ionization_Penalty_Neutral>  (230) 
4.92208e-07

>  <r_epik_State_Penalty>  (230) 
-0

>  <r_epik_Charging_Adjusted_Penalty>  (230) 
0

>  <i_epik_Tot_Q>  (230) 
0

>  <i_epik_Tot_abs_Q>  (230) 
0

>  <s_epik_Chemistry_Notes>  (230) 
This compound has an ester and may undergo hydrolysis at high or low pH.

>  <s_lp_Force_Field>  (230) 
OPLS3e

>  <r_lp_Energy>  (230) 
55.0669

>  <b_lp_Chiralities_Consistent>  (230) 
1

>  <s_lp_Variant>  (230) 
53:0-1

>  <s_i_glide_gridfile>  (230) 
pfpi4k_grid

>  <i_i_glide_lignum>  (230) 
45

>  <i_i_glide_rotatable_bonds>  (230) 
2

>  <r_i_docking_score>  (230) 
-2.37845

>  <r_i_glide_ligand_efficiency>  (230) 
-0.0880909

>  <r_i_glide_ligand_efficiency_sa>  (230) 
-0.264273

>  <r_i_glide_ligand_efficiency_ln>  (230) 
-0.553665

>  <r_i_glide_gscore>  (230) 
-2.37845

>  <r_i_glide_lipo>  (230) 
-0.436226

>  <r_i_glide_hbond>  (230) 
0

>  <r_i_glide_metal>  (230) 
-0

>  <r_i_glide_rewards>  (230) 
-0.996056

>  <r_i_glide_evdw>  (230) 
-18.1433

>  <r_i_glide_ecoul>  (230) 
-0.260059

>  <r_i_glide_erotb>  (230) 
0

>  <r_i_glide_esite>  (230) 
0

>  <r_i_glide_emodel>  (230) 
-20.4576

>  <r_i_glide_energy>  (230) 
-18.4033

>  <r_i_glide_einternal>  (230) 
0.348138

>  <r_i_glide_intrahb_reward>  (230) 
-0

>  <i_i_glide_confnum>  (230) 
2

>  <i_i_glide_posenum>  (230) 
11

>  <r_i_glide_eff_state_penalty>  (230) 
0

>  <ligand_id>  (230) 
53

>  <original_smiles>  (230) 
CC1=CC23CCC4C(C)(C)CC(O)C(O)C4(C)C2OC1C1C(C)C(=O)OC13

>  <smiles>  (230) 
[H]OC1([H])C([H])([H])C(C([H])([H])[H])(C([H])([H])[H])C2([H])C([H])([H])C([H])([H])C34C([H])=C(C([H])([H])[H])C([H])(OC3([H])C2(C([H])([H])[H])C1([H])O[H])C1([H])C4([H])OC(=O)C1([H])C([H])([H])[H]

$$$$
53:0:1
     RDKit          3D

 59 63  0  0  1  0  0  0  0  0999 V2000
    1.8469   -3.8531   -1.2516 C   0  0  0  0  0  0  0  0  0  0  0  0
    2.8936   -4.2982   -0.2583 C   0  0  0  0  0  0  0  0  0  0  0  0
    2.9853   -5.5247    0.2702 C   0  0  0  0  0  0  0  0  0  0  0  0
    4.1889   -5.7552    1.1696 C   0  0  2  0  0  0  0  0  0  0  0  0
    4.2260   -7.1895    1.7178 C   0  0  0  0  0  0  0  0  0  0  0  0
    3.2459   -7.4120    2.8771 C   0  0  0  0  0  0  0  0  0  0  0  0
    3.3401   -6.3601    4.0160 C   0  0  1  0  0  0  0  0  0  0  0  0
    4.4698   -6.6277    5.0876 C   0  0  0  0  0  0  0  0  0  0  0  0
    4.1588   -7.9293    5.8623 C   0  0  0  0  0  0  0  0  0  0  0  0
    5.8933   -6.8091    4.5148 C   0  0  0  0  0  0  0  0  0  0  0  0
    4.4710   -5.5040    6.1529 C   0  0  0  0  0  0  0  0  0  0  0  0
    4.5288   -4.0821    5.5949 C   0  0  1  0  0  0  0  0  0  0  0  0
    5.7956   -3.8168    5.0425 O   0  0  0  0  0  0  0  0  0  0  0  0
    3.3589   -3.8595    4.6224 C   0  0  1  0  0  0  0  0  0  0  0  0
    3.3276   -2.5114    4.1983 O   0  0  0  0  0  0  0  0  0  0  0  0
    3.1796   -4.8918    3.4629 C   0  0  2  0  0  0  0  0  0  0  0  0
    1.7062   -4.7121    2.9947 C   0  0  0  0  0  0  0  0  0  0  0  0
    4.1665   -4.6413    2.2690 C   0  0  2  0  0  0  0  0  0  0  0  0
    3.9682   -3.3565    1.6326 O   0  0  0  0  0  0  0  0  0  0  0  0
    3.9879   -3.3590    0.1945 C   0  0  1  0  0  0  0  0  0  0  0  0
    5.3347   -3.9916   -0.2639 C   0  0  1  0  0  0  0  0  0  0  0  0
    6.6527   -3.3216    0.1526 C   0  0  1  0  0  0  0  0  0  0  0  0
    6.5701   -2.0207    0.9762 C   0  0  0  0  0  0  0  0  0  0  0  0
    7.4089   -4.4288    0.8588 C   0  0  0  0  0  0  0  0  0  0  0  0
    8.5700   -4.2950    1.2551 O   0  0  0  0  0  0  0  0  0  0  0  0
    6.6766   -5.5403    0.9138 O   0  0  0  0  0  0  0  0  0  0  0  0
    5.4161   -5.4537    0.2594 C   0  0  1  0  0  0  0  0  0  0  0  0
    2.2930   -3.4747   -2.1802 H   0  0  0  0  0  0  0  0  0  0  0  0
    1.2837   -3.0622   -0.8001 H   0  0  0  0  0  0  0  0  0  0  0  0
    1.1657   -4.6630   -1.5007 H   0  0  0  0  0  0  0  0  0  0  0  0
    2.2930   -6.3163    0.0511 H   0  0  0  0  0  0  0  0  0  0  0  0
    4.0189   -7.9103    0.9254 H   0  0  0  0  0  0  0  0  0  0  0  0
    5.2355   -7.4283    2.0365 H   0  0  0  0  0  0  0  0  0  0  0  0
    2.2335   -7.4239    2.4729 H   0  0  0  0  0  0  0  0  0  0  0  0
    3.3853   -8.4147    3.2694 H   0  0  0  0  0  0  0  0  0  0  0  0
    2.4289   -6.5270    4.5884 H   0  0  0  0  0  0  0  0  0  0  0  0
    4.8589   -8.0691    6.6874 H   0  0  0  0  0  0  0  0  0  0  0  0
    4.2310   -8.8178    5.2405 H   0  0  0  0  0  0  0  0  0  0  0  0
    3.1597   -7.9131    6.2978 H   0  0  0  0  0  0  0  0  0  0  0  0
    6.6380   -6.7239    5.3072 H   0  0  0  0  0  0  0  0  0  0  0  0
    6.1555   -6.0676    3.7695 H   0  0  0  0  0  0  0  0  0  0  0  0
    6.0272   -7.7894    4.0577 H   0  0  0  0  0  0  0  0  0  0  0  0
    3.5516   -5.5765    6.7360 H   0  0  0  0  0  0  0  0  0  0  0  0
    5.2843   -5.6499    6.8654 H   0  0  0  0  0  0  0  0  0  0  0  0
    4.4196   -3.3835    6.4269 H   0  0  0  0  0  0  0  0  0  0  0  0
    5.9117   -4.3803    4.2944 H   0  0  0  0  0  0  0  0  0  0  0  0
    2.4745   -3.9668    5.2524 H   0  0  0  0  0  0  0  0  0  0  0  0
    3.3844   -1.9582    4.9579 H   0  0  0  0  0  0  0  0  0  0  0  0
    1.5399   -3.7132    2.5836 H   0  0  0  0  0  0  0  0  0  0  0  0
    1.0077   -4.8411    3.8215 H   0  0  0  0  0  0  0  0  0  0  0  0
    1.3941   -5.4280    2.2403 H   0  0  0  0  0  0  0  0  0  0  0  0
    5.1613   -4.5697    2.6923 H   0  0  0  0  0  0  0  0  0  0  0  0
    3.8294   -2.3533   -0.1998 H   0  0  0  0  0  0  0  0  0  0  0  0
    5.3303   -4.0155   -1.3549 H   0  0  0  0  0  0  0  0  0  0  0  0
    7.2430   -3.1197   -0.7385 H   0  0  0  0  0  0  0  0  0  0  0  0
    7.5622   -1.5935    1.1316 H   0  0  0  0  0  0  0  0  0  0  0  0
    6.1435   -2.2008    1.9649 H   0  0  0  0  0  0  0  0  0  0  0  0
    5.9737   -1.2609    0.4742 H   0  0  0  0  0  0  0  0  0  0  0  0
    5.4034   -6.1404   -0.5906 H   0  0  0  0  0  0  0  0  0  0  0  0
  1  2  1  0
  1 28  1  0
  1 29  1  0
  1 30  1  0
  2 20  1  0
  2  3  2  0
  3  4  1  0
  3 31  1  0
  4 18  1  0
  4 27  1  0
  4  5  1  1
  5  6  1  0
  5 32  1  0
  5 33  1  0
  6  7  1  0
  6 34  1  0
  6 35  1  0
  7 16  1  0
  7  8  1  0
  7 36  1  1
  8  9  1  0
  8 10  1  0
  8 11  1  0
  9 37  1  0
  9 38  1  0
  9 39  1  0
 10 40  1  0
 10 41  1  0
 10 42  1  0
 11 12  1  0
 11 43  1  0
 11 44  1  0
 12 13  1  0
 12 14  1  0
 12 45  1  1
 13 46  1  0
 14 15  1  0
 14 16  1  0
 14 47  1  1
 15 48  1  0
 16 17  1  6
 16 18  1  0
 17 49  1  0
 17 50  1  0
 17 51  1  0
 18 19  1  0
 18 52  1  1
 19 20  1  0
 20 21  1  0
 20 53  1  6
 21 27  1  0
 21 22  1  0
 21 54  1  6
 22 23  1  0
 22 24  1  0
 22 55  1  6
 23 56  1  0
 23 57  1  0
 23 58  1  0
 24 25  2  0
 24 26  1  0
 26 27  1  0
 27 59  1  6
M  END
>  <i_m_ct_stereo_status>  (231) 
1

>  <s_m_source_file>  (231) 
/var/tmp/pbs.5076255.sched01/tmpstc2q6q5/48db17pvb_.sdf

>  <i_m_source_file_index>  (231) 
45

>  <i_lp_mmshare_version>  (231) 
48012

>  <i_f3d_flags>  (231) 
0

>  <s_epik_input>  (231) 
W0NIM11bQ0BIXTFDKD1PKU9bQ0BASF0yW0NASF0xW0NAQEhdKEMoW0NIM10pPVtDSF0zKU9bQ0BIXShbQ0BdMjM0KVtDQEBdNShbQ0gzXSlbQ0BASF0oW0NIMl1bQ0gyXTQpQyhbQ0gzXSkoW0NIM10pW0NIMl1bQ0BASF0oW09IXSlbQ0BIXTVbT0hd

>  <s_epik_cmdline>  (231) 
J2VwaWtfcHl0aG9uJywgJy1waHQnLCAnMi4wJywgJy1waCcsICc3LjAnLCAnLXRuJywgJzgnLCAnLW1hJywgJzIwMCcsICctaW1hZScsICc8aW5maWxlLm1hZT4nLCAnLW9tYWUnLCAnPG91dGZpbGUubWFlPic=

>  <r_lp_tautomer_probability>  (231) 
1

>  <r_epik_Ionization_Penalty>  (231) 
4.92208e-07

>  <r_epik_Ionization_Penalty_Charging>  (231) 
0

>  <r_epik_Ionization_Penalty_Neutral>  (231) 
4.92208e-07

>  <r_epik_State_Penalty>  (231) 
-0

>  <r_epik_Charging_Adjusted_Penalty>  (231) 
0

>  <i_epik_Tot_Q>  (231) 
0

>  <i_epik_Tot_abs_Q>  (231) 
0

>  <s_epik_Chemistry_Notes>  (231) 
This compound has an ester and may undergo hydrolysis at high or low pH.

>  <s_lp_Force_Field>  (231) 
OPLS3e

>  <r_lp_Energy>  (231) 
55.0669

>  <b_lp_Chiralities_Consistent>  (231) 
1

>  <s_lp_Variant>  (231) 
53:0-1

>  <s_i_glide_gridfile>  (231) 
pfpi4k_grid

>  <i_i_glide_lignum>  (231) 
45

>  <i_i_glide_rotatable_bonds>  (231) 
2

>  <r_i_docking_score>  (231) 
-2.34598

>  <r_i_glide_ligand_efficiency>  (231) 
-0.0868882

>  <r_i_glide_ligand_efficiency_sa>  (231) 
-0.260665

>  <r_i_glide_ligand_efficiency_ln>  (231) 
-0.546106

>  <r_i_glide_gscore>  (231) 
-2.34598

>  <r_i_glide_lipo>  (231) 
-0.462509

>  <r_i_glide_hbond>  (231) 
0

>  <r_i_glide_metal>  (231) 
-0

>  <r_i_glide_rewards>  (231) 
-1.03014

>  <r_i_glide_evdw>  (231) 
-18.2452

>  <r_i_glide_ecoul>  (231) 
0.39283

>  <r_i_glide_erotb>  (231) 
0

>  <r_i_glide_esite>  (231) 
0

>  <r_i_glide_emodel>  (231) 
-19.8095

>  <r_i_glide_energy>  (231) 
-17.8524

>  <r_i_glide_einternal>  (231) 
0.341146

>  <r_i_glide_intrahb_reward>  (231) 
-0

>  <i_i_glide_confnum>  (231) 
2

>  <i_i_glide_posenum>  (231) 
1

>  <r_i_glide_eff_state_penalty>  (231) 
0

>  <ligand_id>  (231) 
53

>  <original_smiles>  (231) 
CC1=CC23CCC4C(C)(C)CC(O)C(O)C4(C)C2OC1C1C(C)C(=O)OC13

>  <smiles>  (231) 
[H]OC1([H])C([H])([H])C(C([H])([H])[H])(C([H])([H])[H])C2([H])C([H])([H])C([H])([H])C34C([H])=C(C([H])([H])[H])C([H])(OC3([H])C2(C([H])([H])[H])C1([H])O[H])C1([H])C4([H])OC(=O)C1([H])C([H])([H])[H]

$$$$
53:0:2
     RDKit          3D

 59 63  0  0  1  0  0  0  0  0999 V2000
    1.8354   -3.9562   -1.1518 C   0  0  0  0  0  0  0  0  0  0  0  0
    2.8276   -4.4376   -0.1205 C   0  0  0  0  0  0  0  0  0  0  0  0
    2.7944   -5.6122    0.5181 C   0  0  0  0  0  0  0  0  0  0  0  0
    3.9537   -5.8553    1.4698 C   0  0  2  0  0  0  0  0  0  0  0  0
    3.8175   -7.1956    2.1995 C   0  0  0  0  0  0  0  0  0  0  0  0
    2.8182   -7.1501    3.3660 C   0  0  0  0  0  0  0  0  0  0  0  0
    3.0404   -5.9848    4.3707 C   0  0  1  0  0  0  0  0  0  0  0  0
    4.1316   -6.2555    5.4826 C   0  0  0  0  0  0  0  0  0  0  0  0
    3.6655   -7.4047    6.4071 C   0  0  0  0  0  0  0  0  0  0  0  0
    5.5245   -6.6680    4.9528 C   0  0  0  0  0  0  0  0  0  0  0  0
    4.2711   -5.0196    6.4053 C   0  0  0  0  0  0  0  0  0  0  0  0
    4.4924   -3.6950    5.6811 C   0  0  1  0  0  0  0  0  0  0  0  0
    5.7652   -3.6361    5.0897 O   0  0  0  0  0  0  0  0  0  0  0  0
    3.3635   -3.4509    4.6773 C   0  0  1  0  0  0  0  0  0  0  0  0
    3.5400   -2.1663    4.1085 O   0  0  0  0  0  0  0  0  0  0  0  0
    3.0597   -4.5874    3.6418 C   0  0  2  0  0  0  0  0  0  0  0  0
    1.6178   -4.2875    3.1425 C   0  0  0  0  0  0  0  0  0  0  0  0
    4.0590   -4.6127    2.4335 C   0  0  2  0  0  0  0  0  0  0  0  0
    3.9995   -3.3969    1.6546 O   0  0  0  0  0  0  0  0  0  0  0  0
    4.0310   -3.5760    0.2310 C   0  0  1  0  0  0  0  0  0  0  0  0
    5.2985   -4.4123   -0.1354 C   0  0  1  0  0  0  0  0  0  0  0  0
    6.6889   -3.8586    0.2170 C   0  0  1  0  0  0  0  0  0  0  0  0
    6.7600   -2.4641    0.8644 C   0  0  0  0  0  0  0  0  0  0  0  0
    7.2997   -4.9383    1.0907 C   0  0  0  0  0  0  0  0  0  0  0  0
    8.4406   -4.8656    1.5482 O   0  0  0  0  0  0  0  0  0  0  0  0
    6.4515   -5.9524    1.2393 O   0  0  0  0  0  0  0  0  0  0  0  0
    5.2150   -5.8039    0.5513 C   0  0  1  0  0  0  0  0  0  0  0  0
    2.3267   -3.7513   -2.1114 H   0  0  0  0  0  0  0  0  0  0  0  0
    1.3713   -3.0529   -0.8048 H   0  0  0  0  0  0  0  0  0  0  0  0
    1.0591   -4.7048   -1.3278 H   0  0  0  0  0  0  0  0  0  0  0  0
    2.0297   -6.3606    0.3618 H   0  0  0  0  0  0  0  0  0  0  0  0
    3.5220   -7.9792    1.4985 H   0  0  0  0  0  0  0  0  0  0  0  0
    4.7931   -7.5042    2.5609 H   0  0  0  0  0  0  0  0  0  0  0  0
    1.8113   -7.0873    2.9525 H   0  0  0  0  0  0  0  0  0  0  0  0
    2.8318   -8.1074    3.8791 H   0  0  0  0  0  0  0  0  0  0  0  0
    2.1188   -5.9700    4.9496 H   0  0  0  0  0  0  0  0  0  0  0  0
    4.3466   -7.5260    7.2507 H   0  0  0  0  0  0  0  0  0  0  0  0
    3.6296   -8.3654    5.8945 H   0  0  0  0  0  0  0  0  0  0  0  0
    2.6748   -7.2146    6.8202 H   0  0  0  0  0  0  0  0  0  0  0  0
    6.2771   -6.5821    5.7389 H   0  0  0  0  0  0  0  0  0  0  0  0
    5.8686   -6.0442    4.1325 H   0  0  0  0  0  0  0  0  0  0  0  0
    5.5430   -7.7048    4.6131 H   0  0  0  0  0  0  0  0  0  0  0  0
    3.3523   -4.9083    6.9802 H   0  0  0  0  0  0  0  0  0  0  0  0
    5.0647   -5.1677    7.1375 H   0  0  0  0  0  0  0  0  0  0  0  0
    4.4699   -2.8859    6.4129 H   0  0  0  0  0  0  0  0  0  0  0  0
    5.8176   -2.8060    4.6427 H   0  0  0  0  0  0  0  0  0  0  0  0
    2.4717   -3.3597    5.2969 H   0  0  0  0  0  0  0  0  0  0  0  0
    2.8272   -2.0093    3.5109 H   0  0  0  0  0  0  0  0  0  0  0  0
    1.5623   -3.3388    2.6041 H   0  0  0  0  0  0  0  0  0  0  0  0
    0.9085   -4.2301    3.9689 H   0  0  0  0  0  0  0  0  0  0  0  0
    1.2251   -5.0492    2.4753 H   0  0  0  0  0  0  0  0  0  0  0  0
    5.0549   -4.6041    2.8539 H   0  0  0  0  0  0  0  0  0  0  0  0
    3.9969   -2.6152   -0.2873 H   0  0  0  0  0  0  0  0  0  0  0  0
    5.2865   -4.5634   -1.2160 H   0  0  0  0  0  0  0  0  0  0  0  0
    7.2974   -3.8375   -0.6848 H   0  0  0  0  0  0  0  0  0  0  0  0
    7.8015   -2.1493    0.9536 H   0  0  0  0  0  0  0  0  0  0  0  0
    6.3221   -2.4636    1.8684 H   0  0  0  0  0  0  0  0  0  0  0  0
    6.2535   -1.7105    0.2635 H   0  0  0  0  0  0  0  0  0  0  0  0
    5.1398   -6.5846   -0.2106 H   0  0  0  0  0  0  0  0  0  0  0  0
  1  2  1  0
  1 28  1  0
  1 29  1  0
  1 30  1  0
  2 20  1  0
  2  3  2  0
  3  4  1  0
  3 31  1  0
  4 18  1  0
  4 27  1  0
  4  5  1  1
  5  6  1  0
  5 32  1  0
  5 33  1  0
  6  7  1  0
  6 34  1  0
  6 35  1  0
  7 16  1  0
  7  8  1  0
  7 36  1  1
  8  9  1  0
  8 10  1  0
  8 11  1  0
  9 37  1  0
  9 38  1  0
  9 39  1  0
 10 40  1  0
 10 41  1  0
 10 42  1  0
 11 12  1  0
 11 43  1  0
 11 44  1  0
 12 13  1  0
 12 14  1  0
 12 45  1  1
 13 46  1  0
 14 15  1  0
 14 16  1  0
 14 47  1  1
 15 48  1  0
 16 17  1  6
 16 18  1  0
 17 49  1  0
 17 50  1  0
 17 51  1  0
 18 19  1  0
 18 52  1  1
 19 20  1  0
 20 21  1  0
 20 53  1  6
 21 27  1  0
 21 22  1  0
 21 54  1  6
 22 23  1  0
 22 24  1  0
 22 55  1  6
 23 56  1  0
 23 57  1  0
 23 58  1  0
 24 25  2  0
 24 26  1  0
 26 27  1  0
 27 59  1  6
M  END
>  <i_m_ct_stereo_status>  (232) 
1

>  <s_m_source_file>  (232) 
/var/tmp/pbs.5076255.sched01/tmpstc2q6q5/48db17pvb_.sdf

>  <i_m_source_file_index>  (232) 
45

>  <i_lp_mmshare_version>  (232) 
48012

>  <i_f3d_flags>  (232) 
0

>  <s_epik_input>  (232) 
W0NIM11bQ0BIXTFDKD1PKU9bQ0BASF0yW0NASF0xW0NAQEhdKEMoW0NIM10pPVtDSF0zKU9bQ0BIXShbQ0BdMjM0KVtDQEBdNShbQ0gzXSlbQ0BASF0oW0NIMl1bQ0gyXTQpQyhbQ0gzXSkoW0NIM10pW0NIMl1bQ0BASF0oW09IXSlbQ0BIXTVbT0hd

>  <s_epik_cmdline>  (232) 
J2VwaWtfcHl0aG9uJywgJy1waHQnLCAnMi4wJywgJy1waCcsICc3LjAnLCAnLXRuJywgJzgnLCAnLW1hJywgJzIwMCcsICctaW1hZScsICc8aW5maWxlLm1hZT4nLCAnLW9tYWUnLCAnPG91dGZpbGUubWFlPic=

>  <r_lp_tautomer_probability>  (232) 
1

>  <r_epik_Ionization_Penalty>  (232) 
4.92208e-07

>  <r_epik_Ionization_Penalty_Charging>  (232) 
0

>  <r_epik_Ionization_Penalty_Neutral>  (232) 
4.92208e-07

>  <r_epik_State_Penalty>  (232) 
-0

>  <r_epik_Charging_Adjusted_Penalty>  (232) 
0

>  <i_epik_Tot_Q>  (232) 
0

>  <i_epik_Tot_abs_Q>  (232) 
0

>  <s_epik_Chemistry_Notes>  (232) 
This compound has an ester and may undergo hydrolysis at high or low pH.

>  <s_lp_Force_Field>  (232) 
OPLS3e

>  <r_lp_Energy>  (232) 
55.0669

>  <b_lp_Chiralities_Consistent>  (232) 
1

>  <s_lp_Variant>  (232) 
53:0-1

>  <s_i_glide_gridfile>  (232) 
pfpi4k_grid

>  <i_i_glide_lignum>  (232) 
45

>  <i_i_glide_rotatable_bonds>  (232) 
2

>  <r_i_docking_score>  (232) 
-2.32083

>  <r_i_glide_ligand_efficiency>  (232) 
-0.0859567

>  <r_i_glide_ligand_efficiency_sa>  (232) 
-0.25787

>  <r_i_glide_ligand_efficiency_ln>  (232) 
-0.540251

>  <r_i_glide_gscore>  (232) 
-2.32083

>  <r_i_glide_lipo>  (232) 
-0.431566

>  <r_i_glide_hbond>  (232) 
0

>  <r_i_glide_metal>  (232) 
-0

>  <r_i_glide_rewards>  (232) 
-0.99954

>  <r_i_glide_evdw>  (232) 
-17.8225

>  <r_i_glide_ecoul>  (232) 
0.00932844

>  <r_i_glide_erotb>  (232) 
0

>  <r_i_glide_esite>  (232) 
0

>  <r_i_glide_emodel>  (232) 
-19.641

>  <r_i_glide_energy>  (232) 
-17.8131

>  <r_i_glide_einternal>  (232) 
0.68854

>  <r_i_glide_intrahb_reward>  (232) 
-0

>  <i_i_glide_confnum>  (232) 
1

>  <i_i_glide_posenum>  (232) 
16

>  <r_i_glide_eff_state_penalty>  (232) 
0

>  <ligand_id>  (232) 
53

>  <original_smiles>  (232) 
CC1=CC23CCC4C(C)(C)CC(O)C(O)C4(C)C2OC1C1C(C)C(=O)OC13

>  <smiles>  (232) 
[H]OC1([H])C([H])([H])C(C([H])([H])[H])(C([H])([H])[H])C2([H])C([H])([H])C([H])([H])C34C([H])=C(C([H])([H])[H])C([H])(OC3([H])C2(C([H])([H])[H])C1([H])O[H])C1([H])C4([H])OC(=O)C1([H])C([H])([H])[H]

$$$$
54:0:0
     RDKit          3D

 74 81  0  0  1  0  0  0  0  0999 V2000
    0.0207   -8.0789    5.7655 C   0  0  0  0  0  0  0  0  0  0  0  0
    0.2346   -8.0360    4.4447 C   0  0  0  0  0  0  0  0  0  0  0  0
    0.3472   -9.4349    3.6045 C   0  0  1  0  0  0  0  0  0  0  0  0
   -0.7908   -9.5839    2.5659 C   0  0  0  0  0  0  0  0  0  0  0  0
    1.7479  -10.1601    3.0337 C   0  0  0  0  0  0  0  0  0  0  0  0
    2.9489   -9.6650    1.9396 C   0  0  0  0  0  0  0  0  0  0  0  0
    4.2479   -8.6430    2.2875 C   0  0  1  0  0  0  0  0  0  0  0  0
    5.4055   -9.4443    1.5972 C   0  0  0  0  0  0  0  0  0  0  0  0
    4.7557   -6.9646    2.3030 C   0  0  1  0  0  0  0  0  0  0  0  0
    3.8556   -5.3994    2.4901 C   0  0  2  0  0  0  0  0  0  0  0  0
    3.4999   -4.9211    1.0139 C   0  0  0  0  0  0  0  0  0  0  0  0
    2.5640   -5.5859    0.1981 O   0  0  0  0  0  0  0  0  0  0  0  0
    4.9014   -4.3299    3.0165 C   0  0  1  0  0  0  0  0  0  0  0  0
    4.7903   -2.8397    2.5642 C   0  0  0  0  0  0  0  0  0  0  0  0
    4.8556   -4.4177    4.5780 C   0  0  1  0  0  0  0  0  0  0  0  0
    5.6061   -3.4133    5.2476 O   0  0  0  0  0  0  0  0  0  0  0  0
    3.3911   -4.5816    5.0146 C   0  0  2  0  0  0  0  0  0  0  0  0
    2.9648   -3.2354    5.7058 C   0  0  0  0  0  0  0  0  0  0  0  0
    3.1627   -5.7778    6.0218 C   0  0  0  0  0  0  0  0  0  0  0  0
    3.2455   -7.2909    5.5441 C   0  0  2  0  0  0  0  0  0  0  0  0
    4.7497   -7.7337    5.7767 C   0  0  0  0  0  0  0  0  0  0  0  0
    5.2098   -8.0891    4.3891 C   0  0  2  0  0  0  0  0  0  0  0  0
    6.4458   -8.4785    3.8895 O   0  0  0  0  0  0  0  0  0  0  0  0
    5.8923   -7.1853    3.4194 C   0  0  1  0  0  0  0  0  0  0  0  0
    6.9306   -6.2523    3.6556 O   0  0  0  0  0  0  0  0  0  0  0  0
    4.0706   -8.7495    3.7670 C   0  0  1  0  0  0  0  0  0  0  0  0
    2.8820   -7.8088    4.0451 C   0  0  1  0  0  0  0  0  0  0  0  0
    1.9513   -7.3615    2.6093 C   0  0  0  0  0  0  0  0  0  0  0  0
    0.7780   -6.4996    2.4132 C   0  0  1  0  0  0  0  0  0  0  0  0
   -0.6183   -6.6963    2.6515 O   0  0  0  0  0  0  0  0  0  0  0  0
    0.2789   -6.6155    3.7381 C   0  0  1  0  0  0  0  0  0  0  0  0
    1.0347   -5.2686    4.1058 C   0  0  1  0  0  0  0  0  0  0  0  0
    0.4504   -4.8114    5.3034 O   0  0  0  0  0  0  0  0  0  0  0  0
    2.6439   -4.8662    3.6747 C   0  0  2  0  0  0  0  0  0  0  0  0
   -0.0858   -7.1614    6.3366 H   0  0  0  0  0  0  0  0  0  0  0  0
   -0.0374   -9.0297    6.2900 H   0  0  0  0  0  0  0  0  0  0  0  0
    0.0481  -10.1611    4.3638 H   0  0  0  0  0  0  0  0  0  0  0  0
   -1.7571   -9.3362    3.0092 H   0  0  0  0  0  0  0  0  0  0  0  0
   -0.8529  -10.6086    2.1977 H   0  0  0  0  0  0  0  0  0  0  0  0
   -0.6561   -8.9571    1.6835 H   0  0  0  0  0  0  0  0  0  0  0  0
    2.2084  -10.6099    3.9108 H   0  0  0  0  0  0  0  0  0  0  0  0
    1.3662  -11.0586    2.5453 H   0  0  0  0  0  0  0  0  0  0  0  0
    3.3882  -10.6399    1.7098 H   0  0  0  0  0  0  0  0  0  0  0  0
    2.5311   -9.4229    0.9606 H   0  0  0  0  0  0  0  0  0  0  0  0
    6.3570   -8.9092    1.5344 H   0  0  0  0  0  0  0  0  0  0  0  0
    5.1429   -9.6608    0.5588 H   0  0  0  0  0  0  0  0  0  0  0  0
    5.6037  -10.4053    2.0838 H   0  0  0  0  0  0  0  0  0  0  0  0
    5.3034   -6.8337    1.3731 H   0  0  0  0  0  0  0  0  0  0  0  0
    3.1340   -3.9101    1.0352 H   0  0  0  0  0  0  0  0  0  0  0  0
    4.4125   -4.8753    0.4307 H   0  0  0  0  0  0  0  0  0  0  0  0
    2.8612   -5.5883   -0.7208 H   0  0  0  0  0  0  0  0  0  0  0  0
    5.8906   -4.5399    2.6297 H   0  0  0  0  0  0  0  0  0  0  0  0
    3.8556   -2.3544    2.8312 H   0  0  0  0  0  0  0  0  0  0  0  0
    4.9294   -2.7257    1.4909 H   0  0  0  0  0  0  0  0  0  0  0  0
    5.5785   -2.2277    3.0047 H   0  0  0  0  0  0  0  0  0  0  0  0
    5.3331   -5.2974    4.9548 H   0  0  0  0  0  0  0  0  0  0  0  0
    5.6578   -3.6427    6.1663 H   0  0  0  0  0  0  0  0  0  0  0  0
    1.9404   -3.1873    6.0513 H   0  0  0  0  0  0  0  0  0  0  0  0
    3.1042   -2.3737    5.0520 H   0  0  0  0  0  0  0  0  0  0  0  0
    3.5484   -3.0399    6.6070 H   0  0  0  0  0  0  0  0  0  0  0  0
    3.8520   -5.6187    6.8585 H   0  0  0  0  0  0  0  0  0  0  0  0
    2.2198   -5.6628    6.5491 H   0  0  0  0  0  0  0  0  0  0  0  0
    2.6633   -7.8571    6.2722 H   0  0  0  0  0  0  0  0  0  0  0  0
    5.4188   -6.9847    6.2156 H   0  0  0  0  0  0  0  0  0  0  0  0
    4.7821   -8.6296    6.4047 H   0  0  0  0  0  0  0  0  0  0  0  0
    7.5833   -6.3857    2.9777 H   0  0  0  0  0  0  0  0  0  0  0  0
    4.0242   -9.7557    4.1881 H   0  0  0  0  0  0  0  0  0  0  0  0
    3.3436   -6.9135    4.0155 H   0  0  0  0  0  0  0  0  0  0  0  0
    2.4986   -7.1540    1.7206 H   0  0  0  0  0  0  0  0  0  0  0  0
    1.3878   -8.0894    2.0917 H   0  0  0  0  0  0  0  0  0  0  0  0
    0.9498   -5.5925    1.8275 H   0  0  0  0  0  0  0  0  0  0  0  0
    0.5098   -4.4923    3.5401 H   0  0  0  0  0  0  0  0  0  0  0  0
    0.7893   -5.3532    6.0034 H   0  0  0  0  0  0  0  0  0  0  0  0
    2.4428   -3.8694    3.2970 H   0  0  0  0  0  0  0  0  0  0  0  0
  1  2  2  0
  1 35  1  0
  1 36  1  0
  2 31  1  0
  2  3  1  0
  3  4  1  0
  3  5  1  0
  3 37  1  1
  4 38  1  0
  4 39  1  0
  4 40  1  0
  5  6  1  0
  5 41  1  0
  5 42  1  0
  6  7  1  0
  6 43  1  0
  6 44  1  0
  7 26  1  0
  7  8  1  1
  7  9  1  0
  8 45  1  0
  8 46  1  0
  8 47  1  0
  9 24  1  0
  9 10  1  0
  9 48  1  6
 10 34  1  0
 10 11  1  6
 10 13  1  0
 11 12  1  0
 11 49  1  0
 11 50  1  0
 12 51  1  0
 13 14  1  0
 13 15  1  0
 13 52  1  6
 14 53  1  0
 14 54  1  0
 14 55  1  0
 15 16  1  0
 15 17  1  0
 15 56  1  6
 16 57  1  0
 17 34  1  0
 17 18  1  1
 17 19  1  0
 18 58  1  0
 18 59  1  0
 18 60  1  0
 19 20  1  0
 19 61  1  0
 19 62  1  0
 20 27  1  0
 20 21  1  0
 20 63  1  1
 21 22  1  0
 21 64  1  0
 21 65  1  0
 22 24  1  0
 22 23  1  1
 22 26  1  0
 23 24  1  0
 24 25  1  1
 25 66  1  0
 26 27  1  0
 26 67  1  6
 27 28  1  0
 27 68  1  1
 28 29  1  0
 28 69  1  0
 28 70  1  0
 29 31  1  0
 29 30  1  0
 29 71  1  1
 31 30  1  6
 31 32  1  0
 32 33  1  0
 32 34  1  0
 32 72  1  6
 33 73  1  0
 34 74  1  6
M  END
>  <i_m_ct_stereo_status>  (233) 
1

>  <s_m_source_file>  (233) 
/var/tmp/pbs.5076255.sched01/tmpstc2q6q5/48db17pvb_.sdf

>  <i_m_source_file_index>  (233) 
46

>  <i_lp_mmshare_version>  (233) 
48012

>  <i_f3d_flags>  (233) 
0

>  <s_epik_input>  (233) 
W0NIMl0xW0NIMl1bQ0BIXShbQ0gzXSlDKD1bQ0gyXSlDMihbQ0BIXShPMilbQ0gyXTMpW0NAQEhdKFtPSF0pW0NASF0oW0NAQF00KFtDSDJdW09IXSlbQ0BASF0oW0NIM10pW0NASF01W09IXSlbQ0BAXTUoW0NIM10pW0NIMl1bQ0BIXShbQ0gyXTYpW0NASF0zW0NASF03W0NAXTEoW0NIM10pW0NAQEhdNFtDQEBdKFtDQEBdNjc4KShPOClbT0hd

>  <s_epik_cmdline>  (233) 
J2VwaWtfcHl0aG9uJywgJy1waHQnLCAnMi4wJywgJy1waCcsICc3LjAnLCAnLXRuJywgJzgnLCAnLW1hJywgJzIwMCcsICctaW1hZScsICc8aW5maWxlLm1hZT4nLCAnLW9tYWUnLCAnPG91dGZpbGUubWFlPic=

>  <r_lp_tautomer_probability>  (233) 
1

>  <r_epik_Ionization_Penalty>  (233) 
1.61888e-06

>  <r_epik_Ionization_Penalty_Charging>  (233) 
0

>  <r_epik_Ionization_Penalty_Neutral>  (233) 
1.61888e-06

>  <r_epik_State_Penalty>  (233) 
-0

>  <r_epik_Charging_Adjusted_Penalty>  (233) 
0

>  <i_epik_Tot_Q>  (233) 
0

>  <i_epik_Tot_abs_Q>  (233) 
0

>  <s_lp_Force_Field>  (233) 
OPLS3e

>  <r_lp_Energy>  (233) 
560.182

>  <b_lp_Chiralities_Consistent>  (233) 
1

>  <s_lp_Variant>  (233) 
54:0-1

>  <s_i_glide_gridfile>  (233) 
pfpi4k_grid

>  <i_i_glide_lignum>  (233) 
46

>  <i_i_glide_rotatable_bonds>  (233) 
5

>  <r_i_docking_score>  (233) 
-2.74779

>  <r_i_glide_ligand_efficiency>  (233) 
-0.0808175

>  <r_i_glide_ligand_efficiency_sa>  (233) 
-0.261817

>  <r_i_glide_ligand_efficiency_ln>  (233) 
-0.607065

>  <r_i_glide_gscore>  (233) 
-2.74779

>  <r_i_glide_lipo>  (233) 
-0.237837

>  <r_i_glide_hbond>  (233) 
-0.48

>  <r_i_glide_metal>  (233) 
-0

>  <r_i_glide_rewards>  (233) 
-0.186725

>  <r_i_glide_evdw>  (233) 
-19.5776

>  <r_i_glide_ecoul>  (233) 
-6.36588

>  <r_i_glide_erotb>  (233) 
0.0905312

>  <r_i_glide_esite>  (233) 
0

>  <r_i_glide_emodel>  (233) 
-28.7742

>  <r_i_glide_energy>  (233) 
-25.9435

>  <r_i_glide_einternal>  (233) 
1.14719

>  <r_i_glide_intrahb_reward>  (233) 
-0

>  <i_i_glide_confnum>  (233) 
5

>  <i_i_glide_posenum>  (233) 
36

>  <r_i_glide_eff_state_penalty>  (233) 
0

>  <ligand_id>  (233) 
54

>  <original_smiles>  (233) 
C=C1C(C)CCC2(C)C3C4(CO)C(C)C(O)C5(C)CC6CC7(OC37O)C2C6CC2OC12C(O)C54

>  <smiles>  (233) 
[H]OC([H])([H])C12C([H])(C([H])([H])[H])C([H])(O[H])C3(C([H])([H])[H])C([H])([H])C4([H])C([H])([H])C56OC5(O[H])C1([H])C1(C([H])([H])[H])C([H])([H])C([H])([H])C([H])(C([H])([H])[H])C(=C([H])[H])C5(OC5([H])C([H])([H])C4([H])C61[H])C([H])(O[H])C32[H]

$$$$
54:0:1
     RDKit          3D

 74 81  0  0  1  0  0  0  0  0999 V2000
    1.3162   -6.4553    6.1181 C   0  0  0  0  0  0  0  0  0  0  0  0
    1.2587   -6.8333    4.8364 C   0  0  0  0  0  0  0  0  0  0  0  0
    1.4814   -8.4074    4.4552 C   0  0  1  0  0  0  0  0  0  0  0  0
    0.2087   -9.0423    3.8554 C   0  0  0  0  0  0  0  0  0  0  0  0
    2.8559   -9.1091    3.7956 C   0  0  0  0  0  0  0  0  0  0  0  0
    3.6841   -8.8767    2.3380 C   0  0  0  0  0  0  0  0  0  0  0  0
    4.7924   -7.6446    2.0317 C   0  0  1  0  0  0  0  0  0  0  0  0
    5.9240   -8.4688    1.3562 C   0  0  0  0  0  0  0  0  0  0  0  0
    4.9599   -5.9975    1.4197 C   0  0  1  0  0  0  0  0  0  0  0  0
    3.8526   -4.5368    1.3845 C   0  0  2  0  0  0  0  0  0  0  0  0
    3.0826   -4.6542    0.0271 C   0  0  0  0  0  0  0  0  0  0  0  0
    3.9002   -4.3469   -1.0625 O   0  0  0  0  0  0  0  0  0  0  0  0
    4.7285   -3.2136    1.2708 C   0  0  1  0  0  0  0  0  0  0  0  0
    4.2146   -1.9326    0.4947 C   0  0  0  0  0  0  0  0  0  0  0  0
    5.0162   -2.8303    2.7515 C   0  0  1  0  0  0  0  0  0  0  0  0
    5.6898   -1.5942    2.8658 O   0  0  0  0  0  0  0  0  0  0  0  0
    3.7259   -3.0168    3.5677 C   0  0  2  0  0  0  0  0  0  0  0  0
    3.1866   -1.5854    3.9113 C   0  0  0  0  0  0  0  0  0  0  0  0
    3.9310   -3.8416    4.8938 C   0  0  0  0  0  0  0  0  0  0  0  0
    4.2154   -5.4005    4.8762 C   0  0  2  0  0  0  0  0  0  0  0  0
    5.7822   -5.5679    4.8382 C   0  0  0  0  0  0  0  0  0  0  0  0
    6.0263   -6.2902    3.5497 C   0  0  2  0  0  0  0  0  0  0  0  0
    7.2014   -6.6508    2.8989 O   0  0  0  0  0  0  0  0  0  0  0  0
    6.2913   -5.7126    2.2010 C   0  0  1  0  0  0  0  0  0  0  0  0
    7.1505   -4.6507    1.8043 O   0  0  0  0  0  0  0  0  0  0  0  0
    4.9504   -7.2626    3.4755 C   0  0  1  0  0  0  0  0  0  0  0  0
    3.6788   -6.4322    3.7413 C   0  0  1  0  0  0  0  0  0  0  0  0
    2.4187   -6.6337    2.5163 C   0  0  0  0  0  0  0  0  0  0  0  0
    1.1332   -6.0295    2.3562 C   0  0  1  0  0  0  0  0  0  0  0  0
   -0.1300   -6.2922    2.9456 O   0  0  0  0  0  0  0  0  0  0  0  0
    0.9022   -5.7426    3.7454 C   0  0  1  0  0  0  0  0  0  0  0  0
    1.4236   -4.2757    3.5189 C   0  0  1  0  0  0  0  0  0  0  0  0
    1.0084   -3.5351    4.6414 O   0  0  0  0  0  0  0  0  0  0  0  0
    2.8016   -3.8208    2.6162 C   0  0  2  0  0  0  0  0  0  0  0  0
    1.1532   -5.4240    6.4028 H   0  0  0  0  0  0  0  0  0  0  0  0
    1.5391   -7.1661    6.8950 H   0  0  0  0  0  0  0  0  0  0  0  0
    1.4959   -8.8559    5.4470 H   0  0  0  0  0  0  0  0  0  0  0  0
   -0.6782   -8.7697    4.4260 H   0  0  0  0  0  0  0  0  0  0  0  0
    0.2666  -10.1325    3.8773 H   0  0  0  0  0  0  0  0  0  0  0  0
    0.0421   -8.7587    2.8164 H   0  0  0  0  0  0  0  0  0  0  0  0
    3.5546   -9.1771    4.6254 H   0  0  0  0  0  0  0  0  0  0  0  0
    2.5668  -10.1557    3.7177 H   0  0  0  0  0  0  0  0  0  0  0  0
    4.2551   -9.8078    2.2965 H   0  0  0  0  0  0  0  0  0  0  0  0
    3.0353   -9.0218    1.4737 H   0  0  0  0  0  0  0  0  0  0  0  0
    6.7283   -7.8742    0.9122 H   0  0  0  0  0  0  0  0  0  0  0  0
    5.5185   -9.0336    0.5195 H   0  0  0  0  0  0  0  0  0  0  0  0
    6.3784   -9.1839    2.0438 H   0  0  0  0  0  0  0  0  0  0  0  0
    5.2515   -6.1195    0.3672 H   0  0  0  0  0  0  0  0  0  0  0  0
    2.7442   -5.6668   -0.1907 H   0  0  0  0  0  0  0  0  0  0  0  0
    2.2055   -4.0181   -0.0090 H   0  0  0  0  0  0  0  0  0  0  0  0
    3.5332   -4.8324   -1.7862 H   0  0  0  0  0  0  0  0  0  0  0  0
    5.6261   -3.4201    0.7015 H   0  0  0  0  0  0  0  0  0  0  0  0
    3.2564   -1.5498    0.8469 H   0  0  0  0  0  0  0  0  0  0  0  0
    4.1299   -2.0282   -0.5811 H   0  0  0  0  0  0  0  0  0  0  0  0
    4.9486   -1.1244    0.5825 H   0  0  0  0  0  0  0  0  0  0  0  0
    5.7059   -3.4952    3.2252 H   0  0  0  0  0  0  0  0  0  0  0  0
    5.1525   -0.9212    2.4806 H   0  0  0  0  0  0  0  0  0  0  0  0
    2.2702   -1.5489    4.4884 H   0  0  0  0  0  0  0  0  0  0  0  0
    3.0081   -0.9863    3.0192 H   0  0  0  0  0  0  0  0  0  0  0  0
    3.9008   -1.0398    4.5273 H   0  0  0  0  0  0  0  0  0  0  0  0
    4.7307   -3.3420    5.4473 H   0  0  0  0  0  0  0  0  0  0  0  0
    3.1148   -3.6853    5.5839 H   0  0  0  0  0  0  0  0  0  0  0  0
    3.9068   -5.7746    5.8539 H   0  0  0  0  0  0  0  0  0  0  0  0
    6.3616   -4.6512    4.8548 H   0  0  0  0  0  0  0  0  0  0  0  0
    6.1164   -6.1862    5.6668 H   0  0  0  0  0  0  0  0  0  0  0  0
    6.9228   -3.8912    2.3180 H   0  0  0  0  0  0  0  0  0  0  0  0
    5.1691   -8.0691    4.1739 H   0  0  0  0  0  0  0  0  0  0  0  0
    3.9481   -5.5496    3.3452 H   0  0  0  0  0  0  0  0  0  0  0  0
    2.7377   -6.6786    1.5043 H   0  0  0  0  0  0  0  0  0  0  0  0
    1.9040   -7.5552    2.3837 H   0  0  0  0  0  0  0  0  0  0  0  0
    1.0135   -5.4036    1.4774 H   0  0  0  0  0  0  0  0  0  0  0  0
    0.6488   -3.8391    2.8816 H   0  0  0  0  0  0  0  0  0  0  0  0
    1.1599   -2.6216    4.4682 H   0  0  0  0  0  0  0  0  0  0  0  0
    2.3246   -3.0461    2.0256 H   0  0  0  0  0  0  0  0  0  0  0  0
  1  2  2  0
  1 35  1  0
  1 36  1  0
  2 31  1  0
  2  3  1  0
  3  4  1  0
  3  5  1  0
  3 37  1  1
  4 38  1  0
  4 39  1  0
  4 40  1  0
  5  6  1  0
  5 41  1  0
  5 42  1  0
  6  7  1  0
  6 43  1  0
  6 44  1  0
  7 26  1  0
  7  8  1  6
  7  9  1  0
  8 45  1  0
  8 46  1  0
  8 47  1  0
  9 24  1  0
  9 10  1  0
  9 48  1  6
 10 34  1  0
 10 11  1  6
 10 13  1  0
 11 12  1  0
 11 49  1  0
 11 50  1  0
 12 51  1  0
 13 14  1  0
 13 15  1  0
 13 52  1  6
 14 53  1  0
 14 54  1  0
 14 55  1  0
 15 16  1  0
 15 17  1  0
 15 56  1  1
 16 57  1  0
 17 34  1  0
 17 18  1  1
 17 19  1  0
 18 58  1  0
 18 59  1  0
 18 60  1  0
 19 20  1  0
 19 61  1  0
 19 62  1  0
 20 27  1  0
 20 21  1  0
 20 63  1  1
 21 22  1  0
 21 64  1  0
 21 65  1  0
 22 24  1  0
 22 23  1  1
 22 26  1  0
 23 24  1  0
 24 25  1  1
 25 66  1  0
 26 27  1  0
 26 67  1  1
 27 28  1  0
 27 68  1  1
 28 29  1  0
 28 69  1  0
 28 70  1  0
 29 31  1  0
 29 30  1  0
 29 71  1  6
 31 30  1  6
 31 32  1  0
 32 33  1  0
 32 34  1  0
 32 72  1  6
 33 73  1  0
 34 74  1  6
M  END
>  <i_m_ct_stereo_status>  (234) 
1

>  <s_m_source_file>  (234) 
/var/tmp/pbs.5076255.sched01/tmpstc2q6q5/48db17pvb_.sdf

>  <i_m_source_file_index>  (234) 
46

>  <i_lp_mmshare_version>  (234) 
48012

>  <i_f3d_flags>  (234) 
0

>  <s_epik_input>  (234) 
W0NIMl0xW0NIMl1bQ0BIXShbQ0gzXSlDKD1bQ0gyXSlDMihbQ0BIXShPMilbQ0gyXTMpW0NAQEhdKFtPSF0pW0NASF0oW0NAQF00KFtDSDJdW09IXSlbQ0BASF0oW0NIM10pW0NASF01W09IXSlbQ0BAXTUoW0NIM10pW0NIMl1bQ0BIXShbQ0gyXTYpW0NASF0zW0NASF03W0NAXTEoW0NIM10pW0NAQEhdNFtDQEBdKFtDQEBdNjc4KShPOClbT0hd

>  <s_epik_cmdline>  (234) 
J2VwaWtfcHl0aG9uJywgJy1waHQnLCAnMi4wJywgJy1waCcsICc3LjAnLCAnLXRuJywgJzgnLCAnLW1hJywgJzIwMCcsICctaW1hZScsICc8aW5maWxlLm1hZT4nLCAnLW9tYWUnLCAnPG91dGZpbGUubWFlPic=

>  <r_lp_tautomer_probability>  (234) 
1

>  <r_epik_Ionization_Penalty>  (234) 
1.61888e-06

>  <r_epik_Ionization_Penalty_Charging>  (234) 
0

>  <r_epik_Ionization_Penalty_Neutral>  (234) 
1.61888e-06

>  <r_epik_State_Penalty>  (234) 
-0

>  <r_epik_Charging_Adjusted_Penalty>  (234) 
0

>  <i_epik_Tot_Q>  (234) 
0

>  <i_epik_Tot_abs_Q>  (234) 
0

>  <s_lp_Force_Field>  (234) 
OPLS3e

>  <r_lp_Energy>  (234) 
560.182

>  <b_lp_Chiralities_Consistent>  (234) 
1

>  <s_lp_Variant>  (234) 
54:0-1

>  <s_i_glide_gridfile>  (234) 
pfpi4k_grid

>  <i_i_glide_lignum>  (234) 
46

>  <i_i_glide_rotatable_bonds>  (234) 
5

>  <r_i_docking_score>  (234) 
-2.66256

>  <r_i_glide_ligand_efficiency>  (234) 
-0.0783105

>  <r_i_glide_ligand_efficiency_sa>  (234) 
-0.253696

>  <r_i_glide_ligand_efficiency_ln>  (234) 
-0.588234

>  <r_i_glide_gscore>  (234) 
-2.66256

>  <r_i_glide_lipo>  (234) 
-0.289679

>  <r_i_glide_hbond>  (234) 
-0.462124

>  <r_i_glide_metal>  (234) 
-0

>  <r_i_glide_rewards>  (234) 
-0.239626

>  <r_i_glide_evdw>  (234) 
-13.1422

>  <r_i_glide_ecoul>  (234) 
-7.36369

>  <r_i_glide_erotb>  (234) 
0.0905312

>  <r_i_glide_esite>  (234) 
0

>  <r_i_glide_emodel>  (234) 
-20.5615

>  <r_i_glide_energy>  (234) 
-20.5058

>  <r_i_glide_einternal>  (234) 
6.06597

>  <r_i_glide_intrahb_reward>  (234) 
-0

>  <i_i_glide_confnum>  (234) 
5

>  <i_i_glide_posenum>  (234) 
7

>  <r_i_glide_eff_state_penalty>  (234) 
0

>  <ligand_id>  (234) 
54

>  <original_smiles>  (234) 
C=C1C(C)CCC2(C)C3C4(CO)C(C)C(O)C5(C)CC6CC7(OC37O)C2C6CC2OC12C(O)C54

>  <smiles>  (234) 
[H]OC([H])([H])C12C([H])(C([H])([H])[H])C([H])(O[H])C3(C([H])([H])[H])C([H])([H])C4([H])C([H])([H])C56OC5(O[H])C1([H])C1(C([H])([H])[H])C([H])([H])C([H])([H])C([H])(C([H])([H])[H])C(=C([H])[H])C5(OC5([H])C([H])([H])C4([H])C61[H])C([H])(O[H])C32[H]

$$$$
54:0:2
     RDKit          3D

 74 81  0  0  1  0  0  0  0  0999 V2000
    0.5813   -8.4092    5.7540 C   0  0  0  0  0  0  0  0  0  0  0  0
    0.8280   -8.5513    4.4334 C   0  0  0  0  0  0  0  0  0  0  0  0
    1.2016  -10.0296    3.8622 C   0  0  1  0  0  0  0  0  0  0  0  0
    0.1276  -10.5458    2.8853 C   0  0  0  0  0  0  0  0  0  0  0  0
    2.7092  -10.5967    3.4138 C   0  0  0  0  0  0  0  0  0  0  0  0
    3.8298  -10.0960    2.2493 C   0  0  0  0  0  0  0  0  0  0  0  0
    4.9235   -8.8253    2.4179 C   0  0  1  0  0  0  0  0  0  0  0  0
    6.2131   -9.5171    1.8520 C   0  0  0  0  0  0  0  0  0  0  0  0
    5.1536   -7.1046    2.1511 C   0  0  1  0  0  0  0  0  0  0  0  0
    4.0143   -5.6807    2.0993 C   0  0  2  0  0  0  0  0  0  0  0  0
    3.5542   -5.5433    0.5971 C   0  0  0  0  0  0  0  0  0  0  0  0
    4.6277   -5.4567   -0.3163 O   0  0  0  0  0  0  0  0  0  0  0  0
    4.8462   -4.3727    2.4269 C   0  0  1  0  0  0  0  0  0  0  0  0
    4.4660   -3.0329    1.7240 C   0  0  0  0  0  0  0  0  0  0  0  0
    4.7655   -4.2265    3.9742 C   0  0  1  0  0  0  0  0  0  0  0  0
    5.3516   -3.0378    4.4770 O   0  0  0  0  0  0  0  0  0  0  0  0
    3.3377   -4.5620    4.4398 C   0  0  2  0  0  0  0  0  0  0  0  0
    2.6713   -3.2198    4.8965 C   0  0  0  0  0  0  0  0  0  0  0  0
    3.2863   -5.6080    5.6196 C   0  0  0  0  0  0  0  0  0  0  0  0
    3.6340   -7.1369    5.3916 C   0  0  2  0  0  0  0  0  0  0  0  0
    5.1797   -7.2861    5.6873 C   0  0  0  0  0  0  0  0  0  0  0  0
    5.7319   -7.7830    4.3887 C   0  0  2  0  0  0  0  0  0  0  0  0
    7.0359   -8.0155    3.9595 O   0  0  0  0  0  0  0  0  0  0  0  0
    6.2769   -6.9592    3.2772 C   0  0  1  0  0  0  0  0  0  0  0  0
    7.1400   -5.8597    3.3602 O   0  0  0  0  0  0  0  0  0  0  0  0
    4.7275   -8.7093    3.8849 C   0  0  1  0  0  0  0  0  0  0  0  0
    3.3953   -7.9508    4.0024 C   0  0  1  0  0  0  0  0  0  0  0  0
    2.4515   -7.9225    2.4989 C   0  0  0  0  0  0  0  0  0  0  0  0
    1.1764   -7.3034    2.1523 C   0  0  1  0  0  0  0  0  0  0  0  0
   -0.1721   -7.6691    2.4299 O   0  0  0  0  0  0  0  0  0  0  0  0
    0.6705   -7.2829    3.4983 C   0  0  1  0  0  0  0  0  0  0  0  0
    1.1684   -5.7966    3.6540 C   0  0  1  0  0  0  0  0  0  0  0  0
    0.4683   -5.2711    4.7607 O   0  0  0  0  0  0  0  0  0  0  0  0
    2.6914   -5.1856    3.1769 C   0  0  2  0  0  0  0  0  0  0  0  0
    0.3137   -7.4520    6.1707 H   0  0  0  0  0  0  0  0  0  0  0  0
    0.6607   -9.2510    6.4253 H   0  0  0  0  0  0  0  0  0  0  0  0
    1.0055  -10.6544    4.7366 H   0  0  0  0  0  0  0  0  0  0  0  0
   -0.8704  -10.3477    3.2792 H   0  0  0  0  0  0  0  0  0  0  0  0
    0.2209  -11.6201    2.7241 H   0  0  0  0  0  0  0  0  0  0  0  0
    0.1846  -10.0765    1.9092 H   0  0  0  0  0  0  0  0  0  0  0  0
    3.2117  -10.8162    4.3520 H   0  0  0  0  0  0  0  0  0  0  0  0
    2.4933  -11.6135    3.0843 H   0  0  0  0  0  0  0  0  0  0  0  0
    4.4340  -10.9991    2.1841 H   0  0  0  0  0  0  0  0  0  0  0  0
    3.3897  -10.0873    1.2527 H   0  0  0  0  0  0  0  0  0  0  0  0
    7.0583   -8.8455    1.6979 H   0  0  0  0  0  0  0  0  0  0  0  0
    6.0131   -9.9474    0.8700 H   0  0  0  0  0  0  0  0  0  0  0  0
    6.5572  -10.3286    2.4977 H   0  0  0  0  0  0  0  0  0  0  0  0
    5.7073   -7.0512    1.2192 H   0  0  0  0  0  0  0  0  0  0  0  0
    2.9656   -6.3677    0.2186 H   0  0  0  0  0  0  0  0  0  0  0  0
    2.9098   -4.6781    0.4498 H   0  0  0  0  0  0  0  0  0  0  0  0
    4.2770   -5.5231   -1.1952 H   0  0  0  0  0  0  0  0  0  0  0  0
    5.8611   -4.4859    2.0624 H   0  0  0  0  0  0  0  0  0  0  0  0
    3.4533   -2.6880    1.9124 H   0  0  0  0  0  0  0  0  0  0  0  0
    4.5978   -3.0826    0.6452 H   0  0  0  0  0  0  0  0  0  0  0  0
    5.1319   -2.2304    2.0411 H   0  0  0  0  0  0  0  0  0  0  0  0
    5.3626   -4.9556    4.4740 H   0  0  0  0  0  0  0  0  0  0  0  0
    4.8836   -2.2971    4.1267 H   0  0  0  0  0  0  0  0  0  0  0  0
    1.6494   -3.2909    5.2466 H   0  0  0  0  0  0  0  0  0  0  0  0
    2.6725   -2.4705    4.1040 H   0  0  0  0  0  0  0  0  0  0  0  0
    3.2035   -2.7891    5.7456 H   0  0  0  0  0  0  0  0  0  0  0  0
    3.9135   -5.2134    6.4176 H   0  0  0  0  0  0  0  0  0  0  0  0
    2.3253   -5.5853    6.1199 H   0  0  0  0  0  0  0  0  0  0  0  0
    3.1363   -7.6836    6.1924 H   0  0  0  0  0  0  0  0  0  0  0  0
    5.6967   -6.3792    5.9985 H   0  0  0  0  0  0  0  0  0  0  0  0
    5.3496   -8.0412    6.4576 H   0  0  0  0  0  0  0  0  0  0  0  0
    7.1853   -5.5679    4.2563 H   0  0  0  0  0  0  0  0  0  0  0  0
    4.8399   -9.6285    4.4625 H   0  0  0  0  0  0  0  0  0  0  0  0
    3.7012   -7.0088    3.8348 H   0  0  0  0  0  0  0  0  0  0  0  0
    3.0039   -7.7980    1.5935 H   0  0  0  0  0  0  0  0  0  0  0  0
    2.0191   -8.8156    2.1107 H   0  0  0  0  0  0  0  0  0  0  0  0
    1.1834   -6.5015    1.4205 H   0  0  0  0  0  0  0  0  0  0  0  0
    0.5380   -5.2470    2.9512 H   0  0  0  0  0  0  0  0  0  0  0  0
    0.6660   -4.3503    4.8279 H   0  0  0  0  0  0  0  0  0  0  0  0
    2.3237   -4.3199    2.6333 H   0  0  0  0  0  0  0  0  0  0  0  0
  1  2  2  0
  1 35  1  0
  1 36  1  0
  2 31  1  0
  2  3  1  0
  3  4  1  0
  3  5  1  0
  3 37  1  1
  4 38  1  0
  4 39  1  0
  4 40  1  0
  5  6  1  0
  5 41  1  0
  5 42  1  0
  6  7  1  0
  6 43  1  0
  6 44  1  0
  7 26  1  0
  7  8  1  1
  7  9  1  0
  8 45  1  0
  8 46  1  0
  8 47  1  0
  9 24  1  0
  9 10  1  0
  9 48  1  6
 10 34  1  0
 10 11  1  6
 10 13  1  0
 11 12  1  0
 11 49  1  0
 11 50  1  0
 12 51  1  0
 13 14  1  0
 13 15  1  0
 13 52  1  1
 14 53  1  0
 14 54  1  0
 14 55  1  0
 15 16  1  0
 15 17  1  0
 15 56  1  1
 16 57  1  0
 17 34  1  0
 17 18  1  1
 17 19  1  0
 18 58  1  0
 18 59  1  0
 18 60  1  0
 19 20  1  0
 19 61  1  0
 19 62  1  0
 20 27  1  0
 20 21  1  0
 20 63  1  1
 21 22  1  0
 21 64  1  0
 21 65  1  0
 22 24  1  0
 22 23  1  1
 22 26  1  0
 23 24  1  0
 24 25  1  1
 25 66  1  0
 26 27  1  0
 26 67  1  1
 27 28  1  0
 27 68  1  1
 28 29  1  0
 28 69  1  0
 28 70  1  0
 29 31  1  0
 29 30  1  0
 29 71  1  6
 31 30  1  6
 31 32  1  0
 32 33  1  0
 32 34  1  0
 32 72  1  6
 33 73  1  0
 34 74  1  6
M  END
>  <i_m_ct_stereo_status>  (235) 
1

>  <s_m_source_file>  (235) 
/var/tmp/pbs.5076255.sched01/tmpstc2q6q5/48db17pvb_.sdf

>  <i_m_source_file_index>  (235) 
46

>  <i_lp_mmshare_version>  (235) 
48012

>  <i_f3d_flags>  (235) 
0

>  <s_epik_input>  (235) 
W0NIMl0xW0NIMl1bQ0BIXShbQ0gzXSlDKD1bQ0gyXSlDMihbQ0BIXShPMilbQ0gyXTMpW0NAQEhdKFtPSF0pW0NASF0oW0NAQF00KFtDSDJdW09IXSlbQ0BASF0oW0NIM10pW0NASF01W09IXSlbQ0BAXTUoW0NIM10pW0NIMl1bQ0BIXShbQ0gyXTYpW0NASF0zW0NASF03W0NAXTEoW0NIM10pW0NAQEhdNFtDQEBdKFtDQEBdNjc4KShPOClbT0hd

>  <s_epik_cmdline>  (235) 
J2VwaWtfcHl0aG9uJywgJy1waHQnLCAnMi4wJywgJy1waCcsICc3LjAnLCAnLXRuJywgJzgnLCAnLW1hJywgJzIwMCcsICctaW1hZScsICc8aW5maWxlLm1hZT4nLCAnLW9tYWUnLCAnPG91dGZpbGUubWFlPic=

>  <r_lp_tautomer_probability>  (235) 
1

>  <r_epik_Ionization_Penalty>  (235) 
1.61888e-06

>  <r_epik_Ionization_Penalty_Charging>  (235) 
0

>  <r_epik_Ionization_Penalty_Neutral>  (235) 
1.61888e-06

>  <r_epik_State_Penalty>  (235) 
-0

>  <r_epik_Charging_Adjusted_Penalty>  (235) 
0

>  <i_epik_Tot_Q>  (235) 
0

>  <i_epik_Tot_abs_Q>  (235) 
0

>  <s_lp_Force_Field>  (235) 
OPLS3e

>  <r_lp_Energy>  (235) 
560.182

>  <b_lp_Chiralities_Consistent>  (235) 
1

>  <s_lp_Variant>  (235) 
54:0-1

>  <s_i_glide_gridfile>  (235) 
pfpi4k_grid

>  <i_i_glide_lignum>  (235) 
46

>  <i_i_glide_rotatable_bonds>  (235) 
5

>  <r_i_docking_score>  (235) 
-2.17594

>  <r_i_glide_ligand_efficiency>  (235) 
-0.0639982

>  <r_i_glide_ligand_efficiency_sa>  (235) 
-0.207329

>  <r_i_glide_ligand_efficiency_ln>  (235) 
-0.480726

>  <r_i_glide_gscore>  (235) 
-2.17594

>  <r_i_glide_lipo>  (235) 
-0.139431

>  <r_i_glide_hbond>  (235) 
-0.32

>  <r_i_glide_metal>  (235) 
-0

>  <r_i_glide_rewards>  (235) 
-0.190143

>  <r_i_glide_evdw>  (235) 
-20.0397

>  <r_i_glide_ecoul>  (235) 
-4.09941

>  <r_i_glide_erotb>  (235) 
0.0905312

>  <r_i_glide_esite>  (235) 
0

>  <r_i_glide_emodel>  (235) 
-26.393

>  <r_i_glide_energy>  (235) 
-24.1391

>  <r_i_glide_einternal>  (235) 
2.95413

>  <r_i_glide_intrahb_reward>  (235) 
-0

>  <i_i_glide_confnum>  (235) 
2

>  <i_i_glide_posenum>  (235) 
1

>  <r_i_glide_eff_state_penalty>  (235) 
0

>  <ligand_id>  (235) 
54

>  <original_smiles>  (235) 
C=C1C(C)CCC2(C)C3C4(CO)C(C)C(O)C5(C)CC6CC7(OC37O)C2C6CC2OC12C(O)C54

>  <smiles>  (235) 
[H]OC([H])([H])C12C([H])(C([H])([H])[H])C([H])(O[H])C3(C([H])([H])[H])C([H])([H])C4([H])C([H])([H])C56OC5(O[H])C1([H])C1(C([H])([H])[H])C([H])([H])C([H])([H])C([H])(C([H])([H])[H])C(=C([H])[H])C5(OC5([H])C([H])([H])C4([H])C61[H])C([H])(O[H])C32[H]

$$$$
54:1:0
     RDKit          3D

 74 81  0  0  1  0  0  0  0  0999 V2000
    0.2866   -3.6933    7.5955 C   0  0  0  0  0  0  0  0  0  0  0  0
    1.1554   -2.7120    7.2721 C   0  0  0  0  0  0  0  0  0  0  0  0
    2.6649   -3.0275    7.1248 C   0  0  1  0  0  0  0  0  0  0  0  0
    2.9249   -4.0814    6.0242 C   0  0  0  0  0  0  0  0  0  0  0  0
    3.6367   -1.8077    6.9799 C   0  0  0  0  0  0  0  0  0  0  0  0
    3.4307   -1.0460    5.6638 C   0  0  0  0  0  0  0  0  0  0  0  0
    3.7915    0.4566    5.5159 C   0  0  1  0  0  0  0  0  0  0  0  0
    5.3467    0.3651    5.3315 C   0  0  0  0  0  0  0  0  0  0  0  0
    3.1196    1.0954    4.2195 C   0  0  1  0  0  0  0  0  0  0  0  0
    1.5775    0.6441    3.7772 C   0  0  2  0  0  0  0  0  0  0  0  0
    1.7317   -0.6456    2.8888 C   0  0  0  0  0  0  0  0  0  0  0  0
    2.4596   -0.4373    1.6926 O   0  0  0  0  0  0  0  0  0  0  0  0
    0.8602    1.7495    2.9021 C   0  0  1  0  0  0  0  0  0  0  0  0
   -0.1321    1.2740    1.8035 C   0  0  0  0  0  0  0  0  0  0  0  0
    0.1413    2.6817    3.9162 C   0  0  1  0  0  0  0  0  0  0  0  0
   -0.8437    3.5043    3.3044 O   0  0  0  0  0  0  0  0  0  0  0  0
   -0.3346    1.8337    5.1274 C   0  0  2  0  0  0  0  0  0  0  0  0
   -1.8841    1.6832    5.0778 C   0  0  0  0  0  0  0  0  0  0  0  0
   -0.0676    2.5885    6.4893 C   0  0  0  0  0  0  0  0  0  0  0  0
    1.3357    2.7865    7.1421 C   0  0  2  0  0  0  0  0  0  0  0  0
    2.3636    3.7314    6.5159 C   0  0  0  0  0  0  0  0  0  0  0  0
    3.3759    2.8017    5.9342 C   0  0  2  0  0  0  0  0  0  0  0  0
    4.5189    3.1736    5.1998 O   0  0  0  0  0  0  0  0  0  0  0  0
    3.4018    2.6095    4.4651 C   0  0  1  0  0  0  0  0  0  0  0  0
    3.0207    3.5958    3.5418 O   0  0  0  0  0  0  0  0  0  0  0  0
    3.4517    1.4959    6.6762 C   0  0  1  0  0  0  0  0  0  0  0  0
    2.0588    1.4555    7.3026 C   0  0  1  0  0  0  0  0  0  0  0  0
    1.8390    0.7707    8.6253 C   0  0  0  0  0  0  0  0  0  0  0  0
    1.2051   -0.5870    8.4701 C   0  0  1  0  0  0  0  0  0  0  0  0
   -0.1673   -0.7062    8.1650 O   0  0  0  0  0  0  0  0  0  0  0  0
    0.7124   -1.2851    7.1485 C   0  0  2  0  0  0  0  0  0  0  0  0
    0.0935   -0.8907    5.7399 C   0  0  1  0  0  0  0  0  0  0  0  0
   -1.2866   -1.2409    5.7785 O   0  0  0  0  0  0  0  0  0  0  0  0
    0.3551    0.4354    4.8355 C   0  0  2  0  0  0  0  0  0  0  0  0
   -0.7595   -3.4886    7.7492 H   0  0  0  0  0  0  0  0  0  0  0  0
    0.6227   -4.7135    7.7232 H   0  0  0  0  0  0  0  0  0  0  0  0
    2.9480   -3.5101    8.0643 H   0  0  0  0  0  0  0  0  0  0  0  0
    2.4576   -5.0387    6.2590 H   0  0  0  0  0  0  0  0  0  0  0  0
    3.9928   -4.2747    5.9110 H   0  0  0  0  0  0  0  0  0  0  0  0
    2.5451   -3.7577    5.0537 H   0  0  0  0  0  0  0  0  0  0  0  0
    3.5665   -1.1511    7.8392 H   0  0  0  0  0  0  0  0  0  0  0  0
    4.6649   -2.1692    7.0130 H   0  0  0  0  0  0  0  0  0  0  0  0
    3.9130   -1.6265    4.8797 H   0  0  0  0  0  0  0  0  0  0  0  0
    2.4155   -1.1414    5.4180 H   0  0  0  0  0  0  0  0  0  0  0  0
    5.8428    1.3040    5.0923 H   0  0  0  0  0  0  0  0  0  0  0  0
    5.6252   -0.3184    4.5242 H   0  0  0  0  0  0  0  0  0  0  0  0
    5.8275   -0.0140    6.2369 H   0  0  0  0  0  0  0  0  0  0  0  0
    3.7625    0.8529    3.3727 H   0  0  0  0  0  0  0  0  0  0  0  0
    2.2537   -1.4484    3.3905 H   0  0  0  0  0  0  0  0  0  0  0  0
    0.7685   -1.0769    2.6240 H   0  0  0  0  0  0  0  0  0  0  0  0
    1.8460   -0.3429    0.9730 H   0  0  0  0  0  0  0  0  0  0  0  0
    1.5771    2.2926    2.2951 H   0  0  0  0  0  0  0  0  0  0  0  0
   -0.9834    0.7000    2.1610 H   0  0  0  0  0  0  0  0  0  0  0  0
    0.3494    0.7152    1.0085 H   0  0  0  0  0  0  0  0  0  0  0  0
   -0.5396    2.1398    1.2875 H   0  0  0  0  0  0  0  0  0  0  0  0
    0.8301    3.4070    4.3051 H   0  0  0  0  0  0  0  0  0  0  0  0
   -0.4550    3.9047    2.5302 H   0  0  0  0  0  0  0  0  0  0  0  0
   -2.2549    1.0927    5.9133 H   0  0  0  0  0  0  0  0  0  0  0  0
   -2.2347    1.2195    4.1562 H   0  0  0  0  0  0  0  0  0  0  0  0
   -2.3930    2.6457    5.1512 H   0  0  0  0  0  0  0  0  0  0  0  0
   -0.5309    3.5736    6.4169 H   0  0  0  0  0  0  0  0  0  0  0  0
   -0.6536    2.0716    7.2497 H   0  0  0  0  0  0  0  0  0  0  0  0
    1.1393    3.2165    8.1252 H   0  0  0  0  0  0  0  0  0  0  0  0
    1.9542    4.4123    5.7720 H   0  0  0  0  0  0  0  0  0  0  0  0
    2.8493    4.3405    7.2804 H   0  0  0  0  0  0  0  0  0  0  0  0
    3.5773    3.4993    2.7840 H   0  0  0  0  0  0  0  0  0  0  0  0
    4.2279    1.5598    7.4399 H   0  0  0  0  0  0  0  0  0  0  0  0
    1.6385    0.8135    6.6073 H   0  0  0  0  0  0  0  0  0  0  0  0
    2.7948    0.6495    9.1370 H   0  0  0  0  0  0  0  0  0  0  0  0
    1.2134    1.3578    9.2962 H   0  0  0  0  0  0  0  0  0  0  0  0
    1.4638   -1.2404    9.2977 H   0  0  0  0  0  0  0  0  0  0  0  0
    0.4348   -1.6976    5.0872 H   0  0  0  0  0  0  0  0  0  0  0  0
   -1.6508   -1.0619    4.9250 H   0  0  0  0  0  0  0  0  0  0  0  0
   -0.3576    0.0854    4.0991 H   0  0  0  0  0  0  0  0  0  0  0  0
  1  2  2  0
  1 35  1  0
  1 36  1  0
  2 31  1  0
  2  3  1  0
  3  4  1  0
  3  5  1  0
  3 37  1  1
  4 38  1  0
  4 39  1  0
  4 40  1  0
  5  6  1  0
  5 41  1  0
  5 42  1  0
  6  7  1  0
  6 43  1  0
  6 44  1  0
  7 26  1  0
  7  8  1  6
  7  9  1  0
  8 45  1  0
  8 46  1  0
  8 47  1  0
  9 24  1  0
  9 10  1  0
  9 48  1  6
 10 34  1  0
 10 11  1  6
 10 13  1  0
 11 12  1  0
 11 49  1  0
 11 50  1  0
 12 51  1  0
 13 14  1  0
 13 15  1  0
 13 52  1  6
 14 53  1  0
 14 54  1  0
 14 55  1  0
 15 16  1  0
 15 17  1  0
 15 56  1  1
 16 57  1  0
 17 34  1  0
 17 18  1  6
 17 19  1  0
 18 58  1  0
 18 59  1  0
 18 60  1  0
 19 20  1  0
 19 61  1  0
 19 62  1  0
 20 27  1  0
 20 21  1  0
 20 63  1  1
 21 22  1  0
 21 64  1  0
 21 65  1  0
 22 24  1  0
 22 23  1  1
 22 26  1  0
 23 24  1  0
 24 25  1  6
 25 66  1  0
 26 27  1  0
 26 67  1  1
 27 28  1  0
 27 68  1  6
 28 29  1  0
 28 69  1  0
 28 70  1  0
 29 31  1  0
 29 30  1  0
 29 71  1  1
 31 30  1  1
 31 32  1  0
 32 33  1  0
 32 34  1  0
 32 72  1  6
 33 73  1  0
 34 74  1  6
M  END
>  <i_m_ct_stereo_status>  (236) 
1

>  <s_m_source_file>  (236) 
/var/tmp/pbs.5076255.sched01/tmpstc2q6q5/48db17pvb_.sdf

>  <i_m_source_file_index>  (236) 
47

>  <i_lp_mmshare_version>  (236) 
48012

>  <i_f3d_flags>  (236) 
0

>  <s_epik_input>  (236) 
W0NIMl0xW0NIMl1bQ0BIXShbQ0gzXSlDKD1bQ0gyXSlDMihbQ0BIXShPMilbQ0gyXTMpW0NAQEhdKFtPSF0pW0NASF0oW0NAQF00KFtDSDJdW09IXSlbQ0BASF0oW0NIM10pW0NASF01W09IXSlbQ0BAXTUoW0NIM10pW0NIMl1bQ0BIXShbQ0gyXTYpW0NASF0zW0NASF03W0NAXTEoW0NIM10pW0NAQEhdNFtDQEBdKFtDQEBdNjc4KShPOClbT0hd

>  <s_epik_cmdline>  (236) 
J2VwaWtfcHl0aG9uJywgJy1waHQnLCAnMi4wJywgJy1waCcsICc3LjAnLCAnLXRuJywgJzgnLCAnLW1hJywgJzIwMCcsICctaW1hZScsICc8aW5maWxlLm1hZT4nLCAnLW9tYWUnLCAnPG91dGZpbGUubWFlPic=

>  <r_lp_tautomer_probability>  (236) 
1

>  <r_epik_Ionization_Penalty>  (236) 
1.61888e-06

>  <r_epik_Ionization_Penalty_Charging>  (236) 
0

>  <r_epik_Ionization_Penalty_Neutral>  (236) 
1.61888e-06

>  <r_epik_State_Penalty>  (236) 
-0

>  <r_epik_Charging_Adjusted_Penalty>  (236) 
0

>  <i_epik_Tot_Q>  (236) 
0

>  <i_epik_Tot_abs_Q>  (236) 
0

>  <s_lp_Force_Field>  (236) 
OPLS3e

>  <r_lp_Energy>  (236) 
204.353

>  <b_lp_Chiralities_Consistent>  (236) 
1

>  <s_lp_Variant>  (236) 
54:0-2

>  <s_i_glide_gridfile>  (236) 
pfpi4k_grid

>  <i_i_glide_lignum>  (236) 
47

>  <i_i_glide_rotatable_bonds>  (236) 
5

>  <r_i_docking_score>  (236) 
-3.0264

>  <r_i_glide_ligand_efficiency>  (236) 
-0.0890118

>  <r_i_glide_ligand_efficiency_sa>  (236) 
-0.288364

>  <r_i_glide_ligand_efficiency_ln>  (236) 
-0.668617

>  <r_i_glide_gscore>  (236) 
-3.0264

>  <r_i_glide_lipo>  (236) 
-0.066469

>  <r_i_glide_hbond>  (236) 
-0.274644

>  <r_i_glide_metal>  (236) 
-0

>  <r_i_glide_rewards>  (236) 
-0.186725

>  <r_i_glide_evdw>  (236) 
-15.7807

>  <r_i_glide_ecoul>  (236) 
-11.9099

>  <r_i_glide_erotb>  (236) 
0.0905312

>  <r_i_glide_esite>  (236) 
-0.0135778

>  <r_i_glide_emodel>  (236) 
-32.806

>  <r_i_glide_energy>  (236) 
-27.6906

>  <r_i_glide_einternal>  (236) 
1.99351

>  <r_i_glide_intrahb_reward>  (236) 
-0

>  <i_i_glide_confnum>  (236) 
3

>  <i_i_glide_posenum>  (236) 
27

>  <r_i_glide_eff_state_penalty>  (236) 
0

>  <ligand_id>  (236) 
54

>  <original_smiles>  (236) 
C=C1C(C)CCC2(C)C3C4(CO)C(C)C(O)C5(C)CC6CC7(OC37O)C2C6CC2OC12C(O)C54

>  <smiles>  (236) 
[H]OC([H])([H])C12C([H])(C([H])([H])[H])C([H])(O[H])C3(C([H])([H])[H])C([H])([H])C4([H])C([H])([H])C56OC5(O[H])C1([H])C1(C([H])([H])[H])C([H])([H])C([H])([H])C([H])(C([H])([H])[H])C(=C([H])[H])C5(OC5([H])C([H])([H])C4([H])C61[H])C([H])(O[H])C32[H]

$$$$
54:1:1
     RDKit          3D

 74 81  0  0  1  0  0  0  0  0999 V2000
    0.6724   -4.1005    7.0225 C   0  0  0  0  0  0  0  0  0  0  0  0
    1.4672   -3.0327    6.8484 C   0  0  0  0  0  0  0  0  0  0  0  0
    3.0117   -3.2022    6.7970 C   0  0  1  0  0  0  0  0  0  0  0  0
    3.4468   -4.1366    5.6477 C   0  0  0  0  0  0  0  0  0  0  0  0
    3.8771   -1.8957    6.8299 C   0  0  0  0  0  0  0  0  0  0  0  0
    3.7041   -1.0436    5.5633 C   0  0  0  0  0  0  0  0  0  0  0  0
    3.9430    0.4832    5.5376 C   0  0  1  0  0  0  0  0  0  0  0  0
    5.5062    0.5353    5.4852 C   0  0  0  0  0  0  0  0  0  0  0  0
    3.2890    1.1715    4.2506 C   0  0  1  0  0  0  0  0  0  0  0  0
    1.8348    0.6125    3.6559 C   0  0  2  0  0  0  0  0  0  0  0  0
    2.2473   -0.5845    2.7045 C   0  0  0  0  0  0  0  0  0  0  0  0
    1.2165   -1.3256    2.0806 O   0  0  0  0  0  0  0  0  0  0  0  0
    1.1032    1.7397    2.8086 C   0  0  1  0  0  0  0  0  0  0  0  0
    0.2599    1.3075    1.5811 C   0  0  0  0  0  0  0  0  0  0  0  0
    0.2341    2.5232    3.8360 C   0  0  1  0  0  0  0  0  0  0  0  0
   -0.7678    3.3385    3.2508 O   0  0  0  0  0  0  0  0  0  0  0  0
   -0.2571    1.5399    4.9362 C   0  0  2  0  0  0  0  0  0  0  0  0
   -1.7826    1.2669    4.7446 C   0  0  0  0  0  0  0  0  0  0  0  0
   -0.1568    2.2038    6.3657 C   0  0  0  0  0  0  0  0  0  0  0  0
    1.1786    2.4675    7.1310 C   0  0  2  0  0  0  0  0  0  0  0  0
    2.1658    3.5498    6.6550 C   0  0  0  0  0  0  0  0  0  0  0  0
    3.3060    2.7523    6.0852 C   0  0  2  0  0  0  0  0  0  0  0  0
    4.4670    3.2378    5.4428 O   0  0  0  0  0  0  0  0  0  0  0  0
    3.4258    2.6743    4.6073 C   0  0  1  0  0  0  0  0  0  0  0  0
    3.0281    3.6963    3.7248 O   0  0  0  0  0  0  0  0  0  0  0  0
    3.4345    1.3971    6.7340 C   0  0  1  0  0  0  0  0  0  0  0  0
    2.0085    1.1937    7.2490 C   0  0  1  0  0  0  0  0  0  0  0  0
    1.7329    0.3844    8.4976 C   0  0  0  0  0  0  0  0  0  0  0  0
    1.2202   -1.0095    8.2018 C   0  0  1  0  0  0  0  0  0  0  0  0
   -0.1008   -1.2259    7.7763 O   0  0  0  0  0  0  0  0  0  0  0  0
    0.9002   -1.6379    6.8017 C   0  0  2  0  0  0  0  0  0  0  0  0
    0.3660   -1.1772    5.3779 C   0  0  1  0  0  0  0  0  0  0  0  0
   -0.9690   -1.6534    5.2727 O   0  0  0  0  0  0  0  0  0  0  0  0
    0.5654    0.2294    4.5907 C   0  0  2  0  0  0  0  0  0  0  0  0
   -0.4028   -3.9939    7.1052 H   0  0  0  0  0  0  0  0  0  0  0  0
    1.0858   -5.0996    7.0971 H   0  0  0  0  0  0  0  0  0  0  0  0
    3.2622   -3.7324    7.7165 H   0  0  0  0  0  0  0  0  0  0  0  0
    3.0512   -5.1460    5.7713 H   0  0  0  0  0  0  0  0  0  0  0  0
    4.5330   -4.2301    5.6102 H   0  0  0  0  0  0  0  0  0  0  0  0
    3.1119   -3.7681    4.6763 H   0  0  0  0  0  0  0  0  0  0  0  0
    3.6788   -1.3200    7.7268 H   0  0  0  0  0  0  0  0  0  0  0  0
    4.9297   -2.1730    6.9212 H   0  0  0  0  0  0  0  0  0  0  0  0
    4.2890   -1.5271    4.7777 H   0  0  0  0  0  0  0  0  0  0  0  0
    2.7158   -1.2051    5.2428 H   0  0  0  0  0  0  0  0  0  0  0  0
    5.9394    1.5260    5.3633 H   0  0  0  0  0  0  0  0  0  0  0  0
    5.9072   -0.0557    4.6546 H   0  0  0  0  0  0  0  0  0  0  0  0
    5.9455    0.1236    6.3990 H   0  0  0  0  0  0  0  0  0  0  0  0
    4.0007    1.0307    3.4332 H   0  0  0  0  0  0  0  0  0  0  0  0
    2.9123   -0.2156    1.9218 H   0  0  0  0  0  0  0  0  0  0  0  0
    2.7951   -1.3755    3.2076 H   0  0  0  0  0  0  0  0  0  0  0  0
    1.0137   -0.9395    1.2344 H   0  0  0  0  0  0  0  0  0  0  0  0
    1.8207    2.3778    2.3089 H   0  0  0  0  0  0  0  0  0  0  0  0
   -0.5699    0.6437    1.8176 H   0  0  0  0  0  0  0  0  0  0  0  0
    0.8946    0.8538    0.8237 H   0  0  0  0  0  0  0  0  0  0  0  0
   -0.1877    2.1396    1.0578 H   0  0  0  0  0  0  0  0  0  0  0  0
    0.8361    3.2629    4.3308 H   0  0  0  0  0  0  0  0  0  0  0  0
   -0.4253    3.7163    2.4382 H   0  0  0  0  0  0  0  0  0  0  0  0
   -2.1667    0.5763    5.4907 H   0  0  0  0  0  0  0  0  0  0  0  0
   -2.0145    0.8552    3.7635 H   0  0  0  0  0  0  0  0  0  0  0  0
   -2.3780    2.1754    4.8415 H   0  0  0  0  0  0  0  0  0  0  0  0
   -0.7029    3.1495    6.3244 H   0  0  0  0  0  0  0  0  0  0  0  0
   -0.7503    1.5776    7.0325 H   0  0  0  0  0  0  0  0  0  0  0  0
    0.8688    2.7960    8.1225 H   0  0  0  0  0  0  0  0  0  0  0  0
    1.7401    4.2515    5.9370 H   0  0  0  0  0  0  0  0  0  0  0  0
    2.5231    4.1290    7.5093 H   0  0  0  0  0  0  0  0  0  0  0  0
    3.5949    3.6447    2.9676 H   0  0  0  0  0  0  0  0  0  0  0  0
    4.1333    1.4549    7.5713 H   0  0  0  0  0  0  0  0  0  0  0  0
    1.6927    0.5710    6.4870 H   0  0  0  0  0  0  0  0  0  0  0  0
    2.6520    0.2953    9.0771 H   0  0  0  0  0  0  0  0  0  0  0  0
    1.0116    0.8629    9.1602 H   0  0  0  0  0  0  0  0  0  0  0  0
    1.4857   -1.7049    8.9989 H   0  0  0  0  0  0  0  0  0  0  0  0
    0.8280   -1.8980    4.6992 H   0  0  0  0  0  0  0  0  0  0  0  0
   -1.2130   -1.5963    4.3633 H   0  0  0  0  0  0  0  0  0  0  0  0
   -0.0721   -0.1065    3.7787 H   0  0  0  0  0  0  0  0  0  0  0  0
  1  2  2  0
  1 35  1  0
  1 36  1  0
  2 31  1  0
  2  3  1  0
  3  4  1  0
  3  5  1  0
  3 37  1  1
  4 38  1  0
  4 39  1  0
  4 40  1  0
  5  6  1  0
  5 41  1  0
  5 42  1  0
  6  7  1  0
  6 43  1  0
  6 44  1  0
  7 26  1  0
  7  8  1  6
  7  9  1  0
  8 45  1  0
  8 46  1  0
  8 47  1  0
  9 24  1  0
  9 10  1  0
  9 48  1  6
 10 34  1  0
 10 11  1  6
 10 13  1  0
 11 12  1  0
 11 49  1  0
 11 50  1  0
 12 51  1  0
 13 14  1  0
 13 15  1  0
 13 52  1  6
 14 53  1  0
 14 54  1  0
 14 55  1  0
 15 16  1  0
 15 17  1  0
 15 56  1  1
 16 57  1  0
 17 34  1  0
 17 18  1  6
 17 19  1  0
 18 58  1  0
 18 59  1  0
 18 60  1  0
 19 20  1  0
 19 61  1  0
 19 62  1  0
 20 27  1  0
 20 21  1  0
 20 63  1  1
 21 22  1  0
 21 64  1  0
 21 65  1  0
 22 24  1  0
 22 23  1  1
 22 26  1  0
 23 24  1  0
 24 25  1  6
 25 66  1  0
 26 27  1  0
 26 67  1  1
 27 28  1  0
 27 68  1  6
 28 29  1  0
 28 69  1  0
 28 70  1  0
 29 31  1  0
 29 30  1  0
 29 71  1  1
 31 30  1  1
 31 32  1  0
 32 33  1  0
 32 34  1  0
 32 72  1  6
 33 73  1  0
 34 74  1  6
M  END
>  <i_m_ct_stereo_status>  (237) 
1

>  <s_m_source_file>  (237) 
/var/tmp/pbs.5076255.sched01/tmpstc2q6q5/48db17pvb_.sdf

>  <i_m_source_file_index>  (237) 
47

>  <i_lp_mmshare_version>  (237) 
48012

>  <i_f3d_flags>  (237) 
0

>  <s_epik_input>  (237) 
W0NIMl0xW0NIMl1bQ0BIXShbQ0gzXSlDKD1bQ0gyXSlDMihbQ0BIXShPMilbQ0gyXTMpW0NAQEhdKFtPSF0pW0NASF0oW0NAQF00KFtDSDJdW09IXSlbQ0BASF0oW0NIM10pW0NASF01W09IXSlbQ0BAXTUoW0NIM10pW0NIMl1bQ0BIXShbQ0gyXTYpW0NASF0zW0NASF03W0NAXTEoW0NIM10pW0NAQEhdNFtDQEBdKFtDQEBdNjc4KShPOClbT0hd

>  <s_epik_cmdline>  (237) 
J2VwaWtfcHl0aG9uJywgJy1waHQnLCAnMi4wJywgJy1waCcsICc3LjAnLCAnLXRuJywgJzgnLCAnLW1hJywgJzIwMCcsICctaW1hZScsICc8aW5maWxlLm1hZT4nLCAnLW9tYWUnLCAnPG91dGZpbGUubWFlPic=

>  <r_lp_tautomer_probability>  (237) 
1

>  <r_epik_Ionization_Penalty>  (237) 
1.61888e-06

>  <r_epik_Ionization_Penalty_Charging>  (237) 
0

>  <r_epik_Ionization_Penalty_Neutral>  (237) 
1.61888e-06

>  <r_epik_State_Penalty>  (237) 
-0

>  <r_epik_Charging_Adjusted_Penalty>  (237) 
0

>  <i_epik_Tot_Q>  (237) 
0

>  <i_epik_Tot_abs_Q>  (237) 
0

>  <s_lp_Force_Field>  (237) 
OPLS3e

>  <r_lp_Energy>  (237) 
204.353

>  <b_lp_Chiralities_Consistent>  (237) 
1

>  <s_lp_Variant>  (237) 
54:0-2

>  <s_i_glide_gridfile>  (237) 
pfpi4k_grid

>  <i_i_glide_lignum>  (237) 
47

>  <i_i_glide_rotatable_bonds>  (237) 
5

>  <r_i_docking_score>  (237) 
-2.81763

>  <r_i_glide_ligand_efficiency>  (237) 
-0.0828714

>  <r_i_glide_ligand_efficiency_sa>  (237) 
-0.268471

>  <r_i_glide_ligand_efficiency_ln>  (237) 
-0.622493

>  <r_i_glide_gscore>  (237) 
-2.81763

>  <r_i_glide_lipo>  (237) 
-0.0798774

>  <r_i_glide_hbond>  (237) 
-0.3338

>  <r_i_glide_metal>  (237) 
-0

>  <r_i_glide_rewards>  (237) 
-0.186725

>  <r_i_glide_evdw>  (237) 
-16.3591

>  <r_i_glide_ecoul>  (237) 
-9.85238

>  <r_i_glide_erotb>  (237) 
0.0905312

>  <r_i_glide_esite>  (237) 
-0.0119468

>  <r_i_glide_emodel>  (237) 
-28.9874

>  <r_i_glide_energy>  (237) 
-26.2115

>  <r_i_glide_einternal>  (237) 
5.37884

>  <r_i_glide_intrahb_reward>  (237) 
-0

>  <i_i_glide_confnum>  (237) 
4

>  <i_i_glide_posenum>  (237) 
10

>  <r_i_glide_eff_state_penalty>  (237) 
0

>  <ligand_id>  (237) 
54

>  <original_smiles>  (237) 
C=C1C(C)CCC2(C)C3C4(CO)C(C)C(O)C5(C)CC6CC7(OC37O)C2C6CC2OC12C(O)C54

>  <smiles>  (237) 
[H]OC([H])([H])C12C([H])(C([H])([H])[H])C([H])(O[H])C3(C([H])([H])[H])C([H])([H])C4([H])C([H])([H])C56OC5(O[H])C1([H])C1(C([H])([H])[H])C([H])([H])C([H])([H])C([H])(C([H])([H])[H])C(=C([H])[H])C5(OC5([H])C([H])([H])C4([H])C61[H])C([H])(O[H])C32[H]

$$$$
54:1:2
     RDKit          3D

 74 81  0  0  1  0  0  0  0  0999 V2000
   -0.4569   -4.0288    6.0957 C   0  0  0  0  0  0  0  0  0  0  0  0
    0.4901   -3.1022    5.9113 C   0  0  0  0  0  0  0  0  0  0  0  0
    1.8325   -3.4731    5.2350 C   0  0  1  0  0  0  0  0  0  0  0  0
    1.6143   -3.9921    3.7917 C   0  0  0  0  0  0  0  0  0  0  0  0
    2.9793   -2.4073    5.3178 C   0  0  0  0  0  0  0  0  0  0  0  0
    2.6552   -1.1651    4.4775 C   0  0  0  0  0  0  0  0  0  0  0  0
    3.2713    0.2439    4.7542 C   0  0  1  0  0  0  0  0  0  0  0  0
    4.6887    0.0778    4.1175 C   0  0  0  0  0  0  0  0  0  0  0  0
    2.4660    1.4331    4.0485 C   0  0  1  0  0  0  0  0  0  0  0  0
    0.8147    1.3256    3.8992 C   0  0  2  0  0  0  0  0  0  0  0  0
    0.5036    0.5134    2.5592 C   0  0  0  0  0  0  0  0  0  0  0  0
    1.5155   -0.2630    1.9694 O   0  0  0  0  0  0  0  0  0  0  0  0
    0.1354    2.7618    3.7551 C   0  0  1  0  0  0  0  0  0  0  0  0
   -1.1688    2.9048    2.9099 C   0  0  0  0  0  0  0  0  0  0  0  0
   -0.1123    3.2673    5.2058 C   0  0  1  0  0  0  0  0  0  0  0  0
   -0.9905    4.3768    5.2883 O   0  0  0  0  0  0  0  0  0  0  0  0
   -0.4731    2.0489    6.0982 C   0  0  2  0  0  0  0  0  0  0  0  0
   -1.9945    2.1011    6.4474 C   0  0  0  0  0  0  0  0  0  0  0  0
    0.2363    2.1561    7.5077 C   0  0  0  0  0  0  0  0  0  0  0  0
    1.7653    1.9417    7.7487 C   0  0  2  0  0  0  0  0  0  0  0  0
    2.7936    2.9675    7.2537 C   0  0  0  0  0  0  0  0  0  0  0  0
    3.4448    2.2567    6.1031 C   0  0  2  0  0  0  0  0  0  0  0  0
    4.4446    2.7508    5.2515 O   0  0  0  0  0  0  0  0  0  0  0  0
    3.0914    2.6924    4.7368 C   0  0  1  0  0  0  0  0  0  0  0  0
    2.7095    3.9863    4.3651 O   0  0  0  0  0  0  0  0  0  0  0  0
    3.4252    0.7592    6.2532 C   0  0  1  0  0  0  0  0  0  0  0  0
    2.2295    0.5936    7.1932 C   0  0  1  0  0  0  0  0  0  0  0  0
    2.1684   -0.5461    8.1814 C   0  0  0  0  0  0  0  0  0  0  0  0
    1.2307   -1.6571    7.7332 C   0  0  1  0  0  0  0  0  0  0  0  0
   -0.1528   -1.5061    7.8057 O   0  0  0  0  0  0  0  0  0  0  0  0
    0.3374   -1.7015    6.4631 C   0  0  2  0  0  0  0  0  0  0  0  0
   -0.4781   -0.7112    5.5172 C   0  0  1  0  0  0  0  0  0  0  0  0
   -1.8635   -0.9087    5.7830 O   0  0  0  0  0  0  0  0  0  0  0  0
   -0.1690    0.8331    5.1149 C   0  0  2  0  0  0  0  0  0  0  0  0
   -1.3809   -3.7969    6.6085 H   0  0  0  0  0  0  0  0  0  0  0  0
   -0.3195   -5.0383    5.7330 H   0  0  0  0  0  0  0  0  0  0  0  0
    2.2030   -4.3333    5.7969 H   0  0  0  0  0  0  0  0  0  0  0  0
    1.0246   -4.9086    3.7746 H   0  0  0  0  0  0  0  0  0  0  0  0
    2.5637   -4.2286    3.3103 H   0  0  0  0  0  0  0  0  0  0  0  0
    1.1001   -3.2628    3.1625 H   0  0  0  0  0  0  0  0  0  0  0  0
    3.2532   -2.1764    6.3479 H   0  0  0  0  0  0  0  0  0  0  0  0
    3.8867   -2.8534    4.9081 H   0  0  0  0  0  0  0  0  0  0  0  0
    2.9242   -1.4819    3.4779 H   0  0  0  0  0  0  0  0  0  0  0  0
    1.6051   -1.0673    4.3892 H   0  0  0  0  0  0  0  0  0  0  0  0
    5.2952    0.9775    4.1064 H   0  0  0  0  0  0  0  0  0  0  0  0
    4.6132   -0.2287    3.0748 H   0  0  0  0  0  0  0  0  0  0  0  0
    5.2687   -0.6891    4.6315 H   0  0  0  0  0  0  0  0  0  0  0  0
    2.8473    1.5318    3.0297 H   0  0  0  0  0  0  0  0  0  0  0  0
   -0.3658   -0.1167    2.6801 H   0  0  0  0  0  0  0  0  0  0  0  0
    0.2791    1.1652    1.7295 H   0  0  0  0  0  0  0  0  0  0  0  0
    1.2589   -0.4331    1.0502 H   0  0  0  0  0  0  0  0  0  0  0  0
    0.7940    3.4281    3.2103 H   0  0  0  0  0  0  0  0  0  0  0  0
   -2.0170    2.3144    3.2586 H   0  0  0  0  0  0  0  0  0  0  0  0
   -0.9983    2.6676    1.8696 H   0  0  0  0  0  0  0  0  0  0  0  0
   -1.4961    3.9464    2.8798 H   0  0  0  0  0  0  0  0  0  0  0  0
    0.7855    3.6881    5.6152 H   0  0  0  0  0  0  0  0  0  0  0  0
   -1.8497    4.0837    5.0053 H   0  0  0  0  0  0  0  0  0  0  0  0
   -2.3039    1.2589    7.0665 H   0  0  0  0  0  0  0  0  0  0  0  0
   -2.6132    2.1095    5.5536 H   0  0  0  0  0  0  0  0  0  0  0  0
   -2.2671    2.9917    7.0224 H   0  0  0  0  0  0  0  0  0  0  0  0
   -0.0214    3.1287    7.9357 H   0  0  0  0  0  0  0  0  0  0  0  0
   -0.2599    1.4353    8.1605 H   0  0  0  0  0  0  0  0  0  0  0  0
    1.8808    1.9440    8.8348 H   0  0  0  0  0  0  0  0  0  0  0  0
    2.3715    3.9198    6.9595 H   0  0  0  0  0  0  0  0  0  0  0  0
    3.5482    3.1454    8.0149 H   0  0  0  0  0  0  0  0  0  0  0  0
    2.9158    4.1014    3.4452 H   0  0  0  0  0  0  0  0  0  0  0  0
    4.3385    0.4198    6.7459 H   0  0  0  0  0  0  0  0  0  0  0  0
    1.5315    0.3386    6.4689 H   0  0  0  0  0  0  0  0  0  0  0  0
    3.1667   -0.9540    8.3172 H   0  0  0  0  0  0  0  0  0  0  0  0
    1.8344   -0.2288    9.1674 H   0  0  0  0  0  0  0  0  0  0  0  0
    1.5589   -2.6125    8.1474 H   0  0  0  0  0  0  0  0  0  0  0  0
   -0.4627   -1.2296    4.5626 H   0  0  0  0  0  0  0  0  0  0  0  0
   -2.3682   -0.4589    5.1105 H   0  0  0  0  0  0  0  0  0  0  0  0
   -1.0893    0.8883    4.5408 H   0  0  0  0  0  0  0  0  0  0  0  0
  1  2  2  0
  1 35  1  0
  1 36  1  0
  2 31  1  0
  2  3  1  0
  3  4  1  0
  3  5  1  0
  3 37  1  1
  4 38  1  0
  4 39  1  0
  4 40  1  0
  5  6  1  0
  5 41  1  0
  5 42  1  0
  6  7  1  0
  6 43  1  0
  6 44  1  0
  7 26  1  0
  7  8  1  6
  7  9  1  0
  8 45  1  0
  8 46  1  0
  8 47  1  0
  9 24  1  0
  9 10  1  0
  9 48  1  6
 10 34  1  0
 10 11  1  6
 10 13  1  0
 11 12  1  0
 11 49  1  0
 11 50  1  0
 12 51  1  0
 13 14  1  0
 13 15  1  0
 13 52  1  6
 14 53  1  0
 14 54  1  0
 14 55  1  0
 15 16  1  0
 15 17  1  0
 15 56  1  1
 16 57  1  0
 17 34  1  0
 17 18  1  1
 17 19  1  0
 18 58  1  0
 18 59  1  0
 18 60  1  0
 19 20  1  0
 19 61  1  0
 19 62  1  0
 20 27  1  0
 20 21  1  0
 20 63  1  1
 21 22  1  0
 21 64  1  0
 21 65  1  0
 22 24  1  0
 22 23  1  1
 22 26  1  0
 23 24  1  0
 24 25  1  1
 25 66  1  0
 26 27  1  0
 26 67  1  1
 27 28  1  0
 27 68  1  6
 28 29  1  0
 28 69  1  0
 28 70  1  0
 29 31  1  0
 29 30  1  0
 29 71  1  1
 31 30  1  1
 31 32  1  0
 32 33  1  0
 32 34  1  0
 32 72  1  6
 33 73  1  0
 34 74  1  6
M  END
>  <i_m_ct_stereo_status>  (238) 
1

>  <s_m_source_file>  (238) 
/var/tmp/pbs.5076255.sched01/tmpstc2q6q5/48db17pvb_.sdf

>  <i_m_source_file_index>  (238) 
47

>  <i_lp_mmshare_version>  (238) 
48012

>  <i_f3d_flags>  (238) 
0

>  <s_epik_input>  (238) 
W0NIMl0xW0NIMl1bQ0BIXShbQ0gzXSlDKD1bQ0gyXSlDMihbQ0BIXShPMilbQ0gyXTMpW0NAQEhdKFtPSF0pW0NASF0oW0NAQF00KFtDSDJdW09IXSlbQ0BASF0oW0NIM10pW0NASF01W09IXSlbQ0BAXTUoW0NIM10pW0NIMl1bQ0BIXShbQ0gyXTYpW0NASF0zW0NASF03W0NAXTEoW0NIM10pW0NAQEhdNFtDQEBdKFtDQEBdNjc4KShPOClbT0hd

>  <s_epik_cmdline>  (238) 
J2VwaWtfcHl0aG9uJywgJy1waHQnLCAnMi4wJywgJy1waCcsICc3LjAnLCAnLXRuJywgJzgnLCAnLW1hJywgJzIwMCcsICctaW1hZScsICc8aW5maWxlLm1hZT4nLCAnLW9tYWUnLCAnPG91dGZpbGUubWFlPic=

>  <r_lp_tautomer_probability>  (238) 
1

>  <r_epik_Ionization_Penalty>  (238) 
1.61888e-06

>  <r_epik_Ionization_Penalty_Charging>  (238) 
0

>  <r_epik_Ionization_Penalty_Neutral>  (238) 
1.61888e-06

>  <r_epik_State_Penalty>  (238) 
-0

>  <r_epik_Charging_Adjusted_Penalty>  (238) 
0

>  <i_epik_Tot_Q>  (238) 
0

>  <i_epik_Tot_abs_Q>  (238) 
0

>  <s_lp_Force_Field>  (238) 
OPLS3e

>  <r_lp_Energy>  (238) 
204.353

>  <b_lp_Chiralities_Consistent>  (238) 
1

>  <s_lp_Variant>  (238) 
54:0-2

>  <s_i_glide_gridfile>  (238) 
pfpi4k_grid

>  <i_i_glide_lignum>  (238) 
47

>  <i_i_glide_rotatable_bonds>  (238) 
5

>  <r_i_docking_score>  (238) 
-2.55636

>  <r_i_glide_ligand_efficiency>  (238) 
-0.075187

>  <r_i_glide_ligand_efficiency_sa>  (238) 
-0.243577

>  <r_i_glide_ligand_efficiency_ln>  (238) 
-0.564771

>  <r_i_glide_gscore>  (238) 
-2.55636

>  <r_i_glide_lipo>  (238) 
-0.0560643

>  <r_i_glide_hbond>  (238) 
-0.226837

>  <r_i_glide_metal>  (238) 
-0

>  <r_i_glide_rewards>  (238) 
-0.186725

>  <r_i_glide_evdw>  (238) 
-16.1539

>  <r_i_glide_ecoul>  (238) 
-9.08779

>  <r_i_glide_erotb>  (238) 
0.0905312

>  <r_i_glide_esite>  (238) 
-0.00640012

>  <r_i_glide_emodel>  (238) 
-25.7461

>  <r_i_glide_energy>  (238) 
-25.2417

>  <r_i_glide_einternal>  (238) 
7.8186

>  <r_i_glide_intrahb_reward>  (238) 
-0

>  <i_i_glide_confnum>  (238) 
4

>  <i_i_glide_posenum>  (238) 
19

>  <r_i_glide_eff_state_penalty>  (238) 
0

>  <ligand_id>  (238) 
54

>  <original_smiles>  (238) 
C=C1C(C)CCC2(C)C3C4(CO)C(C)C(O)C5(C)CC6CC7(OC37O)C2C6CC2OC12C(O)C54

>  <smiles>  (238) 
[H]OC([H])([H])C12C([H])(C([H])([H])[H])C([H])(O[H])C3(C([H])([H])[H])C([H])([H])C4([H])C([H])([H])C56OC5(O[H])C1([H])C1(C([H])([H])[H])C([H])([H])C([H])([H])C([H])(C([H])([H])[H])C(=C([H])[H])C5(OC5([H])C([H])([H])C4([H])C61[H])C([H])(O[H])C32[H]

$$$$
55:0:0
     RDKit          3D

 47 50  0  0  1  0  0  0  0  0999 V2000
    6.0826   -2.9807   -2.0337 C   0  0  0  0  0  0  0  0  0  0  0  0
    4.6358   -2.5290   -1.7377 C   0  0  2  0  0  0  0  0  0  0  0  0
    4.6156   -1.1554   -1.0284 C   0  0  0  0  0  0  0  0  0  0  0  0
    4.8578   -1.2286    0.4901 C   0  0  0  0  0  0  0  0  0  0  0  0
    3.7913   -2.1185    1.1819 C   0  0  1  0  0  0  0  0  0  0  0  0
    3.9033   -3.5495    0.5966 C   0  0  2  0  0  0  0  0  0  0  0  0
    5.1407   -4.2978    1.1454 C   0  0  0  0  0  0  0  0  0  0  0  0
    5.3290   -4.1064    2.6315 C   0  0  0  0  0  0  0  0  0  0  0  0
    4.7240   -3.1508    3.3601 C   0  0  0  0  0  0  0  0  0  0  0  0
    4.7921   -3.1689    4.8767 C   0  0  0  0  0  0  0  0  0  0  0  0
    3.3932   -3.4886    5.3945 C   0  0  0  0  0  0  0  0  0  0  0  0
    3.1975   -4.3488    6.2511 O   0  0  0  0  0  0  0  0  0  0  0  0
    2.2408   -2.6617    4.8145 C   0  0  0  0  0  0  0  0  0  0  0  0
    2.3468   -2.4945    3.2757 C   0  0  0  0  0  0  0  0  0  0  0  0
    3.7661   -2.1085    2.7586 C   0  0  2  0  0  0  0  0  0  0  0  0
    4.1000   -0.6869    3.2810 C   0  0  0  0  0  0  0  0  0  0  0  0
    3.8163   -3.5907   -0.9568 C   0  0  1  0  0  0  0  0  0  0  0  0
    2.3730   -3.4544   -1.4785 C   0  0  0  0  0  0  0  0  0  0  0  0
    2.4707   -3.0567   -2.9507 C   0  0  0  0  0  0  0  0  0  0  0  0
    3.8367   -2.4175   -3.0472 C   0  0  0  0  0  0  0  0  0  0  0  0
    4.2312   -1.8670   -4.0735 O   0  0  0  0  0  0  0  0  0  0  0  0
    6.7004   -3.0347   -1.1409 H   0  0  0  0  0  0  0  0  0  0  0  0
    6.5826   -2.2993   -2.7173 H   0  0  0  0  0  0  0  0  0  0  0  0
    6.0979   -3.9577   -2.5112 H   0  0  0  0  0  0  0  0  0  0  0  0
    5.3567   -0.4964   -1.4791 H   0  0  0  0  0  0  0  0  0  0  0  0
    3.6542   -0.6645   -1.1944 H   0  0  0  0  0  0  0  0  0  0  0  0
    5.8646   -1.5944    0.7001 H   0  0  0  0  0  0  0  0  0  0  0  0
    4.8216   -0.2042    0.8598 H   0  0  0  0  0  0  0  0  0  0  0  0
    2.8320   -1.7060    0.8708 H   0  0  0  0  0  0  0  0  0  0  0  0
    3.0424   -4.1156    0.9560 H   0  0  0  0  0  0  0  0  0  0  0  0
    5.0216   -5.3658    0.9579 H   0  0  0  0  0  0  0  0  0  0  0  0
    6.0650   -3.9932    0.6639 H   0  0  0  0  0  0  0  0  0  0  0  0
    5.9572   -4.8361    3.1198 H   0  0  0  0  0  0  0  0  0  0  0  0
    5.5010   -3.9207    5.2265 H   0  0  0  0  0  0  0  0  0  0  0  0
    5.1202   -2.2081    5.2702 H   0  0  0  0  0  0  0  0  0  0  0  0
    1.2939   -3.1337    5.0795 H   0  0  0  0  0  0  0  0  0  0  0  0
    2.2481   -1.6904    5.3092 H   0  0  0  0  0  0  0  0  0  0  0  0
    2.0416   -3.4420    2.8316 H   0  0  0  0  0  0  0  0  0  0  0  0
    1.6072   -1.7621    2.9428 H   0  0  0  0  0  0  0  0  0  0  0  0
    3.4781    0.0634    2.7898 H   0  0  0  0  0  0  0  0  0  0  0  0
    5.1447   -0.4291    3.1049 H   0  0  0  0  0  0  0  0  0  0  0  0
    3.9310   -0.5740    4.3507 H   0  0  0  0  0  0  0  0  0  0  0  0
    4.1704   -4.5727   -1.2745 H   0  0  0  0  0  0  0  0  0  0  0  0
    1.8086   -4.3806   -1.3569 H   0  0  0  0  0  0  0  0  0  0  0  0
    1.8440   -2.6717   -0.9401 H   0  0  0  0  0  0  0  0  0  0  0  0
    2.4517   -3.9330   -3.5992 H   0  0  0  0  0  0  0  0  0  0  0  0
    1.6806   -2.3776   -3.2727 H   0  0  0  0  0  0  0  0  0  0  0  0
  2  1  1  6
  1 22  1  0
  1 23  1  0
  1 24  1  0
  2 17  1  0
  2 20  1  0
  2  3  1  0
  3  4  1  0
  3 25  1  0
  3 26  1  0
  4  5  1  0
  4 27  1  0
  4 28  1  0
  5 15  1  0
  5  6  1  0
  5 29  1  6
  6  7  1  0
  6 17  1  0
  6 30  1  1
  7  8  1  0
  7 31  1  0
  7 32  1  0
  8  9  2  0
  8 33  1  0
  9 15  1  0
  9 10  1  0
 10 11  1  0
 10 34  1  0
 10 35  1  0
 11 12  2  0
 11 13  1  0
 13 14  1  0
 13 36  1  0
 13 37  1  0
 14 15  1  0
 14 38  1  0
 14 39  1  0
 15 16  1  1
 16 40  1  0
 16 41  1  0
 16 42  1  0
 17 18  1  0
 17 43  1  6
 18 19  1  0
 18 44  1  0
 18 45  1  0
 19 20  1  0
 19 46  1  0
 19 47  1  0
 20 21  2  0
M  END
>  <i_m_ct_stereo_status>  (239) 
1

>  <s_m_source_file>  (239) 
/var/tmp/pbs.5076255.sched01/tmpstc2q6q5/48db17pvb_.sdf

>  <i_m_source_file_index>  (239) 
48

>  <i_lp_mmshare_version>  (239) 
48012

>  <i_f3d_flags>  (239) 
0

>  <s_epik_input>  (239) 
Tz1DMVtDSDJdW0NIMl1bQ0BASF0oW0NAQF0xMltDSDNdKVtDQEBIXTNbQ0BIXShbQ0gyXVtDSDJdMilbQ0BdNChbQ0gzXSlDKD1bQ0hdW0NIMl0zKVtDSDJdQyg9TylbQ0gyXVtDSDJdNA==

>  <s_epik_cmdline>  (239) 
J2VwaWtfcHl0aG9uJywgJy1waHQnLCAnMi4wJywgJy1waCcsICc3LjAnLCAnLXRuJywgJzgnLCAnLW1hJywgJzIwMCcsICctaW1hZScsICc8aW5maWxlLm1hZT4nLCAnLW9tYWUnLCAnPG91dGZpbGUubWFlPic=

>  <r_lp_tautomer_probability>  (239) 
1

>  <r_epik_Ionization_Penalty>  (239) 
2.15887e-13

>  <r_epik_Ionization_Penalty_Charging>  (239) 
0

>  <r_epik_Ionization_Penalty_Neutral>  (239) 
2.15887e-13

>  <r_epik_State_Penalty>  (239) 
-0

>  <r_epik_Charging_Adjusted_Penalty>  (239) 
0

>  <i_epik_Tot_Q>  (239) 
0

>  <i_epik_Tot_abs_Q>  (239) 
0

>  <s_lp_Force_Field>  (239) 
OPLS3e

>  <r_lp_Energy>  (239) 
35.3757

>  <b_lp_Chiralities_Consistent>  (239) 
1

>  <s_lp_Variant>  (239) 
55:0-1

>  <s_i_glide_gridfile>  (239) 
pfpi4k_grid

>  <i_i_glide_lignum>  (239) 
48

>  <i_i_glide_rotatable_bonds>  (239) 
0

>  <r_i_docking_score>  (239) 
-4.11227

>  <r_i_glide_ligand_efficiency>  (239) 
-0.195823

>  <r_i_glide_ligand_efficiency_sa>  (239) 
-0.540259

>  <r_i_glide_ligand_efficiency_ln>  (239) 
-1.01675

>  <r_i_glide_gscore>  (239) 
-4.11227

>  <r_i_glide_lipo>  (239) 
-0.507435

>  <r_i_glide_hbond>  (239) 
-0.235617

>  <r_i_glide_metal>  (239) 
-0

>  <r_i_glide_rewards>  (239) 
-1.61475

>  <r_i_glide_evdw>  (239) 
-23.6755

>  <r_i_glide_ecoul>  (239) 
-3.80464

>  <r_i_glide_erotb>  (239) 
0

>  <r_i_glide_esite>  (239) 
0

>  <r_i_glide_emodel>  (239) 
-34.1987

>  <r_i_glide_energy>  (239) 
-27.4802

>  <r_i_glide_einternal>  (239) 
0

>  <r_i_glide_intrahb_reward>  (239) 
-0

>  <i_i_glide_confnum>  (239) 
1

>  <i_i_glide_posenum>  (239) 
30

>  <r_i_glide_eff_state_penalty>  (239) 
0

>  <ligand_id>  (239) 
55

>  <original_smiles>  (239) 
CC12CCC3C(CC=C4CC(=O)CCC43C)C1CCC2=O

>  <smiles>  (239) 
[H]C1=C2C([H])([H])C(=O)C([H])([H])C([H])([H])C2(C([H])([H])[H])C2([H])C([H])([H])C([H])([H])C3(C([H])([H])[H])C(=O)C([H])([H])C([H])([H])C3([H])C2([H])C1([H])[H]

$$$$
55:0:1
     RDKit          3D

 47 50  0  0  1  0  0  0  0  0999 V2000
    3.0848   -3.3155   -3.9296 C   0  0  0  0  0  0  0  0  0  0  0  0
    3.9791   -2.6245   -2.9163 C   0  0  2  0  0  0  0  0  0  0  0  0
    5.3089   -3.3046   -2.6020 C   0  0  0  0  0  0  0  0  0  0  0  0
    5.2358   -4.3117   -1.4383 C   0  0  0  0  0  0  0  0  0  0  0  0
    4.7068   -3.7642   -0.1153 C   0  0  1  0  0  0  0  0  0  0  0  0
    3.3229   -3.1990   -0.3600 C   0  0  2  0  0  0  0  0  0  0  0  0
    2.2955   -4.2956   -0.5260 C   0  0  0  0  0  0  0  0  0  0  0  0
    2.4310   -5.4329    0.5023 C   0  0  0  0  0  0  0  0  0  0  0  0
    3.5320   -5.6197    1.2488 C   0  0  0  0  0  0  0  0  0  0  0  0
    3.5291   -6.5967    2.4299 C   0  0  0  0  0  0  0  0  0  0  0  0
    3.6661   -5.7538    3.6963 C   0  0  0  0  0  0  0  0  0  0  0  0
    2.9152   -5.9226    4.6622 O   0  0  0  0  0  0  0  0  0  0  0  0
    4.7786   -4.7098    3.7296 C   0  0  0  0  0  0  0  0  0  0  0  0
    4.8601   -3.8931    2.4169 C   0  0  0  0  0  0  0  0  0  0  0  0
    4.7825   -4.7477    1.1242 C   0  0  2  0  0  0  0  0  0  0  0  0
    6.0557   -5.6310    1.0439 C   0  0  0  0  0  0  0  0  0  0  0  0
    3.3052   -2.2541   -1.5874 C   0  0  1  0  0  0  0  0  0  0  0  0
    3.8814   -0.9217   -1.2006 C   0  0  0  0  0  0  0  0  0  0  0  0
    4.1528   -0.2162   -2.5314 C   0  0  0  0  0  0  0  0  0  0  0  0
    4.2289   -1.2746   -3.5445 C   0  0  0  0  0  0  0  0  0  0  0  0
    4.4221   -1.0570   -4.7349 O   0  0  0  0  0  0  0  0  0  0  0  0
    2.8075   -4.2413   -3.5413 H   0  0  0  0  0  0  0  0  0  0  0  0
    3.6205   -3.4797   -4.8715 H   0  0  0  0  0  0  0  0  0  0  0  0
    2.1293   -2.8301   -4.1004 H   0  0  0  0  0  0  0  0  0  0  0  0
    5.7085   -3.7917   -3.4929 H   0  0  0  0  0  0  0  0  0  0  0  0
    6.0636   -2.5683   -2.3131 H   0  0  0  0  0  0  0  0  0  0  0  0
    4.6624   -5.1751   -1.7534 H   0  0  0  0  0  0  0  0  0  0  0  0
    6.2191   -4.6050   -1.2119 H   0  0  0  0  0  0  0  0  0  0  0  0
    5.3874   -2.9430    0.0950 H   0  0  0  0  0  0  0  0  0  0  0  0
    3.0251   -2.6179    0.5225 H   0  0  0  0  0  0  0  0  0  0  0  0
    1.3845   -3.7958   -0.3809 H   0  0  0  0  0  0  0  0  0  0  0  0
    2.1992   -4.5765   -1.5474 H   0  0  0  0  0  0  0  0  0  0  0  0
    1.5603   -6.0461    0.6802 H   0  0  0  0  0  0  0  0  0  0  0  0
    2.6096   -7.1774    2.4567 H   0  0  0  0  0  0  0  0  0  0  0  0
    4.3656   -7.2918    2.3613 H   0  0  0  0  0  0  0  0  0  0  0  0
    4.6262   -4.0394    4.5745 H   0  0  0  0  0  0  0  0  0  0  0  0
    5.7176   -5.2265    3.9168 H   0  0  0  0  0  0  0  0  0  0  0  0
    4.0303   -3.1865    2.4244 H   0  0  0  0  0  0  0  0  0  0  0  0
    5.7697   -3.2910    2.4154 H   0  0  0  0  0  0  0  0  0  0  0  0
    6.9474   -5.0358    0.8550 H   0  0  0  0  0  0  0  0  0  0  0  0
    5.9738   -6.3739    0.2506 H   0  0  0  0  0  0  0  0  0  0  0  0
    6.2488   -6.1816    1.9626 H   0  0  0  0  0  0  0  0  0  0  0  0
    2.2802   -2.0995   -1.8866 H   0  0  0  0  0  0  0  0  0  0  0  0
    3.1906   -0.4406   -0.5135 H   0  0  0  0  0  0  0  0  0  0  0  0
    4.8124   -0.9840   -0.6443 H   0  0  0  0  0  0  0  0  0  0  0  0
    3.3003    0.3661   -2.8582 H   0  0  0  0  0  0  0  0  0  0  0  0
    5.0101    0.4406   -2.5417 H   0  0  0  0  0  0  0  0  0  0  0  0
  2  1  1  6
  1 22  1  0
  1 23  1  0
  1 24  1  0
  2 17  1  0
  2 20  1  0
  2  3  1  0
  3  4  1  0
  3 25  1  0
  3 26  1  0
  4  5  1  0
  4 27  1  0
  4 28  1  0
  5 15  1  0
  5  6  1  0
  5 29  1  1
  6  7  1  0
  6 17  1  0
  6 30  1  1
  7  8  1  0
  7 31  1  0
  7 32  1  0
  8  9  2  0
  8 33  1  0
  9 15  1  0
  9 10  1  0
 10 11  1  0
 10 34  1  0
 10 35  1  0
 11 12  2  0
 11 13  1  0
 13 14  1  0
 13 36  1  0
 13 37  1  0
 14 15  1  0
 14 38  1  0
 14 39  1  0
 15 16  1  6
 16 40  1  0
 16 41  1  0
 16 42  1  0
 17 18  1  0
 17 43  1  6
 18 19  1  0
 18 44  1  0
 18 45  1  0
 19 20  1  0
 19 46  1  0
 19 47  1  0
 20 21  2  0
M  END
>  <i_m_ct_stereo_status>  (240) 
1

>  <s_m_source_file>  (240) 
/var/tmp/pbs.5076255.sched01/tmpstc2q6q5/48db17pvb_.sdf

>  <i_m_source_file_index>  (240) 
48

>  <i_lp_mmshare_version>  (240) 
48012

>  <i_f3d_flags>  (240) 
0

>  <s_epik_input>  (240) 
Tz1DMVtDSDJdW0NIMl1bQ0BASF0oW0NAQF0xMltDSDNdKVtDQEBIXTNbQ0BIXShbQ0gyXVtDSDJdMilbQ0BdNChbQ0gzXSlDKD1bQ0hdW0NIMl0zKVtDSDJdQyg9TylbQ0gyXVtDSDJdNA==

>  <s_epik_cmdline>  (240) 
J2VwaWtfcHl0aG9uJywgJy1waHQnLCAnMi4wJywgJy1waCcsICc3LjAnLCAnLXRuJywgJzgnLCAnLW1hJywgJzIwMCcsICctaW1hZScsICc8aW5maWxlLm1hZT4nLCAnLW9tYWUnLCAnPG91dGZpbGUubWFlPic=

>  <r_lp_tautomer_probability>  (240) 
1

>  <r_epik_Ionization_Penalty>  (240) 
2.15887e-13

>  <r_epik_Ionization_Penalty_Charging>  (240) 
0

>  <r_epik_Ionization_Penalty_Neutral>  (240) 
2.15887e-13

>  <r_epik_State_Penalty>  (240) 
-0

>  <r_epik_Charging_Adjusted_Penalty>  (240) 
0

>  <i_epik_Tot_Q>  (240) 
0

>  <i_epik_Tot_abs_Q>  (240) 
0

>  <s_lp_Force_Field>  (240) 
OPLS3e

>  <r_lp_Energy>  (240) 
35.3757

>  <b_lp_Chiralities_Consistent>  (240) 
1

>  <s_lp_Variant>  (240) 
55:0-1

>  <s_i_glide_gridfile>  (240) 
pfpi4k_grid

>  <i_i_glide_lignum>  (240) 
48

>  <i_i_glide_rotatable_bonds>  (240) 
0

>  <r_i_docking_score>  (240) 
-3.60595

>  <r_i_glide_ligand_efficiency>  (240) 
-0.171712

>  <r_i_glide_ligand_efficiency_sa>  (240) 
-0.47374

>  <r_i_glide_ligand_efficiency_ln>  (240) 
-0.891564

>  <r_i_glide_gscore>  (240) 
-3.60595

>  <r_i_glide_lipo>  (240) 
-0.786595

>  <r_i_glide_hbond>  (240) 
-0.32

>  <r_i_glide_metal>  (240) 
-0

>  <r_i_glide_rewards>  (240) 
-1.71013

>  <r_i_glide_evdw>  (240) 
-6.38354

>  <r_i_glide_ecoul>  (240) 
-3.13368

>  <r_i_glide_erotb>  (240) 
0

>  <r_i_glide_esite>  (240) 
0

>  <r_i_glide_emodel>  (240) 
-13.4351

>  <r_i_glide_energy>  (240) 
-9.51722

>  <r_i_glide_einternal>  (240) 
0

>  <r_i_glide_intrahb_reward>  (240) 
-0

>  <i_i_glide_confnum>  (240) 
2

>  <i_i_glide_posenum>  (240) 
10

>  <r_i_glide_eff_state_penalty>  (240) 
0

>  <ligand_id>  (240) 
55

>  <original_smiles>  (240) 
CC12CCC3C(CC=C4CC(=O)CCC43C)C1CCC2=O

>  <smiles>  (240) 
[H]C1=C2C([H])([H])C(=O)C([H])([H])C([H])([H])C2(C([H])([H])[H])C2([H])C([H])([H])C([H])([H])C3(C([H])([H])[H])C(=O)C([H])([H])C([H])([H])C3([H])C2([H])C1([H])[H]

$$$$
55:0:2
     RDKit          3D

 47 50  0  0  1  0  0  0  0  0999 V2000
    2.6007   -3.3652   -2.7765 C   0  0  0  0  0  0  0  0  0  0  0  0
    3.8732   -2.7988   -2.1173 C   0  0  2  0  0  0  0  0  0  0  0  0
    4.9797   -3.8605   -1.9241 C   0  0  0  0  0  0  0  0  0  0  0  0
    4.8041   -4.7112   -0.6468 C   0  0  0  0  0  0  0  0  0  0  0  0
    4.8086   -3.8376    0.6231 C   0  0  1  0  0  0  0  0  0  0  0  0
    3.6335   -2.8478    0.5196 C   0  0  2  0  0  0  0  0  0  0  0  0
    2.3069   -3.5331    0.7793 C   0  0  0  0  0  0  0  0  0  0  0  0
    2.3036   -4.4916    1.9442 C   0  0  0  0  0  0  0  0  0  0  0  0
    3.4256   -4.9711    2.4984 C   0  0  0  0  0  0  0  0  0  0  0  0
    3.3822   -5.7260    3.8219 C   0  0  0  0  0  0  0  0  0  0  0  0
    4.0263   -4.8389    4.8906 C   0  0  0  0  0  0  0  0  0  0  0  0
    3.4833   -4.6274    5.9740 O   0  0  0  0  0  0  0  0  0  0  0  0
    5.3802   -4.2187    4.5279 C   0  0  0  0  0  0  0  0  0  0  0  0
    5.3787   -3.6356    3.0810 C   0  0  0  0  0  0  0  0  0  0  0  0
    4.8191   -4.5941    2.0031 C   0  0  2  0  0  0  0  0  0  0  0  0
    5.7291   -5.8429    1.8997 C   0  0  0  0  0  0  0  0  0  0  0  0
    3.6111   -2.0297   -0.8003 C   0  0  1  0  0  0  0  0  0  0  0  0
    4.6040   -0.8631   -0.7778 C   0  0  0  0  0  0  0  0  0  0  0  0
    4.7727   -0.4683   -2.2340 C   0  0  0  0  0  0  0  0  0  0  0  0
    4.3847   -1.6888   -3.0178 C   0  0  0  0  0  0  0  0  0  0  0  0
    4.4337   -1.7524   -4.2439 O   0  0  0  0  0  0  0  0  0  0  0  0
    2.1584   -4.1704   -2.2010 H   0  0  0  0  0  0  0  0  0  0  0  0
    2.8073   -3.7710   -3.7681 H   0  0  0  0  0  0  0  0  0  0  0  0
    1.8290   -2.6070   -2.9032 H   0  0  0  0  0  0  0  0  0  0  0  0
    5.0064   -4.5252   -2.7897 H   0  0  0  0  0  0  0  0  0  0  0  0
    5.9633   -3.3885   -1.8906 H   0  0  0  0  0  0  0  0  0  0  0  0
    3.8808   -5.2884   -0.6863 H   0  0  0  0  0  0  0  0  0  0  0  0
    5.6139   -5.4344   -0.6319 H   0  0  0  0  0  0  0  0  0  0  0  0
    5.7285   -3.2533    0.5719 H   0  0  0  0  0  0  0  0  0  0  0  0
    3.7305   -2.1073    1.3169 H   0  0  0  0  0  0  0  0  0  0  0  0
    1.6139   -2.7152    1.0105 H   0  0  0  0  0  0  0  0  0  0  0  0
    1.9207   -4.0749   -0.0808 H   0  0  0  0  0  0  0  0  0  0  0  0
    1.3515   -4.7421    2.3777 H   0  0  0  0  0  0  0  0  0  0  0  0
    2.3582   -5.9596    4.1031 H   0  0  0  0  0  0  0  0  0  0  0  0
    3.9281   -6.6656    3.7517 H   0  0  0  0  0  0  0  0  0  0  0  0
    5.6211   -3.4374    5.2512 H   0  0  0  0  0  0  0  0  0  0  0  0
    6.1417   -4.9902    4.6509 H   0  0  0  0  0  0  0  0  0  0  0  0
    4.8060   -2.7055    3.1158 H   0  0  0  0  0  0  0  0  0  0  0  0
    6.3595   -3.3346    2.7351 H   0  0  0  0  0  0  0  0  0  0  0  0
    6.6937   -5.5887    1.4611 H   0  0  0  0  0  0  0  0  0  0  0  0
    5.2675   -6.6151    1.2808 H   0  0  0  0  0  0  0  0  0  0  0  0
    5.9349   -6.3018    2.8652 H   0  0  0  0  0  0  0  0  0  0  0  0
    2.6271   -1.5822   -0.9062 H   0  0  0  0  0  0  0  0  0  0  0  0
    4.2327   -0.0325   -0.1753 H   0  0  0  0  0  0  0  0  0  0  0  0
    5.5718   -1.1660   -0.3763 H   0  0  0  0  0  0  0  0  0  0  0  0
    4.1270    0.3582   -2.5309 H   0  0  0  0  0  0  0  0  0  0  0  0
    5.8094   -0.1749   -2.3812 H   0  0  0  0  0  0  0  0  0  0  0  0
  2  1  1  6
  1 22  1  0
  1 23  1  0
  1 24  1  0
  2 17  1  0
  2 20  1  0
  2  3  1  0
  3  4  1  0
  3 25  1  0
  3 26  1  0
  4  5  1  0
  4 27  1  0
  4 28  1  0
  5 15  1  0
  5  6  1  0
  5 29  1  6
  6  7  1  0
  6 17  1  0
  6 30  1  1
  7  8  1  0
  7 31  1  0
  7 32  1  0
  8  9  2  0
  8 33  1  0
  9 15  1  0
  9 10  1  0
 10 11  1  0
 10 34  1  0
 10 35  1  0
 11 12  2  0
 11 13  1  0
 13 14  1  0
 13 36  1  0
 13 37  1  0
 14 15  1  0
 14 38  1  0
 14 39  1  0
 15 16  1  6
 16 40  1  0
 16 41  1  0
 16 42  1  0
 17 18  1  0
 17 43  1  6
 18 19  1  0
 18 44  1  0
 18 45  1  0
 19 20  1  0
 19 46  1  0
 19 47  1  0
 20 21  2  0
M  END
>  <i_m_ct_stereo_status>  (241) 
1

>  <s_m_source_file>  (241) 
/var/tmp/pbs.5076255.sched01/tmpstc2q6q5/48db17pvb_.sdf

>  <i_m_source_file_index>  (241) 
48

>  <i_lp_mmshare_version>  (241) 
48012

>  <i_f3d_flags>  (241) 
0

>  <s_epik_input>  (241) 
Tz1DMVtDSDJdW0NIMl1bQ0BASF0oW0NAQF0xMltDSDNdKVtDQEBIXTNbQ0BIXShbQ0gyXVtDSDJdMilbQ0BdNChbQ0gzXSlDKD1bQ0hdW0NIMl0zKVtDSDJdQyg9TylbQ0gyXVtDSDJdNA==

>  <s_epik_cmdline>  (241) 
J2VwaWtfcHl0aG9uJywgJy1waHQnLCAnMi4wJywgJy1waCcsICc3LjAnLCAnLXRuJywgJzgnLCAnLW1hJywgJzIwMCcsICctaW1hZScsICc8aW5maWxlLm1hZT4nLCAnLW9tYWUnLCAnPG91dGZpbGUubWFlPic=

>  <r_lp_tautomer_probability>  (241) 
1

>  <r_epik_Ionization_Penalty>  (241) 
2.15887e-13

>  <r_epik_Ionization_Penalty_Charging>  (241) 
0

>  <r_epik_Ionization_Penalty_Neutral>  (241) 
2.15887e-13

>  <r_epik_State_Penalty>  (241) 
-0

>  <r_epik_Charging_Adjusted_Penalty>  (241) 
0

>  <i_epik_Tot_Q>  (241) 
0

>  <i_epik_Tot_abs_Q>  (241) 
0

>  <s_lp_Force_Field>  (241) 
OPLS3e

>  <r_lp_Energy>  (241) 
35.3757

>  <b_lp_Chiralities_Consistent>  (241) 
1

>  <s_lp_Variant>  (241) 
55:0-1

>  <s_i_glide_gridfile>  (241) 
pfpi4k_grid

>  <i_i_glide_lignum>  (241) 
48

>  <i_i_glide_rotatable_bonds>  (241) 
0

>  <r_i_docking_score>  (241) 
-3.01516

>  <r_i_glide_ligand_efficiency>  (241) 
-0.143579

>  <r_i_glide_ligand_efficiency_sa>  (241) 
-0.396124

>  <r_i_glide_ligand_efficiency_ln>  (241) 
-0.745493

>  <r_i_glide_gscore>  (241) 
-3.01516

>  <r_i_glide_lipo>  (241) 
-0.247887

>  <r_i_glide_hbond>  (241) 
-0.32

>  <r_i_glide_metal>  (241) 
-0

>  <r_i_glide_rewards>  (241) 
-1.50244

>  <r_i_glide_evdw>  (241) 
-8.49094

>  <r_i_glide_ecoul>  (241) 
-3.46861

>  <r_i_glide_erotb>  (241) 
0

>  <r_i_glide_esite>  (241) 
0

>  <r_i_glide_emodel>  (241) 
-16.5103

>  <r_i_glide_energy>  (241) 
-11.9595

>  <r_i_glide_einternal>  (241) 
0

>  <r_i_glide_intrahb_reward>  (241) 
-0

>  <i_i_glide_confnum>  (241) 
1

>  <i_i_glide_posenum>  (241) 
2

>  <r_i_glide_eff_state_penalty>  (241) 
0

>  <ligand_id>  (241) 
55

>  <original_smiles>  (241) 
CC12CCC3C(CC=C4CC(=O)CCC43C)C1CCC2=O

>  <smiles>  (241) 
[H]C1=C2C([H])([H])C(=O)C([H])([H])C([H])([H])C2(C([H])([H])[H])C2([H])C([H])([H])C([H])([H])C3(C([H])([H])[H])C(=O)C([H])([H])C([H])([H])C3([H])C2([H])C1([H])[H]

$$$$
56:0:0
     RDKit          3D

 81 85  0  0  1  0  0  0  0  0999 V2000
    1.0750    0.5890    1.7146 C   0  0  0  0  0  0  0  0  0  0  0  0
    1.3172    0.1607    2.9671 C   0  0  0  0  0  0  0  0  0  0  0  0
    0.5178    0.7757    4.0990 C   0  0  0  0  0  0  0  0  0  0  0  0
    2.3246   -0.9446    3.3594 C   0  0  2  0  0  0  0  0  0  0  0  0
    3.5645   -0.4377    4.1326 C   0  0  0  0  0  0  0  0  0  0  0  0
    4.8192   -0.7493    3.2920 C   0  0  0  0  0  0  0  0  0  0  0  0
    4.3198   -1.1864    1.9064 C   0  0  1  0  0  0  0  0  0  0  0  0
    4.2135    0.0785    1.0365 C   0  0  0  0  0  0  0  0  0  0  0  0
    5.2803   -2.1250    1.1394 C   0  0  0  0  0  0  0  0  0  0  0  0
    5.1440   -3.6348    1.3973 C   0  0  0  0  0  0  0  0  0  0  0  0
    3.6751   -4.1753    1.3991 C   0  0  2  0  0  0  0  0  0  0  0  0
    3.0030   -3.8539    0.0283 C   0  0  0  0  0  0  0  0  0  0  0  0
    2.9220   -3.3545    2.5057 C   0  0  1  0  0  0  0  0  0  0  0  0
    3.4196   -3.7694    3.9076 C   0  0  0  0  0  0  0  0  0  0  0  0
    3.2416   -5.2657    4.1390 C   0  0  0  0  0  0  0  0  0  0  0  0
    4.0306   -6.1704    3.1339 C   0  0  1  0  0  0  0  0  0  0  0  0
    3.8911   -7.7138    3.5394 C   0  0  2  0  0  0  0  0  0  0  0  0
    4.2806   -7.7943    5.0456 C   0  0  0  0  0  0  0  0  0  0  0  0
    4.8864   -8.6672    2.8038 C   0  0  0  0  0  0  0  0  0  0  0  0
    4.6891  -10.1600    3.1122 C   0  0  0  0  0  0  0  0  0  0  0  0
    3.2448  -10.6066    2.8572 C   0  0  1  0  0  0  0  0  0  0  0  0
    3.1414  -11.9618    3.2177 O   0  0  0  0  0  0  0  0  0  0  0  0
    2.1613   -9.7459    3.5695 C   0  0  0  0  0  0  0  0  0  0  0  0
    0.7672  -10.1828    3.0565 C   0  0  0  0  0  0  0  0  0  0  0  0
    2.1399  -10.0305    5.0962 C   0  0  0  0  0  0  0  0  0  0  0  0
    2.4222   -8.2142    3.2543 C   0  0  2  0  0  0  0  0  0  0  0  0
    2.0246   -7.8372    1.7946 C   0  0  0  0  0  0  0  0  0  0  0  0
    2.2006   -6.3485    1.4297 C   0  0  0  0  0  0  0  0  0  0  0  0
    3.6317   -5.7703    1.6515 C   0  0  1  0  0  0  0  0  0  0  0  0
    4.6015   -6.4250    0.6194 C   0  0  0  0  0  0  0  0  0  0  0  0
    2.9192   -1.8039    2.2102 C   0  0  1  0  0  0  0  0  0  0  0  0
    0.3472    1.3693    1.5233 H   0  0  0  0  0  0  0  0  0  0  0  0
    1.5891    0.1895    0.8620 H   0  0  0  0  0  0  0  0  0  0  0  0
    0.0595   -0.0001    4.7119 H   0  0  0  0  0  0  0  0  0  0  0  0
   -0.2918    1.3904    3.6979 H   0  0  0  0  0  0  0  0  0  0  0  0
    1.1380    1.4117    4.7298 H   0  0  0  0  0  0  0  0  0  0  0  0
    1.7337   -1.5786    4.0149 H   0  0  0  0  0  0  0  0  0  0  0  0
    3.4934    0.6258    4.3609 H   0  0  0  0  0  0  0  0  0  0  0  0
    3.6588   -0.9450    5.0910 H   0  0  0  0  0  0  0  0  0  0  0  0
    5.4881    0.1093    3.2331 H   0  0  0  0  0  0  0  0  0  0  0  0
    5.4085   -1.5344    3.7565 H   0  0  0  0  0  0  0  0  0  0  0  0
    3.6912   -0.1441    0.1107 H   0  0  0  0  0  0  0  0  0  0  0  0
    5.2094    0.4391    0.7611 H   0  0  0  0  0  0  0  0  0  0  0  0
    3.6877    0.8908    1.5365 H   0  0  0  0  0  0  0  0  0  0  0  0
    5.1453   -1.9814    0.0688 H   0  0  0  0  0  0  0  0  0  0  0  0
    6.3130   -1.8263    1.3262 H   0  0  0  0  0  0  0  0  0  0  0  0
    5.7585   -4.1301    0.6490 H   0  0  0  0  0  0  0  0  0  0  0  0
    5.6480   -3.8596    2.3348 H   0  0  0  0  0  0  0  0  0  0  0  0
    1.9245   -3.9867    0.0775 H   0  0  0  0  0  0  0  0  0  0  0  0
    3.3547   -4.4627   -0.7980 H   0  0  0  0  0  0  0  0  0  0  0  0
    3.1565   -2.8274   -0.2970 H   0  0  0  0  0  0  0  0  0  0  0  0
    1.8673   -3.6445    2.4746 H   0  0  0  0  0  0  0  0  0  0  0  0
    4.4574   -3.5000    4.0921 H   0  0  0  0  0  0  0  0  0  0  0  0
    2.8501   -3.2702    4.6874 H   0  0  0  0  0  0  0  0  0  0  0  0
    3.5592   -5.4244    5.1660 H   0  0  0  0  0  0  0  0  0  0  0  0
    2.1781   -5.5013    4.1231 H   0  0  0  0  0  0  0  0  0  0  0  0
    5.0858   -5.9167    3.2580 H   0  0  0  0  0  0  0  0  0  0  0  0
    4.6618   -8.7591    5.3628 H   0  0  0  0  0  0  0  0  0  0  0  0
    3.4407   -7.5566    5.6985 H   0  0  0  0  0  0  0  0  0  0  0  0
    5.0938   -7.1038    5.2755 H   0  0  0  0  0  0  0  0  0  0  0  0
    4.7715   -8.6223    1.7329 H   0  0  0  0  0  0  0  0  0  0  0  0
    5.9160   -8.3792    3.0061 H   0  0  0  0  0  0  0  0  0  0  0  0
    5.3456  -10.7442    2.4696 H   0  0  0  0  0  0  0  0  0  0  0  0
    4.9911  -10.4229    4.1207 H   0  0  0  0  0  0  0  0  0  0  0  0
    3.0615  -10.5631    1.7818 H   0  0  0  0  0  0  0  0  0  0  0  0
    3.4185  -12.4726    2.4647 H   0  0  0  0  0  0  0  0  0  0  0  0
   -0.0144   -9.5013    3.4038 H   0  0  0  0  0  0  0  0  0  0  0  0
    0.5009  -11.1808    3.4138 H   0  0  0  0  0  0  0  0  0  0  0  0
    0.7244  -10.2365    1.9683 H   0  0  0  0  0  0  0  0  0  0  0  0
    1.6527   -9.2251    5.6476 H   0  0  0  0  0  0  0  0  0  0  0  0
    3.1265  -10.1984    5.5139 H   0  0  0  0  0  0  0  0  0  0  0  0
    1.5848  -10.9419    5.3271 H   0  0  0  0  0  0  0  0  0  0  0  0
    1.7389   -7.6582    3.9006 H   0  0  0  0  0  0  0  0  0  0  0  0
    2.5611   -8.4604    1.0857 H   0  0  0  0  0  0  0  0  0  0  0  0
    0.9750   -8.0594    1.6214 H   0  0  0  0  0  0  0  0  0  0  0  0
    1.9159   -6.2381    0.3849 H   0  0  0  0  0  0  0  0  0  0  0  0
    1.4683   -5.7771    1.9933 H   0  0  0  0  0  0  0  0  0  0  0  0
    4.2197   -7.3525    0.1999 H   0  0  0  0  0  0  0  0  0  0  0  0
    5.5849   -6.6082    1.0534 H   0  0  0  0  0  0  0  0  0  0  0  0
    4.7939   -5.8293   -0.2648 H   0  0  0  0  0  0  0  0  0  0  0  0
    2.2738   -1.7043    1.3438 H   0  0  0  0  0  0  0  0  0  0  0  0
  1  2  2  0
  1 32  1  0
  1 33  1  0
  2  3  1  0
  2  4  1  0
  3 34  1  0
  3 35  1  0
  3 36  1  0
  4 31  1  0
  4  5  1  0
  4 37  1  1
  5  6  1  0
  5 38  1  0
  5 39  1  0
  6  7  1  0
  6 40  1  0
  6 41  1  0
  7 31  1  0
  7  8  1  6
  7  9  1  0
  8 42  1  0
  8 43  1  0
  8 44  1  0
  9 10  1  0
  9 45  1  0
  9 46  1  0
 10 11  1  0
 10 47  1  0
 10 48  1  0
 11 29  1  0
 11 12  1  6
 11 13  1  0
 12 49  1  0
 12 50  1  0
 12 51  1  0
 13 14  1  0
 13 31  1  0
 13 52  1  1
 14 15  1  0
 14 53  1  0
 14 54  1  0
 15 16  1  0
 15 55  1  0
 15 56  1  0
 16 29  1  0
 16 17  1  0
 16 57  1  6
 17 26  1  0
 17 18  1  1
 17 19  1  0
 18 58  1  0
 18 59  1  0
 18 60  1  0
 19 20  1  0
 19 61  1  0
 19 62  1  0
 20 21  1  0
 20 63  1  0
 20 64  1  0
 21 22  1  0
 21 23  1  0
 21 65  1  6
 22 66  1  0
 23 24  1  0
 23 25  1  0
 23 26  1  0
 24 67  1  0
 24 68  1  0
 24 69  1  0
 25 70  1  0
 25 71  1  0
 25 72  1  0
 26 27  1  0
 26 73  1  1
 27 28  1  0
 27 74  1  0
 27 75  1  0
 28 29  1  0
 28 76  1  0
 28 77  1  0
 29 30  1  6
 30 78  1  0
 30 79  1  0
 30 80  1  0
 31 81  1  6
M  END
>  <i_m_ct_stereo_status>  (242) 
1

>  <s_m_source_file>  (242) 
/var/tmp/pbs.5076255.sched01/tmpnby3vxlc/96d7dj3887.sdf

>  <i_m_source_file_index>  (242) 
1

>  <i_lp_mmshare_version>  (242) 
48012

>  <i_f3d_flags>  (242) 
0

>  <s_epik_input>  (242) 
W0NIMl09QyhbQ0gzXSlbQ0BIXShbQ0gyXVtDSDJdMSlbQ0BASF0oW0NAQF0xMltDSDNdKVtDQEhdM1tDQEBdKFtDSDNdKShbQ0gyXVtDSDJdMilbQ0BAXTQoW0NIM10pW0NAQEhdKFtDSDJdW0NIMl0zKVtDQEBdNShbQ0gzXSlbQ0BASF0oW0NIMl1bQ0gyXTQpQyhbQ0gzXSkoW0NIM10pW0NASF0oW09IXSlbQ0gyXVtDSDJdNQ==

>  <s_epik_cmdline>  (242) 
J2VwaWtfcHl0aG9uJywgJy1waHQnLCAnMi4wJywgJy1waCcsICc3LjAnLCAnLXRuJywgJzgnLCAnLW1hJywgJzIwMCcsICctaW1hZScsICc8aW5maWxlLm1hZT4nLCAnLW9tYWUnLCAnPG91dGZpbGUubWFlPic=

>  <r_lp_tautomer_probability>  (242) 
1

>  <r_epik_Ionization_Penalty>  (242) 
3.18421e-06

>  <r_epik_Ionization_Penalty_Charging>  (242) 
0

>  <r_epik_Ionization_Penalty_Neutral>  (242) 
3.18421e-06

>  <r_epik_State_Penalty>  (242) 
-0

>  <r_epik_Charging_Adjusted_Penalty>  (242) 
0

>  <i_epik_Tot_Q>  (242) 
0

>  <i_epik_Tot_abs_Q>  (242) 
0

>  <s_lp_Force_Field>  (242) 
OPLS3e

>  <r_lp_Energy>  (242) 
103.055

>  <b_lp_Chiralities_Consistent>  (242) 
1

>  <s_lp_Variant>  (242) 
56:0-1

>  <s_i_glide_gridfile>  (242) 
pfpi4k_grid

>  <i_i_glide_lignum>  (242) 
1

>  <i_i_glide_rotatable_bonds>  (242) 
2

>  <r_i_docking_score>  (242) 
-2.69813

>  <r_i_glide_ligand_efficiency>  (242) 
-0.0870364

>  <r_i_glide_ligand_efficiency_sa>  (242) 
-0.273414

>  <r_i_glide_ligand_efficiency_ln>  (242) 
-0.608511

>  <r_i_glide_gscore>  (242) 
-2.69813

>  <r_i_glide_lipo>  (242) 
-0.530302

>  <r_i_glide_hbond>  (242) 
-0.0516167

>  <r_i_glide_metal>  (242) 
-0

>  <r_i_glide_rewards>  (242) 
-0.499654

>  <r_i_glide_evdw>  (242) 
-30.3578

>  <r_i_glide_ecoul>  (242) 
-1.38445

>  <r_i_glide_erotb>  (242) 
0.109005

>  <r_i_glide_esite>  (242) 
0

>  <r_i_glide_emodel>  (242) 
-35.8508

>  <r_i_glide_energy>  (242) 
-31.7423

>  <r_i_glide_einternal>  (242) 
1.42742

>  <r_i_glide_intrahb_reward>  (242) 
-0

>  <i_i_glide_confnum>  (242) 
3

>  <i_i_glide_posenum>  (242) 
34

>  <r_i_glide_eff_state_penalty>  (242) 
0

>  <ligand_id>  (242) 
56

>  <original_smiles>  (242) 
C=C(C)C1CCC2(C)CCC3(C)C(CCC4C5(C)CCC(O)C(C)(C)C5CCC43C)C12

>  <smiles>  (242) 
[H]OC1([H])C([H])([H])C([H])([H])C2(C([H])([H])[H])C([H])(C([H])([H])C([H])([H])C3(C([H])([H])[H])C2([H])C([H])([H])C([H])([H])C2([H])C4([H])C([H])(C(=C([H])[H])C([H])([H])[H])C([H])([H])C([H])([H])C4(C([H])([H])[H])C([H])([H])C([H])([H])C23C([H])([H])[H])C1(C([H])([H])[H])C([H])([H])[H]

$$$$
56:0:1
     RDKit          3D

 81 85  0  0  1  0  0  0  0  0999 V2000
    1.5834    0.8991    1.2980 C   0  0  0  0  0  0  0  0  0  0  0  0
    1.8085    0.6272    2.5942 C   0  0  0  0  0  0  0  0  0  0  0  0
    1.2432    1.5771    3.6267 C   0  0  0  0  0  0  0  0  0  0  0  0
    2.5785   -0.5995    3.1349 C   0  0  2  0  0  0  0  0  0  0  0  0
    3.8242   -0.2439    3.9780 C   0  0  0  0  0  0  0  0  0  0  0  0
    5.0602   -0.8105    3.2577 C   0  0  0  0  0  0  0  0  0  0  0  0
    4.5849   -1.2653    1.8649 C   0  0  1  0  0  0  0  0  0  0  0  0
    4.7052   -0.0701    0.9055 C   0  0  0  0  0  0  0  0  0  0  0  0
    5.4393   -2.3907    1.2338 C   0  0  0  0  0  0  0  0  0  0  0  0
    5.0425   -3.8375    1.5692 C   0  0  0  0  0  0  0  0  0  0  0  0
    3.5100   -4.1344    1.4775 C   0  0  2  0  0  0  0  0  0  0  0  0
    3.0081   -3.8006    0.0358 C   0  0  0  0  0  0  0  0  0  0  0  0
    2.8220   -3.1327    2.4697 C   0  0  1  0  0  0  0  0  0  0  0  0
    3.1301   -3.5194    3.9317 C   0  0  0  0  0  0  0  0  0  0  0  0
    2.6859   -4.9459    4.2247 C   0  0  0  0  0  0  0  0  0  0  0  0
    3.3883   -6.0345    3.3428 C   0  0  1  0  0  0  0  0  0  0  0  0
    2.9587   -7.5026    3.8151 C   0  0  2  0  0  0  0  0  0  0  0  0
    3.2068   -7.5373    5.3518 C   0  0  0  0  0  0  0  0  0  0  0  0
    3.8269   -8.6604    3.2291 C   0  0  0  0  0  0  0  0  0  0  0  0
    3.3510  -10.0799    3.6010 C   0  0  0  0  0  0  0  0  0  0  0  0
    1.8745  -10.2987    3.2360 C   0  0  1  0  0  0  0  0  0  0  0  0
    1.4666  -11.5798    3.6677 O   0  0  0  0  0  0  0  0  0  0  0  0
    0.9159   -9.2090    3.7956 C   0  0  0  0  0  0  0  0  0  0  0  0
   -0.4795   -9.4156    3.1679 C   0  0  0  0  0  0  0  0  0  0  0  0
    0.7206   -9.3805    5.3273 C   0  0  0  0  0  0  0  0  0  0  0  0
    1.4566   -7.7712    3.4230 C   0  0  2  0  0  0  0  0  0  0  0  0
    1.2473   -7.4373    1.9172 C   0  0  0  0  0  0  0  0  0  0  0  0
    1.7003   -6.0307    1.4931 C   0  0  0  0  0  0  0  0  0  0  0  0
    3.1834   -5.6774    1.8111 C   0  0  1  0  0  0  0  0  0  0  0  0
    4.1082   -6.5473    0.9065 C   0  0  0  0  0  0  0  0  0  0  0  0
    3.0922   -1.6311    2.0933 C   0  0  1  0  0  0  0  0  0  0  0  0
    0.9858    1.7650    1.0331 H   0  0  0  0  0  0  0  0  0  0  0  0
    1.9607    0.3046    0.4897 H   0  0  0  0  0  0  0  0  0  0  0  0
    0.6809    1.0445    4.3883 H   0  0  0  0  0  0  0  0  0  0  0  0
    0.5620    2.2846    3.1462 H   0  0  0  0  0  0  0  0  0  0  0  0
    2.0287    2.1630    4.1005 H   0  0  0  0  0  0  0  0  0  0  0  0
    1.8375   -1.0640    3.7779 H   0  0  0  0  0  0  0  0  0  0  0  0
    3.9159    0.8289    4.1395 H   0  0  0  0  0  0  0  0  0  0  0  0
    3.7617   -0.6932    4.9690 H   0  0  0  0  0  0  0  0  0  0  0  0
    5.8644   -0.0767    3.2027 H   0  0  0  0  0  0  0  0  0  0  0  0
    5.4719   -1.6476    3.8165 H   0  0  0  0  0  0  0  0  0  0  0  0
    4.2411   -0.2861   -0.0572 H   0  0  0  0  0  0  0  0  0  0  0  0
    5.7522    0.1715    0.7160 H   0  0  0  0  0  0  0  0  0  0  0  0
    4.2346    0.8262    1.3025 H   0  0  0  0  0  0  0  0  0  0  0  0
    5.4232   -2.2895    0.1486 H   0  0  0  0  0  0  0  0  0  0  0  0
    6.4831   -2.2469    1.5078 H   0  0  0  0  0  0  0  0  0  0  0  0
    5.6236   -4.4752    0.9063 H   0  0  0  0  0  0  0  0  0  0  0  0
    5.4279   -4.0692    2.5592 H   0  0  0  0  0  0  0  0  0  0  0  0
    1.9233   -3.7398   -0.0042 H   0  0  0  0  0  0  0  0  0  0  0  0
    3.3098   -4.5186   -0.7198 H   0  0  0  0  0  0  0  0  0  0  0  0
    3.3641   -2.8434   -0.3352 H   0  0  0  0  0  0  0  0  0  0  0  0
    1.7423   -3.2448    2.3665 H   0  0  0  0  0  0  0  0  0  0  0  0
    4.1815   -3.4135    4.1918 H   0  0  0  0  0  0  0  0  0  0  0  0
    2.5882   -2.8796    4.6255 H   0  0  0  0  0  0  0  0  0  0  0  0
    2.8886   -5.0837    5.2845 H   0  0  0  0  0  0  0  0  0  0  0  0
    1.6014   -5.0007    4.1226 H   0  0  0  0  0  0  0  0  0  0  0  0
    4.4587   -5.9466    3.5475 H   0  0  0  0  0  0  0  0  0  0  0  0
    3.3949   -8.5271    5.7524 H   0  0  0  0  0  0  0  0  0  0  0  0
    2.3700   -7.1212    5.9132 H   0  0  0  0  0  0  0  0  0  0  0  0
    4.1053   -6.9727    5.6139 H   0  0  0  0  0  0  0  0  0  0  0  0
    3.8047   -8.6678    2.1523 H   0  0  0  0  0  0  0  0  0  0  0  0
    4.8729   -8.5269    3.5044 H   0  0  0  0  0  0  0  0  0  0  0  0
    3.9495  -10.8028    3.0493 H   0  0  0  0  0  0  0  0  0  0  0  0
    3.5302  -10.3131    4.6455 H   0  0  0  0  0  0  0  0  0  0  0  0
    1.8032  -10.2996    2.1493 H   0  0  0  0  0  0  0  0  0  0  0  0
    1.5688  -11.6323    4.6077 H   0  0  0  0  0  0  0  0  0  0  0  0
   -1.1566   -8.5938    3.4135 H   0  0  0  0  0  0  0  0  0  0  0  0
   -0.9342  -10.3259    3.5466 H   0  0  0  0  0  0  0  0  0  0  0  0
   -0.4402   -9.5379    2.0848 H   0  0  0  0  0  0  0  0  0  0  0  0
    0.3371   -8.4709    5.7904 H   0  0  0  0  0  0  0  0  0  0  0  0
    1.6272   -9.6777    5.8451 H   0  0  0  0  0  0  0  0  0  0  0  0
    0.0030  -10.1708    5.5558 H   0  0  0  0  0  0  0  0  0  0  0  0
    0.8281   -7.0709    3.9754 H   0  0  0  0  0  0  0  0  0  0  0  0
    1.7190   -8.1875    1.2888 H   0  0  0  0  0  0  0  0  0  0  0  0
    0.1921   -7.4840    1.6622 H   0  0  0  0  0  0  0  0  0  0  0  0
    1.5177   -5.9419    0.4224 H   0  0  0  0  0  0  0  0  0  0  0  0
    1.0352   -5.3184    1.9749 H   0  0  0  0  0  0  0  0  0  0  0  0
    3.6141   -7.4300    0.5086 H   0  0  0  0  0  0  0  0  0  0  0  0
    5.0106   -6.8504    1.4367 H   0  0  0  0  0  0  0  0  0  0  0  0
    4.4586   -6.0528    0.0079 H   0  0  0  0  0  0  0  0  0  0  0  0
    2.5372   -1.4991    1.1727 H   0  0  0  0  0  0  0  0  0  0  0  0
  1  2  2  0
  1 32  1  0
  1 33  1  0
  2  3  1  0
  2  4  1  0
  3 34  1  0
  3 35  1  0
  3 36  1  0
  4 31  1  0
  4  5  1  0
  4 37  1  1
  5  6  1  0
  5 38  1  0
  5 39  1  0
  6  7  1  0
  6 40  1  0
  6 41  1  0
  7 31  1  0
  7  8  1  6
  7  9  1  0
  8 42  1  0
  8 43  1  0
  8 44  1  0
  9 10  1  0
  9 45  1  0
  9 46  1  0
 10 11  1  0
 10 47  1  0
 10 48  1  0
 11 29  1  0
 11 12  1  6
 11 13  1  0
 12 49  1  0
 12 50  1  0
 12 51  1  0
 13 14  1  0
 13 31  1  0
 13 52  1  1
 14 15  1  0
 14 53  1  0
 14 54  1  0
 15 16  1  0
 15 55  1  0
 15 56  1  0
 16 29  1  0
 16 17  1  0
 16 57  1  1
 17 26  1  0
 17 18  1  1
 17 19  1  0
 18 58  1  0
 18 59  1  0
 18 60  1  0
 19 20  1  0
 19 61  1  0
 19 62  1  0
 20 21  1  0
 20 63  1  0
 20 64  1  0
 21 22  1  0
 21 23  1  0
 21 65  1  6
 22 66  1  0
 23 24  1  0
 23 25  1  0
 23 26  1  0
 24 67  1  0
 24 68  1  0
 24 69  1  0
 25 70  1  0
 25 71  1  0
 25 72  1  0
 26 27  1  0
 26 73  1  1
 27 28  1  0
 27 74  1  0
 27 75  1  0
 28 29  1  0
 28 76  1  0
 28 77  1  0
 29 30  1  6
 30 78  1  0
 30 79  1  0
 30 80  1  0
 31 81  1  6
M  END
>  <i_m_ct_stereo_status>  (243) 
1

>  <s_m_source_file>  (243) 
/var/tmp/pbs.5076255.sched01/tmpnby3vxlc/96d7dj3887.sdf

>  <i_m_source_file_index>  (243) 
1

>  <i_lp_mmshare_version>  (243) 
48012

>  <i_f3d_flags>  (243) 
0

>  <s_epik_input>  (243) 
W0NIMl09QyhbQ0gzXSlbQ0BIXShbQ0gyXVtDSDJdMSlbQ0BASF0oW0NAQF0xMltDSDNdKVtDQEhdM1tDQEBdKFtDSDNdKShbQ0gyXVtDSDJdMilbQ0BAXTQoW0NIM10pW0NAQEhdKFtDSDJdW0NIMl0zKVtDQEBdNShbQ0gzXSlbQ0BASF0oW0NIMl1bQ0gyXTQpQyhbQ0gzXSkoW0NIM10pW0NASF0oW09IXSlbQ0gyXVtDSDJdNQ==

>  <s_epik_cmdline>  (243) 
J2VwaWtfcHl0aG9uJywgJy1waHQnLCAnMi4wJywgJy1waCcsICc3LjAnLCAnLXRuJywgJzgnLCAnLW1hJywgJzIwMCcsICctaW1hZScsICc8aW5maWxlLm1hZT4nLCAnLW9tYWUnLCAnPG91dGZpbGUubWFlPic=

>  <r_lp_tautomer_probability>  (243) 
1

>  <r_epik_Ionization_Penalty>  (243) 
3.18421e-06

>  <r_epik_Ionization_Penalty_Charging>  (243) 
0

>  <r_epik_Ionization_Penalty_Neutral>  (243) 
3.18421e-06

>  <r_epik_State_Penalty>  (243) 
-0

>  <r_epik_Charging_Adjusted_Penalty>  (243) 
0

>  <i_epik_Tot_Q>  (243) 
0

>  <i_epik_Tot_abs_Q>  (243) 
0

>  <s_lp_Force_Field>  (243) 
OPLS3e

>  <r_lp_Energy>  (243) 
103.055

>  <b_lp_Chiralities_Consistent>  (243) 
1

>  <s_lp_Variant>  (243) 
56:0-1

>  <s_i_glide_gridfile>  (243) 
pfpi4k_grid

>  <i_i_glide_lignum>  (243) 
1

>  <i_i_glide_rotatable_bonds>  (243) 
2

>  <r_i_docking_score>  (243) 
-2.5339

>  <r_i_glide_ligand_efficiency>  (243) 
-0.0817387

>  <r_i_glide_ligand_efficiency_sa>  (243) 
-0.256772

>  <r_i_glide_ligand_efficiency_ln>  (243) 
-0.571472

>  <r_i_glide_gscore>  (243) 
-2.5339

>  <r_i_glide_lipo>  (243) 
-0.574799

>  <r_i_glide_hbond>  (243) 
0

>  <r_i_glide_metal>  (243) 
-0

>  <r_i_glide_rewards>  (243) 
-0.499654

>  <r_i_glide_evdw>  (243) 
-30.2229

>  <r_i_glide_ecoul>  (243) 
-0.382065

>  <r_i_glide_erotb>  (243) 
0.109005

>  <r_i_glide_esite>  (243) 
0

>  <r_i_glide_emodel>  (243) 
-34.9999

>  <r_i_glide_energy>  (243) 
-30.6049

>  <r_i_glide_einternal>  (243) 
0.918797

>  <r_i_glide_intrahb_reward>  (243) 
-0

>  <i_i_glide_confnum>  (243) 
3

>  <i_i_glide_posenum>  (243) 
1

>  <r_i_glide_eff_state_penalty>  (243) 
0

>  <ligand_id>  (243) 
56

>  <original_smiles>  (243) 
C=C(C)C1CCC2(C)CCC3(C)C(CCC4C5(C)CCC(O)C(C)(C)C5CCC43C)C12

>  <smiles>  (243) 
[H]OC1([H])C([H])([H])C([H])([H])C2(C([H])([H])[H])C([H])(C([H])([H])C([H])([H])C3(C([H])([H])[H])C2([H])C([H])([H])C([H])([H])C2([H])C4([H])C([H])(C(=C([H])[H])C([H])([H])[H])C([H])([H])C([H])([H])C4(C([H])([H])[H])C([H])([H])C([H])([H])C23C([H])([H])[H])C1(C([H])([H])[H])C([H])([H])[H]

$$$$
57:0:0
     RDKit          3D

 81 89  0  0  1  0  0  0  0  0999 V2000
    3.6776    2.6997    4.5728 C   0  0  0  0  0  0  0  0  0  0  0  0
    3.5986    2.9212    5.9692 O   0  0  0  0  0  0  0  0  0  0  0  0
    2.4011    3.5697    6.3928 C   0  0  1  0  0  0  0  0  0  0  0  0
    2.6723    5.0652    6.0667 C   0  0  0  0  0  0  0  0  0  0  0  0
    2.1901    6.1164    7.1051 C   0  0  0  0  0  0  0  0  0  0  0  0
    0.7464    5.9305    7.5404 C   0  0  0  0  0  0  0  0  0  0  0  0
    0.2382    6.6145    8.4242 O   0  0  0  0  0  0  0  0  0  0  0  0
   -0.0425    4.8465    6.8263 C   0  0  1  0  0  0  0  0  0  0  0  0
    0.0349    5.1415    5.3989 O   0  0  0  0  0  0  0  0  0  0  0  0
   -0.2226    4.0625    4.5824 C   0  0  0  0  0  0  0  0  0  0  0  0
   -1.1581    4.1673    3.5266 C   0  0  0  0  0  0  0  0  0  0  0  0
   -1.3669    5.3416    2.8626 O   0  0  0  0  0  0  0  0  0  0  0  0
   -1.9578    3.0378    3.2358 C   0  0  0  0  0  0  0  0  0  0  0  0
   -2.0002    1.9838    4.1460 C   0  0  0  0  0  0  0  0  0  0  0  0
   -1.1099    1.9922    5.2508 C   0  0  0  0  0  0  0  0  0  0  0  0
    0.0409    2.7815    5.0635 C   0  0  0  0  0  0  0  0  0  0  0  0
    1.1378    2.6630    6.1319 C   0  0  1  0  0  0  0  0  0  0  0  0
    1.5425    1.2352    6.5925 C   0  0  0  0  0  0  0  0  0  0  0  0
    2.1370    1.6090    7.9771 C   0  0  1  0  0  0  0  0  0  0  0  0
    3.5208    1.1431    8.2729 N   0  0  0  0  0  0  0  0  0  0  0  0
    4.3131    2.0645    9.1129 C   0  0  0  0  0  0  0  0  0  0  0  0
    3.8615   -0.1600    8.0160 C   0  0  0  0  0  0  0  0  0  0  0  0
    3.0569   -0.9724    7.5701 O   0  0  0  0  0  0  0  0  0  0  0  0
    5.2493   -0.5345    8.2796 C   0  0  0  0  0  0  0  0  0  0  0  0
    6.0333   -1.2131    7.4026 C   0  0  0  0  0  0  0  0  0  0  0  0
    5.6855   -1.6572    6.0691 C   0  0  0  0  0  0  0  0  0  0  0  0
    5.0919   -0.8949    5.1320 C   0  0  0  0  0  0  0  0  0  0  0  0
    4.6552   -1.3218    3.7339 C   0  0  2  0  0  0  0  0  0  0  0  0
    3.1580   -0.9629    3.5098 C   0  0  0  0  0  0  0  0  0  0  0  0
    2.7244   -1.3327    2.0750 C   0  0  1  0  0  0  0  0  0  0  0  0
    3.5932   -0.5552    1.0619 C   0  0  0  0  0  0  0  0  0  0  0  0
    5.0767   -0.9317    1.2672 C   0  0  2  0  0  0  0  0  0  0  0  0
    5.2523   -2.4508    1.0583 C   0  0  0  0  0  0  0  0  0  0  0  0
    4.3769   -3.2162    2.0739 C   0  0  2  0  0  0  0  0  0  0  0  0
    2.8932   -2.8481    1.8622 C   0  0  0  0  0  0  0  0  0  0  0  0
    4.7993   -2.8439    3.5043 C   0  0  0  0  0  0  0  0  0  0  0  0
    5.5148   -0.5597    2.6969 C   0  0  0  0  0  0  0  0  0  0  0  0
    1.9152    3.1190    7.7972 C   0  0  2  0  0  0  0  0  0  0  0  0
    0.4603    3.4091    7.2524 C   0  0  1  0  0  0  0  0  0  0  0  0
   -0.7717    2.5766    7.7631 C   0  0  0  0  0  0  0  0  0  0  0  0
   -1.5349    1.7542    6.6585 C   0  0  0  0  0  0  0  0  0  0  0  0
   -2.4621    1.0025    6.9841 O   0  0  0  0  0  0  0  0  0  0  0  0
    4.5596    2.0848    4.4088 H   0  0  0  0  0  0  0  0  0  0  0  0
    3.7822    3.6114    3.9824 H   0  0  0  0  0  0  0  0  0  0  0  0
    2.8100    2.1525    4.1971 H   0  0  0  0  0  0  0  0  0  0  0  0
    3.7509    5.2109    6.0167 H   0  0  0  0  0  0  0  0  0  0  0  0
    2.3585    5.3263    5.0490 H   0  0  0  0  0  0  0  0  0  0  0  0
    2.8153    6.0441    7.9930 H   0  0  0  0  0  0  0  0  0  0  0  0
    2.3094    7.1223    6.6986 H   0  0  0  0  0  0  0  0  0  0  0  0
   -1.0892    4.9450    7.1230 H   0  0  0  0  0  0  0  0  0  0  0  0
   -0.8670    5.3033    2.0412 H   0  0  0  0  0  0  0  0  0  0  0  0
   -2.6953    3.1101    2.4521 H   0  0  0  0  0  0  0  0  0  0  0  0
   -2.8569    1.3524    4.0967 H   0  0  0  0  0  0  0  0  0  0  0  0
    0.7226    0.5217    6.7097 H   0  0  0  0  0  0  0  0  0  0  0  0
    2.2399    0.7721    5.8877 H   0  0  0  0  0  0  0  0  0  0  0  0
    1.5277    1.2223    8.7923 H   0  0  0  0  0  0  0  0  0  0  0  0
    5.3312    1.7569    9.3616 H   0  0  0  0  0  0  0  0  0  0  0  0
    3.7985    2.2384   10.0616 H   0  0  0  0  0  0  0  0  0  0  0  0
    4.4205    3.0273    8.6146 H   0  0  0  0  0  0  0  0  0  0  0  0
    5.7104   -0.2929    9.2231 H   0  0  0  0  0  0  0  0  0  0  0  0
    7.0337   -1.4470    7.7403 H   0  0  0  0  0  0  0  0  0  0  0  0
    5.9339   -2.6832    5.8565 H   0  0  0  0  0  0  0  0  0  0  0  0
    4.8963    0.1451    5.3705 H   0  0  0  0  0  0  0  0  0  0  0  0
    2.5256   -1.4793    4.2438 H   0  0  0  0  0  0  0  0  0  0  0  0
    2.9973    0.1103    3.6365 H   0  0  0  0  0  0  0  0  0  0  0  0
    1.6805   -1.0592    1.9312 H   0  0  0  0  0  0  0  0  0  0  0  0
    3.2780   -0.7842    0.0427 H   0  0  0  0  0  0  0  0  0  0  0  0
    3.4563    0.5194    1.1849 H   0  0  0  0  0  0  0  0  0  0  0  0
    5.6995   -0.3893    0.5533 H   0  0  0  0  0  0  0  0  0  0  0  0
    4.9644   -2.7237    0.0437 H   0  0  0  0  0  0  0  0  0  0  0  0
    6.2998   -2.7205    1.1835 H   0  0  0  0  0  0  0  0  0  0  0  0
    4.5084   -4.2909    1.9350 H   0  0  0  0  0  0  0  0  0  0  0  0
    2.2670   -3.3913    2.5729 H   0  0  0  0  0  0  0  0  0  0  0  0
    2.5657   -3.1345    0.8600 H   0  0  0  0  0  0  0  0  0  0  0  0
    5.8198   -3.1820    3.6448 H   0  0  0  0  0  0  0  0  0  0  0  0
    4.1844   -3.3895    4.2200 H   0  0  0  0  0  0  0  0  0  0  0  0
    5.4093    0.5137    2.8499 H   0  0  0  0  0  0  0  0  0  0  0  0
    6.5755   -0.7819    2.8315 H   0  0  0  0  0  0  0  0  0  0  0  0
    2.2278    3.7632    8.6236 H   0  0  0  0  0  0  0  0  0  0  0  0
   -0.4527    1.8257    8.4665 H   0  0  0  0  0  0  0  0  0  0  0  0
   -1.4765    3.2101    8.3017 H   0  0  0  0  0  0  0  0  0  0  0  0
  1  2  1  0
  1 43  1  0
  1 44  1  0
  1 45  1  0
  3  2  1  6
  3 17  1  0
  3 38  1  0
  3  4  1  0
  4  5  1  0
  4 46  1  0
  4 47  1  0
  5  6  1  0
  5 48  1  0
  5 49  1  0
  6  7  2  0
  6  8  1  0
  8 39  1  0
  8  9  1  0
  8 50  1  1
  9 10  1  0
 10 16  2  0
 10 11  1  0
 11 12  1  0
 11 13  2  0
 12 51  1  0
 13 14  1  0
 13 52  1  0
 14 15  2  0
 14 53  1  0
 15 41  1  0
 15 16  1  0
 16 17  1  0
 17 39  1  0
 17 18  1  1
 18 19  1  0
 18 54  1  0
 18 55  1  0
 19 20  1  0
 19 38  1  0
 19 56  1  1
 20 21  1  0
 20 22  1  0
 21 57  1  0
 21 58  1  0
 21 59  1  0
 22 23  2  0
 22 24  1  0
 24 25  2  3
 24 60  1  0
 25 26  1  0
 25 61  1  0
 26 27  2  3
 26 62  1  0
 28 27  1  1
 27 63  1  0
 28 36  1  0
 28 37  1  0
 28 29  1  0
 29 30  1  0
 29 64  1  0
 29 65  1  0
 30 35  1  0
 30 31  1  0
 30 66  1  1
 31 32  1  0
 31 67  1  0
 31 68  1  0
 32 33  1  0
 32 37  1  0
 32 69  1  6
 33 34  1  0
 33 70  1  0
 33 71  1  0
 34 35  1  0
 34 36  1  0
 34 72  1  1
 35 73  1  0
 35 74  1  0
 36 75  1  0
 36 76  1  0
 37 77  1  0
 37 78  1  0
 38 39  1  0
 38 79  1  1
 39 40  1  1
 40 41  1  0
 40 80  1  0
 40 81  1  0
 41 42  2  0
M  END
>  <i_m_ct_stereo_status>  (244) 
1

>  <s_m_source_file>  (244) 
/var/tmp/pbs.5076255.sched01/tmpnby3vxlc/96d7dj3887.sdf

>  <i_m_source_file_index>  (244) 
2

>  <i_lp_mmshare_version>  (244) 
48012

>  <i_f3d_flags>  (244) 
0

>  <s_epik_input>  (244) 
W09IXWMxW2NIXVtjSF1jKEMoPU8pW0NIMl0yKWMzYzFPW0NAQEhdKFtDQF0yNFtDQEBdMzU2KUMoPU8pW0NIMl1bQ0gyXVtDQEBdNShPW0NIM10pW0NAQEhdNFtDQEBIXShbQ0gyXTYpTihbQ0gzXSlDKD1PKS9bQ0hdPVtDSF1cW0NIXT1bQ0hdXEM3OFtDSDJdW0NAQEhdOVtDSDJdW0NASF0oW0NIMl04KVtDSDJdW0NAQEhdKFtDSDJdOSlbQ0gyXTc=

>  <s_epik_cmdline>  (244) 
J2VwaWtfcHl0aG9uJywgJy1waHQnLCAnMi4wJywgJy1waCcsICc3LjAnLCAnLXRuJywgJzgnLCAnLW1hJywgJzIwMCcsICctaW1hZScsICc8aW5maWxlLm1hZT4nLCAnLW9tYWUnLCAnPG91dGZpbGUubWFlPic=

>  <r_lp_tautomer_probability>  (244) 
0.99995

>  <r_epik_Ionization_Penalty>  (244) 
0.00349279

>  <r_epik_Ionization_Penalty_Charging>  (244) 
0

>  <r_epik_Ionization_Penalty_Neutral>  (244) 
0.00349279

>  <r_epik_State_Penalty>  (244) 
0.00247731

>  <r_epik_Charging_Adjusted_Penalty>  (244) 
0.00247731

>  <i_epik_Tot_Q>  (244) 
0

>  <i_epik_Tot_abs_Q>  (244) 
0

>  <s_lp_Force_Field>  (244) 
OPLS3e

>  <r_lp_Energy>  (244) 
185.941

>  <b_lp_Chiralities_Consistent>  (244) 
1

>  <s_lp_Variant>  (244) 
57:0-1

>  <s_i_glide_gridfile>  (244) 
pfpi4k_grid

>  <i_i_glide_lignum>  (244) 
2

>  <i_i_glide_rotatable_bonds>  (244) 
7

>  <r_i_docking_score>  (244) 
-3.01073

>  <r_i_glide_ligand_efficiency>  (244) 
-0.071684

>  <r_i_glide_ligand_efficiency_sa>  (244) 
-0.249175

>  <r_i_glide_ligand_efficiency_ln>  (244) 
-0.635487

>  <r_i_glide_gscore>  (244) 
-3.01073

>  <r_i_glide_lipo>  (244) 
-0.433461

>  <r_i_glide_hbond>  (244) 
-0.16

>  <r_i_glide_metal>  (244) 
-0

>  <r_i_glide_rewards>  (244) 
0

>  <r_i_glide_evdw>  (244) 
-20.6592

>  <r_i_glide_ecoul>  (244) 
-10.1939

>  <r_i_glide_erotb>  (244) 
0.167369

>  <r_i_glide_esite>  (244) 
-0.0225896

>  <r_i_glide_emodel>  (244) 
-29.9991

>  <r_i_glide_energy>  (244) 
-30.8531

>  <r_i_glide_einternal>  (244) 
12.8787

>  <r_i_glide_intrahb_reward>  (244) 
-0

>  <i_i_glide_confnum>  (244) 
2

>  <i_i_glide_posenum>  (244) 
4

>  <r_i_glide_eff_state_penalty>  (244) 
0

>  <ligand_id>  (244) 
57

>  <original_smiles>  (244) 
COC12CCC(=O)C3Oc4c(O)ccc5c4C14CC(N(C)C(=O)C=CC=CC16CC7CC(CC(C7)C1)C6)C2C34CC5=O

>  <smiles>  (244) 
[H]Oc1c([H])c([H])c2c3c1OC1([H])C(=O)C([H])([H])C([H])([H])C4(OC([H])([H])[H])C5([H])C([H])(N(C(=O)C([H])=C([H])C([H])=C([H])C67C([H])([H])C8([H])C([H])([H])C([H])(C([H])([H])C([H])(C8([H])[H])C6([H])[H])C7([H])[H])C([H])([H])[H])C([H])([H])C34C15C([H])([H])C2=O

$$$$
57:0:1
     RDKit          3D

 81 89  0  0  1  0  0  0  0  0999 V2000
    1.2648   -7.3654    1.3473 C   0  0  0  0  0  0  0  0  0  0  0  0
    1.0602   -7.7167    2.7036 O   0  0  0  0  0  0  0  0  0  0  0  0
    1.9685   -8.6615    3.2898 C   0  0  1  0  0  0  0  0  0  0  0  0
    1.5569  -10.0309    2.6762 C   0  0  0  0  0  0  0  0  0  0  0  0
    1.6067  -11.2630    3.6188 C   0  0  0  0  0  0  0  0  0  0  0  0
    2.9123  -11.3902    4.3979 C   0  0  0  0  0  0  0  0  0  0  0  0
    3.0999  -12.2617    5.2351 O   0  0  0  0  0  0  0  0  0  0  0  0
    3.9996  -10.3884    4.0775 C   0  0  1  0  0  0  0  0  0  0  0  0
    4.2365  -10.4679    2.6465 O   0  0  0  0  0  0  0  0  0  0  0  0
    4.8401   -9.3790    2.0969 C   0  0  0  0  0  0  0  0  0  0  0  0
    5.9983   -9.5067    1.3073 C   0  0  0  0  0  0  0  0  0  0  0  0
    6.2206  -10.6729    0.6159 O   0  0  0  0  0  0  0  0  0  0  0  0
    7.0021   -8.5416    1.3868 C   0  0  0  0  0  0  0  0  0  0  0  0
    6.9845   -7.6340    2.4696 C   0  0  0  0  0  0  0  0  0  0  0  0
    5.8371   -7.5966    3.2954 C   0  0  0  0  0  0  0  0  0  0  0  0
    4.6796   -8.1302    2.7145 C   0  0  0  0  0  0  0  0  0  0  0  0
    3.3696   -7.9617    3.4853 C   0  0  1  0  0  0  0  0  0  0  0  0
    3.0419   -6.5601    4.0822 C   0  0  0  0  0  0  0  0  0  0  0  0
    2.0804   -7.0288    5.1979 C   0  0  1  0  0  0  0  0  0  0  0  0
    0.7462   -6.3799    5.2537 N   0  0  0  0  0  0  0  0  0  0  0  0
   -0.4365   -7.2716    5.2786 C   0  0  0  0  0  0  0  0  0  0  0  0
    0.7400   -5.0339    5.5062 C   0  0  0  0  0  0  0  0  0  0  0  0
    1.7898   -4.3914    5.4716 O   0  0  0  0  0  0  0  0  0  0  0  0
   -0.5473   -4.4323    5.8994 C   0  0  0  0  0  0  0  0  0  0  0  0
   -0.8572   -3.1158    5.8685 C   0  0  0  0  0  0  0  0  0  0  0  0
   -0.0207   -2.0245    5.4349 C   0  0  0  0  0  0  0  0  0  0  0  0
    0.6493   -2.0068    4.2647 C   0  0  0  0  0  0  0  0  0  0  0  0
    1.6288   -0.9461    3.8075 C   0  0  2  0  0  0  0  0  0  0  0  0
    3.0078   -1.5872    3.4740 C   0  0  0  0  0  0  0  0  0  0  0  0
    3.9806   -0.5062    2.9553 C   0  0  1  0  0  0  0  0  0  0  0  0
    3.3958    0.1300    1.6752 C   0  0  0  0  0  0  0  0  0  0  0  0
    2.0344    0.7761    2.0063 C   0  0  2  0  0  0  0  0  0  0  0  0
    2.2272    1.8636    3.0818 C   0  0  0  0  0  0  0  0  0  0  0  0
    2.8141    1.2258    4.3582 C   0  0  2  0  0  0  0  0  0  0  0  0
    4.1727    0.5758    4.0406 C   0  0  0  0  0  0  0  0  0  0  0  0
    1.8574    0.1512    4.8840 C   0  0  0  0  0  0  0  0  0  0  0  0
    1.0646   -0.2972    2.5256 C   0  0  0  0  0  0  0  0  0  0  0  0
    2.1249   -8.4962    4.8214 C   0  0  2  0  0  0  0  0  0  0  0  0
    3.6164   -8.9553    4.6005 C   0  0  1  0  0  0  0  0  0  0  0  0
    4.7835   -8.4286    5.5250 C   0  0  0  0  0  0  0  0  0  0  0  0
    5.9327   -7.6506    4.7936 C   0  0  0  0  0  0  0  0  0  0  0  0
    6.8639   -7.1870    5.4405 O   0  0  0  0  0  0  0  0  0  0  0  0
    0.5067   -6.6354    1.0650 H   0  0  0  0  0  0  0  0  0  0  0  0
    1.1429   -8.2179    0.6888 H   0  0  0  0  0  0  0  0  0  0  0  0
    2.2351   -6.9051    1.1641 H   0  0  0  0  0  0  0  0  0  0  0  0
    0.5142   -9.9675    2.3644 H   0  0  0  0  0  0  0  0  0  0  0  0
    2.0809  -10.2240    1.7380 H   0  0  0  0  0  0  0  0  0  0  0  0
    0.7953  -11.1974    4.3436 H   0  0  0  0  0  0  0  0  0  0  0  0
    1.4439  -12.1756    3.0442 H   0  0  0  0  0  0  0  0  0  0  0  0
    4.9061  -10.7315    4.5769 H   0  0  0  0  0  0  0  0  0  0  0  0
    5.4327  -11.2261    0.5084 H   0  0  0  0  0  0  0  0  0  0  0  0
    7.8983   -8.6496    0.7927 H   0  0  0  0  0  0  0  0  0  0  0  0
    7.9111   -7.1773    2.7789 H   0  0  0  0  0  0  0  0  0  0  0  0
    3.8930   -6.0306    4.5033 H   0  0  0  0  0  0  0  0  0  0  0  0
    2.5933   -5.8887    3.3477 H   0  0  0  0  0  0  0  0  0  0  0  0
    2.5158   -6.8781    6.1849 H   0  0  0  0  0  0  0  0  0  0  0  0
   -1.4172   -6.7887    5.2442 H   0  0  0  0  0  0  0  0  0  0  0  0
   -0.3798   -7.9179    6.1571 H   0  0  0  0  0  0  0  0  0  0  0  0
   -0.4593   -7.9335    4.4200 H   0  0  0  0  0  0  0  0  0  0  0  0
   -1.3515   -5.0254    6.2859 H   0  0  0  0  0  0  0  0  0  0  0  0
   -1.8444   -2.8505    6.1978 H   0  0  0  0  0  0  0  0  0  0  0  0
    0.0561   -1.2096    6.1344 H   0  0  0  0  0  0  0  0  0  0  0  0
    0.5088   -2.8194    3.5687 H   0  0  0  0  0  0  0  0  0  0  0  0
    3.4264   -2.0769    4.3565 H   0  0  0  0  0  0  0  0  0  0  0  0
    2.8933   -2.3720    2.7245 H   0  0  0  0  0  0  0  0  0  0  0  0
    4.9436   -0.9610    2.7279 H   0  0  0  0  0  0  0  0  0  0  0  0
    4.0766    0.8797    1.2717 H   0  0  0  0  0  0  0  0  0  0  0  0
    3.2747   -0.6239    0.8964 H   0  0  0  0  0  0  0  0  0  0  0  0
    1.6050    1.2197    1.1100 H   0  0  0  0  0  0  0  0  0  0  0  0
    2.8980    2.6392    2.7109 H   0  0  0  0  0  0  0  0  0  0  0  0
    1.2736    2.3478    3.2963 H   0  0  0  0  0  0  0  0  0  0  0  0
    2.9405    1.9898    5.1235 H   0  0  0  0  0  0  0  0  0  0  0  0
    4.6062    0.1409    4.9422 H   0  0  0  0  0  0  0  0  0  0  0  0
    4.8680    1.3399    3.7005 H   0  0  0  0  0  0  0  0  0  0  0  0
    0.9198    0.6289    5.1651 H   0  0  0  0  0  0  0  0  0  0  0  0
    2.2819   -0.3011    5.7826 H   0  0  0  0  0  0  0  0  0  0  0  0
    0.9154   -1.0555    1.7559 H   0  0  0  0  0  0  0  0  0  0  0  0
    0.0861    0.1417    2.7236 H   0  0  0  0  0  0  0  0  0  0  0  0
    1.5236   -9.1716    5.4329 H   0  0  0  0  0  0  0  0  0  0  0  0
    4.4154   -7.7183    6.2573 H   0  0  0  0  0  0  0  0  0  0  0  0
    5.2292   -9.2318    6.1125 H   0  0  0  0  0  0  0  0  0  0  0  0
  1  2  1  0
  1 43  1  0
  1 44  1  0
  1 45  1  0
  3  2  1  6
  3 17  1  0
  3 38  1  0
  3  4  1  0
  4  5  1  0
  4 46  1  0
  4 47  1  0
  5  6  1  0
  5 48  1  0
  5 49  1  0
  6  7  2  0
  6  8  1  0
  8 39  1  0
  8  9  1  0
  8 50  1  1
  9 10  1  0
 10 16  2  0
 10 11  1  0
 11 12  1  0
 11 13  2  0
 12 51  1  0
 13 14  1  0
 13 52  1  0
 14 15  2  0
 14 53  1  0
 15 41  1  0
 15 16  1  0
 16 17  1  0
 17 39  1  0
 17 18  1  1
 18 19  1  0
 18 54  1  0
 18 55  1  0
 19 20  1  0
 19 38  1  0
 19 56  1  1
 20 21  1  0
 20 22  1  0
 21 57  1  0
 21 58  1  0
 21 59  1  0
 22 23  2  0
 22 24  1  0
 24 25  2  3
 24 60  1  0
 25 26  1  0
 25 61  1  0
 26 27  2  3
 26 62  1  0
 28 27  1  1
 27 63  1  0
 28 36  1  0
 28 37  1  0
 28 29  1  0
 29 30  1  0
 29 64  1  0
 29 65  1  0
 30 35  1  0
 30 31  1  0
 30 66  1  6
 31 32  1  0
 31 67  1  0
 31 68  1  0
 32 33  1  0
 32 37  1  0
 32 69  1  6
 33 34  1  0
 33 70  1  0
 33 71  1  0
 34 35  1  0
 34 36  1  0
 34 72  1  1
 35 73  1  0
 35 74  1  0
 36 75  1  0
 36 76  1  0
 37 77  1  0
 37 78  1  0
 38 39  1  0
 38 79  1  1
 39 40  1  1
 40 41  1  0
 40 80  1  0
 40 81  1  0
 41 42  2  0
M  END
>  <i_m_ct_stereo_status>  (245) 
1

>  <s_m_source_file>  (245) 
/var/tmp/pbs.5076255.sched01/tmpnby3vxlc/96d7dj3887.sdf

>  <i_m_source_file_index>  (245) 
2

>  <i_lp_mmshare_version>  (245) 
48012

>  <i_f3d_flags>  (245) 
0

>  <s_epik_input>  (245) 
W09IXWMxW2NIXVtjSF1jKEMoPU8pW0NIMl0yKWMzYzFPW0NAQEhdKFtDQF0yNFtDQEBdMzU2KUMoPU8pW0NIMl1bQ0gyXVtDQEBdNShPW0NIM10pW0NAQEhdNFtDQEBIXShbQ0gyXTYpTihbQ0gzXSlDKD1PKS9bQ0hdPVtDSF1cW0NIXT1bQ0hdXEM3OFtDSDJdW0NAQEhdOVtDSDJdW0NASF0oW0NIMl04KVtDSDJdW0NAQEhdKFtDSDJdOSlbQ0gyXTc=

>  <s_epik_cmdline>  (245) 
J2VwaWtfcHl0aG9uJywgJy1waHQnLCAnMi4wJywgJy1waCcsICc3LjAnLCAnLXRuJywgJzgnLCAnLW1hJywgJzIwMCcsICctaW1hZScsICc8aW5maWxlLm1hZT4nLCAnLW9tYWUnLCAnPG91dGZpbGUubWFlPic=

>  <r_lp_tautomer_probability>  (245) 
0.99995

>  <r_epik_Ionization_Penalty>  (245) 
0.00349279

>  <r_epik_Ionization_Penalty_Charging>  (245) 
0

>  <r_epik_Ionization_Penalty_Neutral>  (245) 
0.00349279

>  <r_epik_State_Penalty>  (245) 
0.00247731

>  <r_epik_Charging_Adjusted_Penalty>  (245) 
0.00247731

>  <i_epik_Tot_Q>  (245) 
0

>  <i_epik_Tot_abs_Q>  (245) 
0

>  <s_lp_Force_Field>  (245) 
OPLS3e

>  <r_lp_Energy>  (245) 
185.941

>  <b_lp_Chiralities_Consistent>  (245) 
1

>  <s_lp_Variant>  (245) 
57:0-1

>  <s_i_glide_gridfile>  (245) 
pfpi4k_grid

>  <i_i_glide_lignum>  (245) 
2

>  <i_i_glide_rotatable_bonds>  (245) 
7

>  <r_i_docking_score>  (245) 
-2.49546

>  <r_i_glide_ligand_efficiency>  (245) 
-0.0594158

>  <r_i_glide_ligand_efficiency_sa>  (245) 
-0.206531

>  <r_i_glide_ligand_efficiency_ln>  (245) 
-0.526728

>  <r_i_glide_gscore>  (245) 
-2.49546

>  <r_i_glide_lipo>  (245) 
-0.542034

>  <r_i_glide_hbond>  (245) 
0

>  <r_i_glide_metal>  (245) 
-0

>  <r_i_glide_rewards>  (245) 
0

>  <r_i_glide_evdw>  (245) 
-25.2778

>  <r_i_glide_ecoul>  (245) 
-5.50396

>  <r_i_glide_erotb>  (245) 
0.167369

>  <r_i_glide_esite>  (245) 
-0.0313139

>  <r_i_glide_emodel>  (245) 
-30.8461

>  <r_i_glide_energy>  (245) 
-30.7817

>  <r_i_glide_einternal>  (245) 
8.36803

>  <r_i_glide_intrahb_reward>  (245) 
-0

>  <i_i_glide_confnum>  (245) 
2

>  <i_i_glide_posenum>  (245) 
15

>  <r_i_glide_eff_state_penalty>  (245) 
0

>  <ligand_id>  (245) 
57

>  <original_smiles>  (245) 
COC12CCC(=O)C3Oc4c(O)ccc5c4C14CC(N(C)C(=O)C=CC=CC16CC7CC(CC(C7)C1)C6)C2C34CC5=O

>  <smiles>  (245) 
[H]Oc1c([H])c([H])c2c3c1OC1([H])C(=O)C([H])([H])C([H])([H])C4(OC([H])([H])[H])C5([H])C([H])(N(C(=O)C([H])=C([H])C([H])=C([H])C67C([H])([H])C8([H])C([H])([H])C([H])(C([H])([H])C([H])(C8([H])[H])C6([H])[H])C7([H])[H])C([H])([H])[H])C([H])([H])C34C15C([H])([H])C2=O

$$$$
57:0:2
     RDKit          3D

 81 89  0  0  1  0  0  0  0  0999 V2000
    1.0220   -8.1703    1.9161 C   0  0  0  0  0  0  0  0  0  0  0  0
    1.1937   -7.9771    3.2991 O   0  0  0  0  0  0  0  0  0  0  0  0
    2.2612   -8.6546    3.9881 C   0  0  1  0  0  0  0  0  0  0  0  0
    1.9717  -10.1820    3.8439 C   0  0  0  0  0  0  0  0  0  0  0  0
    2.3362  -11.0913    5.0438 C   0  0  0  0  0  0  0  0  0  0  0  0
    3.7437  -10.8626    5.5938 C   0  0  0  0  0  0  0  0  0  0  0  0
    4.1666  -11.4322    6.5986 O   0  0  0  0  0  0  0  0  0  0  0  0
    4.6085   -9.8754    4.8312 C   0  0  1  0  0  0  0  0  0  0  0  0
    4.6464  -10.3200    3.4428 O   0  0  0  0  0  0  0  0  0  0  0  0
    4.9984   -9.3483    2.5414 C   0  0  0  0  0  0  0  0  0  0  0  0
    6.0240   -9.5714    1.5934 C   0  0  0  0  0  0  0  0  0  0  0  0
    6.2499  -10.8207    1.0862 O   0  0  0  0  0  0  0  0  0  0  0  0
    6.9064   -8.5104    1.2875 C   0  0  0  0  0  0  0  0  0  0  0  0
    6.8888   -7.3508    2.0963 C   0  0  0  0  0  0  0  0  0  0  0  0
    5.8726   -7.2159    3.0695 C   0  0  0  0  0  0  0  0  0  0  0  0
    4.7359   -8.0119    2.8597 C   0  0  0  0  0  0  0  0  0  0  0  0
    3.5413   -7.7747    3.7757 C   0  0  1  0  0  0  0  0  0  0  0  0
    3.0747   -6.3032    4.0558 C   0  0  0  0  0  0  0  0  0  0  0  0
    2.3543   -6.5668    5.3943 C   0  0  1  0  0  0  0  0  0  0  0  0
    0.9507   -6.0780    5.5325 N   0  0  0  0  0  0  0  0  0  0  0  0
   -0.1464   -7.0754    5.6743 C   0  0  0  0  0  0  0  0  0  0  0  0
    0.7977   -4.7471    5.7694 C   0  0  0  0  0  0  0  0  0  0  0  0
    1.7613   -3.9871    5.6923 O   0  0  0  0  0  0  0  0  0  0  0  0
   -0.5410   -4.2937    6.1741 C   0  0  0  0  0  0  0  0  0  0  0  0
   -1.0336   -3.0433    6.0865 C   0  0  0  0  0  0  0  0  0  0  0  0
   -0.3648   -1.8663    5.5882 C   0  0  0  0  0  0  0  0  0  0  0  0
    0.3209   -1.8360    4.4282 C   0  0  0  0  0  0  0  0  0  0  0  0
    1.1257   -0.6741    3.8923 C   0  0  2  0  0  0  0  0  0  0  0  0
    0.6158   -0.3485    2.4716 C   0  0  0  0  0  0  0  0  0  0  0  0
    1.4137    0.8213    1.8762 C   0  0  1  0  0  0  0  0  0  0  0  0
    1.2350    2.0648    2.7706 C   0  0  0  0  0  0  0  0  0  0  0  0
    1.7731    1.7578    4.1836 C   0  0  2  0  0  0  0  0  0  0  0  0
    3.2645    1.3811    4.1012 C   0  0  0  0  0  0  0  0  0  0  0  0
    3.4319    0.1321    3.2087 C   0  0  2  0  0  0  0  0  0  0  0  0
    2.9080    0.4437    1.7925 C   0  0  0  0  0  0  0  0  0  0  0  0
    2.6301   -1.0522    3.7931 C   0  0  0  0  0  0  0  0  0  0  0  0
    0.9878    0.5864    4.7855 C   0  0  0  0  0  0  0  0  0  0  0  0
    2.5773   -8.0633    5.3871 C   0  0  2  0  0  0  0  0  0  0  0  0
    4.0848   -8.3939    5.0430 C   0  0  1  0  0  0  0  0  0  0  0  0
    5.2775   -7.4993    5.5851 C   0  0  0  0  0  0  0  0  0  0  0  0
    6.1749   -6.8359    4.4794 C   0  0  0  0  0  0  0  0  0  0  0  0
    7.1167   -6.1098    4.8107 O   0  0  0  0  0  0  0  0  0  0  0  0
    0.1337   -7.6197    1.6250 H   0  0  0  0  0  0  0  0  0  0  0  0
    0.8258   -9.2132    1.6783 H   0  0  0  0  0  0  0  0  0  0  0  0
    1.8478   -7.7946    1.3081 H   0  0  0  0  0  0  0  0  0  0  0  0
    0.8937  -10.3075    3.7393 H   0  0  0  0  0  0  0  0  0  0  0  0
    2.3618  -10.5798    2.9095 H   0  0  0  0  0  0  0  0  0  0  0  0
    1.6323  -10.9150    5.8567 H   0  0  0  0  0  0  0  0  0  0  0  0
    2.2252  -12.1390    4.7627 H   0  0  0  0  0  0  0  0  0  0  0  0
    5.6224   -9.9675    5.2307 H   0  0  0  0  0  0  0  0  0  0  0  0
    5.4628  -11.3608    0.9818 H   0  0  0  0  0  0  0  0  0  0  0  0
    7.7241   -8.6683    0.6051 H   0  0  0  0  0  0  0  0  0  0  0  0
    7.7530   -6.7078    2.1033 H   0  0  0  0  0  0  0  0  0  0  0  0
    3.8808   -5.5773    4.1767 H   0  0  0  0  0  0  0  0  0  0  0  0
    2.4256   -5.9071    3.2729 H   0  0  0  0  0  0  0  0  0  0  0  0
    2.9143   -6.1359    6.2233 H   0  0  0  0  0  0  0  0  0  0  0  0
   -1.1516   -6.6671    5.7002 H   0  0  0  0  0  0  0  0  0  0  0  0
    0.0234   -7.7149    6.5488 H   0  0  0  0  0  0  0  0  0  0  0  0
   -0.2791   -7.7368    4.8307 H   0  0  0  0  0  0  0  0  0  0  0  0
   -1.2523   -4.9613    6.6130 H   0  0  0  0  0  0  0  0  0  0  0  0
   -2.0538   -2.9071    6.4257 H   0  0  0  0  0  0  0  0  0  0  0  0
   -0.4197   -1.0011    6.2227 H   0  0  0  0  0  0  0  0  0  0  0  0
    0.3246   -2.7147    3.7997 H   0  0  0  0  0  0  0  0  0  0  0  0
    0.7117   -1.2239    1.8283 H   0  0  0  0  0  0  0  0  0  0  0  0
   -0.4425   -0.0945    2.5072 H   0  0  0  0  0  0  0  0  0  0  0  0
    1.0291    1.0259    0.8778 H   0  0  0  0  0  0  0  0  0  0  0  0
    1.7586    2.9193    2.3396 H   0  0  0  0  0  0  0  0  0  0  0  0
    0.1812    2.3406    2.8186 H   0  0  0  0  0  0  0  0  0  0  0  0
    1.6513    2.6310    4.8223 H   0  0  0  0  0  0  0  0  0  0  0  0
    3.8185    2.2200    3.6815 H   0  0  0  0  0  0  0  0  0  0  0  0
    3.6722    1.1996    5.0965 H   0  0  0  0  0  0  0  0  0  0  0  0
    4.4869   -0.1345    3.1555 H   0  0  0  0  0  0  0  0  0  0  0  0
    3.0478   -0.4158    1.1358 H   0  0  0  0  0  0  0  0  0  0  0  0
    3.4741    1.2640    1.3532 H   0  0  0  0  0  0  0  0  0  0  0  0
    3.0247   -1.3348    4.7718 H   0  0  0  0  0  0  0  0  0  0  0  0
    2.7554   -1.9288    3.1543 H   0  0  0  0  0  0  0  0  0  0  0  0
   -0.0623    0.8668    4.8792 H   0  0  0  0  0  0  0  0  0  0  0  0
    1.3603    0.3824    5.7920 H   0  0  0  0  0  0  0  0  0  0  0  0
    2.1754   -8.6050    6.2429 H   0  0  0  0  0  0  0  0  0  0  0  0
    4.9112   -6.6621    6.1709 H   0  0  0  0  0  0  0  0  0  0  0  0
    5.9231   -8.0526    6.2665 H   0  0  0  0  0  0  0  0  0  0  0  0
  1  2  1  0
  1 43  1  0
  1 44  1  0
  1 45  1  0
  3  2  1  6
  3 17  1  0
  3 38  1  0
  3  4  1  0
  4  5  1  0
  4 46  1  0
  4 47  1  0
  5  6  1  0
  5 48  1  0
  5 49  1  0
  6  7  2  0
  6  8  1  0
  8 39  1  0
  8  9  1  0
  8 50  1  1
  9 10  1  0
 10 16  2  0
 10 11  1  0
 11 12  1  0
 11 13  2  0
 12 51  1  0
 13 14  1  0
 13 52  1  0
 14 15  2  0
 14 53  1  0
 15 41  1  0
 15 16  1  0
 16 17  1  0
 17 39  1  0
 17 18  1  1
 18 19  1  0
 18 54  1  0
 18 55  1  0
 19 20  1  0
 19 38  1  0
 19 56  1  1
 20 21  1  0
 20 22  1  0
 21 57  1  0
 21 58  1  0
 21 59  1  0
 22 23  2  0
 22 24  1  0
 24 25  2  3
 24 60  1  0
 25 26  1  0
 25 61  1  0
 26 27  2  3
 26 62  1  0
 28 27  1  1
 27 63  1  0
 28 36  1  0
 28 37  1  0
 28 29  1  0
 29 30  1  0
 29 64  1  0
 29 65  1  0
 30 35  1  0
 30 31  1  0
 30 66  1  6
 31 32  1  0
 31 67  1  0
 31 68  1  0
 32 33  1  0
 32 37  1  0
 32 69  1  1
 33 34  1  0
 33 70  1  0
 33 71  1  0
 34 35  1  0
 34 36  1  0
 34 72  1  6
 35 73  1  0
 35 74  1  0
 36 75  1  0
 36 76  1  0
 37 77  1  0
 37 78  1  0
 38 39  1  0
 38 79  1  1
 39 40  1  1
 40 41  1  0
 40 80  1  0
 40 81  1  0
 41 42  2  0
M  END
>  <i_m_ct_stereo_status>  (246) 
1

>  <s_m_source_file>  (246) 
/var/tmp/pbs.5076255.sched01/tmpnby3vxlc/96d7dj3887.sdf

>  <i_m_source_file_index>  (246) 
2

>  <i_lp_mmshare_version>  (246) 
48012

>  <i_f3d_flags>  (246) 
0

>  <s_epik_input>  (246) 
W09IXWMxW2NIXVtjSF1jKEMoPU8pW0NIMl0yKWMzYzFPW0NAQEhdKFtDQF0yNFtDQEBdMzU2KUMoPU8pW0NIMl1bQ0gyXVtDQEBdNShPW0NIM10pW0NAQEhdNFtDQEBIXShbQ0gyXTYpTihbQ0gzXSlDKD1PKS9bQ0hdPVtDSF1cW0NIXT1bQ0hdXEM3OFtDSDJdW0NAQEhdOVtDSDJdW0NASF0oW0NIMl04KVtDSDJdW0NAQEhdKFtDSDJdOSlbQ0gyXTc=

>  <s_epik_cmdline>  (246) 
J2VwaWtfcHl0aG9uJywgJy1waHQnLCAnMi4wJywgJy1waCcsICc3LjAnLCAnLXRuJywgJzgnLCAnLW1hJywgJzIwMCcsICctaW1hZScsICc8aW5maWxlLm1hZT4nLCAnLW9tYWUnLCAnPG91dGZpbGUubWFlPic=

>  <r_lp_tautomer_probability>  (246) 
0.99995

>  <r_epik_Ionization_Penalty>  (246) 
0.00349279

>  <r_epik_Ionization_Penalty_Charging>  (246) 
0

>  <r_epik_Ionization_Penalty_Neutral>  (246) 
0.00349279

>  <r_epik_State_Penalty>  (246) 
0.00247731

>  <r_epik_Charging_Adjusted_Penalty>  (246) 
0.00247731

>  <i_epik_Tot_Q>  (246) 
0

>  <i_epik_Tot_abs_Q>  (246) 
0

>  <s_lp_Force_Field>  (246) 
OPLS3e

>  <r_lp_Energy>  (246) 
185.941

>  <b_lp_Chiralities_Consistent>  (246) 
1

>  <s_lp_Variant>  (246) 
57:0-1

>  <s_i_glide_gridfile>  (246) 
pfpi4k_grid

>  <i_i_glide_lignum>  (246) 
2

>  <i_i_glide_rotatable_bonds>  (246) 
7

>  <r_i_docking_score>  (246) 
-2.37593

>  <r_i_glide_ligand_efficiency>  (246) 
-0.0565698

>  <r_i_glide_ligand_efficiency_sa>  (246) 
-0.196638

>  <r_i_glide_ligand_efficiency_ln>  (246) 
-0.501498

>  <r_i_glide_gscore>  (246) 
-2.37593

>  <r_i_glide_lipo>  (246) 
-0.268692

>  <r_i_glide_hbond>  (246) 
0

>  <r_i_glide_metal>  (246) 
-0

>  <r_i_glide_rewards>  (246) 
0

>  <r_i_glide_evdw>  (246) 
-27.3232

>  <r_i_glide_ecoul>  (246) 
-5.74721

>  <r_i_glide_erotb>  (246) 
0.167369

>  <r_i_glide_esite>  (246) 
-0.0463685

>  <r_i_glide_emodel>  (246) 
-29.7962

>  <r_i_glide_energy>  (246) 
-33.0704

>  <r_i_glide_einternal>  (246) 
10.7941

>  <r_i_glide_intrahb_reward>  (246) 
-0

>  <i_i_glide_confnum>  (246) 
2

>  <i_i_glide_posenum>  (246) 
40

>  <r_i_glide_eff_state_penalty>  (246) 
0

>  <ligand_id>  (246) 
57

>  <original_smiles>  (246) 
COC12CCC(=O)C3Oc4c(O)ccc5c4C14CC(N(C)C(=O)C=CC=CC16CC7CC(CC(C7)C1)C6)C2C34CC5=O

>  <smiles>  (246) 
[H]Oc1c([H])c([H])c2c3c1OC1([H])C(=O)C([H])([H])C([H])([H])C4(OC([H])([H])[H])C5([H])C([H])(N(C(=O)C([H])=C([H])C([H])=C([H])C67C([H])([H])C8([H])C([H])([H])C([H])(C([H])([H])C([H])(C8([H])[H])C6([H])[H])C7([H])[H])C([H])([H])[H])C([H])([H])C34C15C([H])([H])C2=O

$$$$
57:2:0
     RDKit          3D

 81 89  0  0  1  0  0  0  0  0999 V2000
    0.6038    1.8642    7.5121 C   0  0  0  0  0  0  0  0  0  0  0  0
    1.4158    2.2899    6.4231 O   0  0  0  0  0  0  0  0  0  0  0  0
    2.4311    1.3742    5.9898 C   0  0  1  0  0  0  0  0  0  0  0  0
    3.5860    1.5839    7.0073 C   0  0  0  0  0  0  0  0  0  0  0  0
    5.0351    1.5671    6.4480 C   0  0  0  0  0  0  0  0  0  0  0  0
    5.3298    0.3895    5.5336 C   0  0  0  0  0  0  0  0  0  0  0  0
    6.3940    0.3053    4.9225 O   0  0  0  0  0  0  0  0  0  0  0  0
    4.2461   -0.6684    5.4096 C   0  0  1  0  0  0  0  0  0  0  0  0
    3.9161   -1.1068    6.7652 O   0  0  0  0  0  0  0  0  0  0  0  0
    2.6864   -1.7060    6.8918 C   0  0  0  0  0  0  0  0  0  0  0  0
    2.5427   -2.9586    7.5231 C   0  0  0  0  0  0  0  0  0  0  0  0
    3.4134   -3.3456    8.5002 O   0  0  0  0  0  0  0  0  0  0  0  0
    1.5863   -3.8691    7.0076 C   0  0  0  0  0  0  0  0  0  0  0  0
    1.0201   -3.6113    5.7503 C   0  0  0  0  0  0  0  0  0  0  0  0
    1.2622   -2.3642    5.1339 C   0  0  0  0  0  0  0  0  0  0  0  0
    1.6756   -1.3344    6.0163 C   0  0  0  0  0  0  0  0  0  0  0  0
    1.7795    0.0581    5.4008 C   0  0  1  0  0  0  0  0  0  0  0  0
    0.6126    0.5471    4.5115 C   0  0  0  0  0  0  0  0  0  0  0  0
    1.3856    1.6345    3.7076 C   0  0  1  0  0  0  0  0  0  0  0  0
    0.8059    3.0022    3.7251 N   0  0  0  0  0  0  0  0  0  0  0  0
    1.8254    4.0860    3.6368 C   0  0  0  0  0  0  0  0  0  0  0  0
   -0.5192    3.1520    3.5127 C   0  0  0  0  0  0  0  0  0  0  0  0
   -1.2784    2.1800    3.3977 O   0  0  0  0  0  0  0  0  0  0  0  0
   -1.0182    4.5286    3.4175 C   0  0  0  0  0  0  0  0  0  0  0  0
   -2.1521    4.9167    2.8258 C   0  0  0  0  0  0  0  0  0  0  0  0
   -3.2255    4.0846    2.2401 C   0  0  0  0  0  0  0  0  0  0  0  0
   -4.2263    4.5463    1.4591 C   0  0  0  0  0  0  0  0  0  0  0  0
   -4.5152    5.9789    0.9191 C   0  0  1  0  0  0  0  0  0  0  0  0
   -5.2190    5.8841   -0.4670 C   0  0  0  0  0  0  0  0  0  0  0  0
   -5.5810    7.2873   -0.9948 C   0  0  2  0  0  0  0  0  0  0  0  0
   -4.3133    8.1366   -1.1828 C   0  0  0  0  0  0  0  0  0  0  0  0
   -3.6631    8.2729    0.1869 C   0  0  1  0  0  0  0  0  0  0  0  0
   -4.5993    8.9371    1.2139 C   0  0  0  0  0  0  0  0  0  0  0  0
   -5.8637    8.0772    1.3825 C   0  0  1  0  0  0  0  0  0  0  0  0
   -6.5268    7.9536    0.0194 C   0  0  0  0  0  0  0  0  0  0  0  0
   -5.4990    6.6725    1.8877 C   0  0  0  0  0  0  0  0  0  0  0  0
   -3.2439    6.9165    0.7555 C   0  0  0  0  0  0  0  0  0  0  0  0
    2.7015    1.4300    4.4657 C   0  0  2  0  0  0  0  0  0  0  0  0
    3.0335   -0.1068    4.5805 C   0  0  1  0  0  0  0  0  0  0  0  0
    2.7229   -1.0929    3.3846 C   0  0  0  0  0  0  0  0  0  0  0  0
    1.7418   -2.2542    3.7430 C   0  0  0  0  0  0  0  0  0  0  0  0
    1.4566   -3.1055    2.8766 O   0  0  0  0  0  0  0  0  0  0  0  0
   -0.1677    2.6160    7.6724 H   0  0  0  0  0  0  0  0  0  0  0  0
    1.1584    1.7580    8.4425 H   0  0  0  0  0  0  0  0  0  0  0  0
    0.0751    0.9306    7.3257 H   0  0  0  0  0  0  0  0  0  0  0  0
    3.4816    2.5747    7.4462 H   0  0  0  0  0  0  0  0  0  0  0  0
    3.4868    0.9260    7.8752 H   0  0  0  0  0  0  0  0  0  0  0  0
    5.2037    2.4708    5.8610 H   0  0  0  0  0  0  0  0  0  0  0  0
    5.7569    1.5714    7.2653 H   0  0  0  0  0  0  0  0  0  0  0  0
    4.6688   -1.5210    4.8894 H   0  0  0  0  0  0  0  0  0  0  0  0
    3.3609   -4.2658    8.7040 H   0  0  0  0  0  0  0  0  0  0  0  0
    1.4960   -4.8500    7.4524 H   0  0  0  0  0  0  0  0  0  0  0  0
    0.6264   -4.4371    5.1752 H   0  0  0  0  0  0  0  0  0  0  0  0
    0.1756   -0.1836    3.8302 H   0  0  0  0  0  0  0  0  0  0  0  0
   -0.2121    0.9199    5.1232 H   0  0  0  0  0  0  0  0  0  0  0  0
    1.4885    1.3643    2.6497 H   0  0  0  0  0  0  0  0  0  0  0  0
    1.4583    5.0992    3.4677 H   0  0  0  0  0  0  0  0  0  0  0  0
    2.5562    3.8820    2.8400 H   0  0  0  0  0  0  0  0  0  0  0  0
    2.3890    4.1136    4.5734 H   0  0  0  0  0  0  0  0  0  0  0  0
   -0.4025    5.3199    3.8269 H   0  0  0  0  0  0  0  0  0  0  0  0
   -2.2352    5.9699    2.8335 H   0  0  0  0  0  0  0  0  0  0  0  0
   -3.2689    3.0010    2.4092 H   0  0  0  0  0  0  0  0  0  0  0  0
   -4.9655    3.8125    1.1537 H   0  0  0  0  0  0  0  0  0  0  0  0
   -4.5341    5.4697   -1.1980 H   0  0  0  0  0  0  0  0  0  0  0  0
   -6.1154    5.2605   -0.4303 H   0  0  0  0  0  0  0  0  0  0  0  0
   -6.0731    7.1809   -1.9695 H   0  0  0  0  0  0  0  0  0  0  0  0
   -3.6198    7.6370   -1.8612 H   0  0  0  0  0  0  0  0  0  0  0  0
   -4.5438    9.1229   -1.5880 H   0  0  0  0  0  0  0  0  0  0  0  0
   -2.7601    8.8426    0.0709 H   0  0  0  0  0  0  0  0  0  0  0  0
   -4.0921    9.0272    2.1779 H   0  0  0  0  0  0  0  0  0  0  0  0
   -4.8499    9.9457    0.8922 H   0  0  0  0  0  0  0  0  0  0  0  0
   -6.5784    8.5451    2.0672 H   0  0  0  0  0  0  0  0  0  0  0  0
   -6.8413    8.9459   -0.3011 H   0  0  0  0  0  0  0  0  0  0  0  0
   -7.3766    7.2937    0.1191 H   0  0  0  0  0  0  0  0  0  0  0  0
   -6.3994    6.0693    2.0328 H   0  0  0  0  0  0  0  0  0  0  0  0
   -4.9964    6.7715    2.8454 H   0  0  0  0  0  0  0  0  0  0  0  0
   -2.7865    7.2807    1.6190 H   0  0  0  0  0  0  0  0  0  0  0  0
   -2.5161    6.5145    0.0274 H   0  0  0  0  0  0  0  0  0  0  0  0
    3.5315    2.0587    4.1542 H   0  0  0  0  0  0  0  0  0  0  0  0
    2.2589   -0.5690    2.5572 H   0  0  0  0  0  0  0  0  0  0  0  0
    3.6446   -1.5142    2.9743 H   0  0  0  0  0  0  0  0  0  0  0  0
  1  2  1  0
  1 43  1  0
  1 44  1  0
  1 45  1  0
  3  2  1  1
  3 17  1  0
  3 38  1  0
  3  4  1  0
  4  5  1  0
  4 46  1  0
  4 47  1  0
  5  6  1  0
  5 48  1  0
  5 49  1  0
  6  7  2  0
  6  8  1  0
  8 39  1  0
  8  9  1  0
  8 50  1  6
  9 10  1  0
 10 16  2  0
 10 11  1  0
 11 12  1  0
 11 13  2  0
 12 51  1  0
 13 14  1  0
 13 52  1  0
 14 15  2  0
 14 53  1  0
 15 41  1  0
 15 16  1  0
 16 17  1  0
 17 39  1  0
 17 18  1  6
 18 19  1  0
 18 54  1  0
 18 55  1  0
 19 20  1  0
 19 38  1  0
 19 56  1  6
 20 21  1  0
 20 22  1  0
 21 57  1  0
 21 58  1  0
 21 59  1  0
 22 23  2  0
 22 24  1  0
 24 25  2  3
 24 60  1  0
 25 26  1  0
 25 61  1  0
 26 27  2  3
 26 62  1  0
 28 27  1  1
 27 63  1  0
 28 36  1  0
 28 37  1  0
 28 29  1  0
 29 30  1  0
 29 64  1  0
 29 65  1  0
 30 35  1  0
 30 31  1  0
 30 66  1  6
 31 32  1  0
 31 67  1  0
 31 68  1  0
 32 33  1  0
 32 37  1  0
 32 69  1  6
 33 34  1  0
 33 70  1  0
 33 71  1  0
 34 35  1  0
 34 36  1  0
 34 72  1  1
 35 73  1  0
 35 74  1  0
 36 75  1  0
 36 76  1  0
 37 77  1  0
 37 78  1  0
 38 39  1  0
 38 79  1  1
 39 40  1  6
 40 41  1  0
 40 80  1  0
 40 81  1  0
 41 42  2  0
M  END
>  <i_m_ct_stereo_status>  (247) 
1

>  <s_m_source_file>  (247) 
/var/tmp/pbs.5076255.sched01/tmpnby3vxlc/96d7dj3887.sdf

>  <i_m_source_file_index>  (247) 
4

>  <i_lp_mmshare_version>  (247) 
48012

>  <i_f3d_flags>  (247) 
0

>  <s_epik_input>  (247) 
W09IXWMxW2NIXVtjSF1jKEMoPU8pW0NIMl0yKWMzYzFPW0NAQEhdKFtDQF0yNFtDQEBdMzU2KUMoPU8pW0NIMl1bQ0gyXVtDQEBdNShPW0NIM10pW0NAQEhdNFtDQEBIXShbQ0gyXTYpTihbQ0gzXSlDKD1PKS9bQ0hdPVtDSF1cW0NIXT1bQ0hdXEM3OFtDSDJdW0NAQEhdOVtDSDJdW0NASF0oW0NIMl04KVtDSDJdW0NAQEhdKFtDSDJdOSlbQ0gyXTc=

>  <s_epik_cmdline>  (247) 
J2VwaWtfcHl0aG9uJywgJy1waHQnLCAnMi4wJywgJy1waCcsICc3LjAnLCAnLXRuJywgJzgnLCAnLW1hJywgJzIwMCcsICctaW1hZScsICc8aW5maWxlLm1hZT4nLCAnLW9tYWUnLCAnPG91dGZpbGUubWFlPic=

>  <r_lp_tautomer_probability>  (247) 
0.99995

>  <r_epik_Ionization_Penalty>  (247) 
0.00349279

>  <r_epik_Ionization_Penalty_Charging>  (247) 
0

>  <r_epik_Ionization_Penalty_Neutral>  (247) 
0.00349279

>  <r_epik_State_Penalty>  (247) 
0.00247731

>  <r_epik_Charging_Adjusted_Penalty>  (247) 
0.00247731

>  <i_epik_Tot_Q>  (247) 
0

>  <i_epik_Tot_abs_Q>  (247) 
0

>  <s_lp_Force_Field>  (247) 
OPLS3e

>  <r_lp_Energy>  (247) 
189.922

>  <b_lp_Chiralities_Consistent>  (247) 
1

>  <s_lp_Variant>  (247) 
57:0-3

>  <s_i_glide_gridfile>  (247) 
pfpi4k_grid

>  <i_i_glide_lignum>  (247) 
4

>  <i_i_glide_rotatable_bonds>  (247) 
7

>  <r_i_docking_score>  (247) 
-2.27832

>  <r_i_glide_ligand_efficiency>  (247) 
-0.0542458

>  <r_i_glide_ligand_efficiency_sa>  (247) 
-0.18856

>  <r_i_glide_ligand_efficiency_ln>  (247) 
-0.480895

>  <r_i_glide_gscore>  (247) 
-2.27832

>  <r_i_glide_lipo>  (247) 
-1.49646

>  <r_i_glide_hbond>  (247) 
0

>  <r_i_glide_metal>  (247) 
-0

>  <r_i_glide_rewards>  (247) 
-0.0970205

>  <r_i_glide_evdw>  (247) 
-20.775

>  <r_i_glide_ecoul>  (247) 
2.13578

>  <r_i_glide_erotb>  (247) 
0.167369

>  <r_i_glide_esite>  (247) 
-0.133832

>  <r_i_glide_emodel>  (247) 
-13.9556

>  <r_i_glide_energy>  (247) 
-18.6392

>  <r_i_glide_einternal>  (247) 
5.77227

>  <r_i_glide_intrahb_reward>  (247) 
-0

>  <i_i_glide_confnum>  (247) 
3

>  <i_i_glide_posenum>  (247) 
8

>  <r_i_glide_eff_state_penalty>  (247) 
0

>  <ligand_id>  (247) 
57

>  <original_smiles>  (247) 
COC12CCC(=O)C3Oc4c(O)ccc5c4C14CC(N(C)C(=O)C=CC=CC16CC7CC(CC(C7)C1)C6)C2C34CC5=O

>  <smiles>  (247) 
[H]Oc1c([H])c([H])c2c3c1OC1([H])C(=O)C([H])([H])C([H])([H])C4(OC([H])([H])[H])C5([H])C([H])(N(C(=O)C([H])=C([H])C([H])=C([H])C67C([H])([H])C8([H])C([H])([H])C([H])(C([H])([H])C([H])(C8([H])[H])C6([H])[H])C7([H])[H])C([H])([H])[H])C([H])([H])C34C15C([H])([H])C2=O

$$$$
57:3:0
     RDKit          3D

 81 89  0  0  1  0  0  0  0  0999 V2000
    3.1913    4.4802    2.7017 C   0  0  0  0  0  0  0  0  0  0  0  0
    3.3608    4.2580    4.1093 O   0  0  0  0  0  0  0  0  0  0  0  0
    2.2298    4.5052    4.9219 C   0  0  1  0  0  0  0  0  0  0  0  0
    1.9668    6.0294    4.7166 C   0  0  0  0  0  0  0  0  0  0  0  0
    1.5566    6.8443    5.9421 C   0  0  0  0  0  0  0  0  0  0  0  0
    0.4517    6.1960    6.7611 C   0  0  0  0  0  0  0  0  0  0  0  0
    0.0461    6.6982    7.8027 O   0  0  0  0  0  0  0  0  0  0  0  0
   -0.1812    4.9454    6.1872 C   0  0  1  0  0  0  0  0  0  0  0  0
   -0.6035    5.2724    4.8233 O   0  0  0  0  0  0  0  0  0  0  0  0
   -0.8010    4.1850    4.0170 C   0  0  0  0  0  0  0  0  0  0  0  0
   -1.9667    3.9813    3.2486 C   0  0  0  0  0  0  0  0  0  0  0  0
   -2.6961    5.0192    2.7601 O   0  0  0  0  0  0  0  0  0  0  0  0
   -2.5001    2.6958    3.1397 C   0  0  0  0  0  0  0  0  0  0  0  0
   -1.9822    1.6829    3.9670 C   0  0  0  0  0  0  0  0  0  0  0  0
   -0.8011    1.9199    4.6938 C   0  0  0  0  0  0  0  0  0  0  0  0
   -0.0659    3.0263    4.2697 C   0  0  0  0  0  0  0  0  0  0  0  0
    1.2775    3.2643    4.9321 C   0  0  1  0  0  0  0  0  0  0  0  0
    2.1867    2.0253    5.0742 C   0  0  0  0  0  0  0  0  0  0  0  0
    3.0372    2.5139    6.2851 C   0  0  1  0  0  0  0  0  0  0  0  0
    4.5055    2.4492    6.1792 N   0  0  0  0  0  0  0  0  0  0  0  0
    5.2425    3.5833    6.7417 C   0  0  0  0  0  0  0  0  0  0  0  0
    5.1955    1.3064    5.8193 C   0  0  0  0  0  0  0  0  0  0  0  0
    6.4091    1.2781    5.6702 O   0  0  0  0  0  0  0  0  0  0  0  0
    4.3403    0.1518    5.5566 C   0  0  0  0  0  0  0  0  0  0  0  0
    4.6423   -0.6074    4.4830 C   0  0  0  0  0  0  0  0  0  0  0  0
    3.7834   -1.7397    4.1178 C   0  0  0  0  0  0  0  0  0  0  0  0
    3.7836   -2.4828    2.9572 C   0  0  0  0  0  0  0  0  0  0  0  0
    4.5961   -2.3270    1.6410 C   0  0  2  0  0  0  0  0  0  0  0  0
    5.2869   -0.9381    1.5046 C   0  0  0  0  0  0  0  0  0  0  0  0
    6.0472   -0.8179    0.1712 C   0  0  1  0  0  0  0  0  0  0  0  0
    7.1737   -1.8656    0.2235 C   0  0  0  0  0  0  0  0  0  0  0  0
    6.5457   -3.2672    0.3057 C   0  0  2  0  0  0  0  0  0  0  0  0
    5.6262   -3.4875   -0.9130 C   0  0  0  0  0  0  0  0  0  0  0  0
    4.5038   -2.4333   -0.9095 C   0  0  2  0  0  0  0  0  0  0  0  0
    5.1253   -1.0268   -1.0264 C   0  0  0  0  0  0  0  0  0  0  0  0
    3.6732   -2.5593    0.4057 C   0  0  0  0  0  0  0  0  0  0  0  0
    5.7046   -3.4023    1.5972 C   0  0  0  0  0  0  0  0  0  0  0  0
    2.3617    3.9050    6.3483 C   0  0  2  0  0  0  0  0  0  0  0  0
    0.7987    3.7209    6.2796 C   0  0  1  0  0  0  0  0  0  0  0  0
    0.0699    2.5469    7.0337 C   0  0  0  0  0  0  0  0  0  0  0  0
   -0.7380    1.5585    6.1511 C   0  0  0  0  0  0  0  0  0  0  0  0
   -1.3079    0.6073    6.6874 O   0  0  0  0  0  0  0  0  0  0  0  0
    4.0741    4.2380    2.1394 H   0  0  0  0  0  0  0  0  0  0  0  0
    3.1371    5.5258    2.4323 H   0  0  0  0  0  0  0  0  0  0  0  0
    2.3897    3.9134    2.2282 H   0  0  0  0  0  0  0  0  0  0  0  0
    2.8998    6.5065    4.4188 H   0  0  0  0  0  0  0  0  0  0  0  0
    1.3112    6.1844    3.8581 H   0  0  0  0  0  0  0  0  0  0  0  0
    2.4251    6.9407    6.5928 H   0  0  0  0  0  0  0  0  0  0  0  0
    1.2622    7.8396    5.6172 H   0  0  0  0  0  0  0  0  0  0  0  0
   -1.0670    4.7260    6.7608 H   0  0  0  0  0  0  0  0  0  0  0  0
   -3.4258    4.7486    2.2111 H   0  0  0  0  0  0  0  0  0  0  0  0
   -3.4439    2.5429    2.6251 H   0  0  0  0  0  0  0  0  0  0  0  0
   -2.5769    0.8086    4.1520 H   0  0  0  0  0  0  0  0  0  0  0  0
    1.6499    1.1217    5.3413 H   0  0  0  0  0  0  0  0  0  0  0  0
    2.7445    1.8461    4.1507 H   0  0  0  0  0  0  0  0  0  0  0  0
    2.8397    1.9688    7.2078 H   0  0  0  0  0  0  0  0  0  0  0  0
    6.3238    3.4563    6.7526 H   0  0  0  0  0  0  0  0  0  0  0  0
    4.9312    3.7433    7.7765 H   0  0  0  0  0  0  0  0  0  0  0  0
    5.0531    4.5100    6.1974 H   0  0  0  0  0  0  0  0  0  0  0  0
    3.4508   -0.0529    6.1892 H   0  0  0  0  0  0  0  0  0  0  0  0
    5.5399   -0.3471    3.9004 H   0  0  0  0  0  0  0  0  0  0  0  0
    3.0334   -2.0855    4.8298 H   0  0  0  0  0  0  0  0  0  0  0  0
    3.1187   -3.3256    2.9107 H   0  0  0  0  0  0  0  0  0  0  0  0
    4.5362   -0.1413    1.5669 H   0  0  0  0  0  0  0  0  0  0  0  0
    6.0728   -0.8101    2.2011 H   0  0  0  0  0  0  0  0  0  0  0  0
    6.4700    0.1803    0.1641 H   0  0  0  0  0  0  0  0  0  0  0  0
    7.8513   -1.8012   -0.6309 H   0  0  0  0  0  0  0  0  0  0  0  0
    7.7890   -1.6779    1.1019 H   0  0  0  0  0  0  0  0  0  0  0  0
    7.3426   -4.0110    0.3139 H   0  0  0  0  0  0  0  0  0  0  0  0
    6.2028   -3.4212   -1.8333 H   0  0  0  0  0  0  0  0  0  0  0  0
    5.1945   -4.4813   -0.8641 H   0  0  0  0  0  0  0  0  0  0  0  0
    3.8520   -2.5810   -1.7706 H   0  0  0  0  0  0  0  0  0  0  0  0
    4.3362   -0.2690   -0.9971 H   0  0  0  0  0  0  0  0  0  0  0  0
    5.6952   -0.8943   -1.9555 H   0  0  0  0  0  0  0  0  0  0  0  0
    3.2031   -3.5448    0.4371 H   0  0  0  0  0  0  0  0  0  0  0  0
    2.8627   -1.8258    0.3997 H   0  0  0  0  0  0  0  0  0  0  0  0
    6.3609   -3.2834    2.4557 H   0  0  0  0  0  0  0  0  0  0  0  0
    5.2970   -4.4157    1.6657 H   0  0  0  0  0  0  0  0  0  0  0  0
    2.7207    4.5872    7.0962 H   0  0  0  0  0  0  0  0  0  0  0  0
    0.7926    1.9112    7.5213 H   0  0  0  0  0  0  0  0  0  0  0  0
   -0.5701    2.9205    7.8405 H   0  0  0  0  0  0  0  0  0  0  0  0
  1  2  1  0
  1 43  1  0
  1 44  1  0
  1 45  1  0
  3  2  1  6
  3 17  1  0
  3 38  1  0
  3  4  1  0
  4  5  1  0
  4 46  1  0
  4 47  1  0
  5  6  1  0
  5 48  1  0
  5 49  1  0
  6  7  2  0
  6  8  1  0
  8 39  1  0
  8  9  1  0
  8 50  1  1
  9 10  1  0
 10 16  2  0
 10 11  1  0
 11 12  1  0
 11 13  2  0
 12 51  1  0
 13 14  1  0
 13 52  1  0
 14 15  2  0
 14 53  1  0
 15 41  1  0
 15 16  1  0
 16 17  1  0
 17 39  1  0
 17 18  1  1
 18 19  1  0
 18 54  1  0
 18 55  1  0
 19 20  1  0
 19 38  1  0
 19 56  1  1
 20 21  1  0
 20 22  1  0
 21 57  1  0
 21 58  1  0
 21 59  1  0
 22 23  2  0
 22 24  1  0
 24 25  2  3
 24 60  1  0
 25 26  1  0
 25 61  1  0
 26 27  2  3
 26 62  1  0
 28 27  1  1
 27 63  1  0
 28 36  1  0
 28 37  1  0
 28 29  1  0
 29 30  1  0
 29 64  1  0
 29 65  1  0
 30 35  1  0
 30 31  1  0
 30 66  1  6
 31 32  1  0
 31 67  1  0
 31 68  1  0
 32 33  1  0
 32 37  1  0
 32 69  1  1
 33 34  1  0
 33 70  1  0
 33 71  1  0
 34 35  1  0
 34 36  1  0
 34 72  1  6
 35 73  1  0
 35 74  1  0
 36 75  1  0
 36 76  1  0
 37 77  1  0
 37 78  1  0
 38 39  1  0
 38 79  1  1
 39 40  1  1
 40 41  1  0
 40 80  1  0
 40 81  1  0
 41 42  2  0
M  END
>  <i_m_ct_stereo_status>  (248) 
1

>  <s_m_source_file>  (248) 
/var/tmp/pbs.5076255.sched01/tmpnby3vxlc/96d7dj3887.sdf

>  <i_m_source_file_index>  (248) 
5

>  <i_lp_mmshare_version>  (248) 
48012

>  <i_f3d_flags>  (248) 
0

>  <s_epik_input>  (248) 
W09IXWMxW2NIXVtjSF1jKEMoPU8pW0NIMl0yKWMzYzFPW0NAQEhdKFtDQF0yNFtDQEBdMzU2KUMoPU8pW0NIMl1bQ0gyXVtDQEBdNShPW0NIM10pW0NAQEhdNFtDQEBIXShbQ0gyXTYpTihbQ0gzXSlDKD1PKS9bQ0hdPVtDSF1cW0NIXT1bQ0hdXEM3OFtDSDJdW0NAQEhdOVtDSDJdW0NASF0oW0NIMl04KVtDSDJdW0NAQEhdKFtDSDJdOSlbQ0gyXTc=

>  <s_epik_cmdline>  (248) 
J2VwaWtfcHl0aG9uJywgJy1waHQnLCAnMi4wJywgJy1waCcsICc3LjAnLCAnLXRuJywgJzgnLCAnLW1hJywgJzIwMCcsICctaW1hZScsICc8aW5maWxlLm1hZT4nLCAnLW9tYWUnLCAnPG91dGZpbGUubWFlPic=

>  <r_lp_tautomer_probability>  (248) 
0.99995

>  <r_epik_Ionization_Penalty>  (248) 
0.00349279

>  <r_epik_Ionization_Penalty_Charging>  (248) 
0

>  <r_epik_Ionization_Penalty_Neutral>  (248) 
0.00349279

>  <r_epik_State_Penalty>  (248) 
0.00247731

>  <r_epik_Charging_Adjusted_Penalty>  (248) 
0.00247731

>  <i_epik_Tot_Q>  (248) 
0

>  <i_epik_Tot_abs_Q>  (248) 
0

>  <s_lp_Force_Field>  (248) 
OPLS3e

>  <r_lp_Energy>  (248) 
186.459

>  <b_lp_Chiralities_Consistent>  (248) 
1

>  <s_lp_Variant>  (248) 
57:0-4

>  <s_i_glide_gridfile>  (248) 
pfpi4k_grid

>  <i_i_glide_lignum>  (248) 
5

>  <i_i_glide_rotatable_bonds>  (248) 
7

>  <r_i_docking_score>  (248) 
-2.90585

>  <r_i_glide_ligand_efficiency>  (248) 
-0.069187

>  <r_i_glide_ligand_efficiency_sa>  (248) 
-0.240496

>  <r_i_glide_ligand_efficiency_ln>  (248) 
-0.613351

>  <r_i_glide_gscore>  (248) 
-2.90585

>  <r_i_glide_lipo>  (248) 
-0.631386

>  <r_i_glide_hbond>  (248) 
-0.146531

>  <r_i_glide_metal>  (248) 
-0

>  <r_i_glide_rewards>  (248) 
-0.0248655

>  <r_i_glide_evdw>  (248) 
-22.1632

>  <r_i_glide_ecoul>  (248) 
-7.61787

>  <r_i_glide_erotb>  (248) 
0.167369

>  <r_i_glide_esite>  (248) 
-0.0196004

>  <r_i_glide_emodel>  (248) 
-31.2465

>  <r_i_glide_energy>  (248) 
-29.781

>  <r_i_glide_einternal>  (248) 
5.0933

>  <r_i_glide_intrahb_reward>  (248) 
-0

>  <i_i_glide_confnum>  (248) 
3

>  <i_i_glide_posenum>  (248) 
39

>  <r_i_glide_eff_state_penalty>  (248) 
0

>  <ligand_id>  (248) 
57

>  <original_smiles>  (248) 
COC12CCC(=O)C3Oc4c(O)ccc5c4C14CC(N(C)C(=O)C=CC=CC16CC7CC(CC(C7)C1)C6)C2C34CC5=O

>  <smiles>  (248) 
[H]Oc1c([H])c([H])c2c3c1OC1([H])C(=O)C([H])([H])C([H])([H])C4(OC([H])([H])[H])C5([H])C([H])(N(C(=O)C([H])=C([H])C([H])=C([H])C67C([H])([H])C8([H])C([H])([H])C([H])(C([H])([H])C([H])(C8([H])[H])C6([H])[H])C7([H])[H])C([H])([H])[H])C([H])([H])C34C15C([H])([H])C2=O

$$$$
57:3:1
     RDKit          3D

 81 89  0  0  1  0  0  0  0  0999 V2000
    2.2171   -5.2489    7.1987 C   0  0  0  0  0  0  0  0  0  0  0  0
    3.2842   -5.0721    6.2679 O   0  0  0  0  0  0  0  0  0  0  0  0
    3.5197   -6.0746    5.2824 C   0  0  1  0  0  0  0  0  0  0  0  0
    4.1315   -7.2619    6.0879 C   0  0  0  0  0  0  0  0  0  0  0  0
    5.2566   -8.0608    5.3994 C   0  0  0  0  0  0  0  0  0  0  0  0
    4.9455   -8.4746    3.9615 C   0  0  0  0  0  0  0  0  0  0  0  0
    5.7860   -9.0245    3.2537 O   0  0  0  0  0  0  0  0  0  0  0  0
    3.5473   -8.1710    3.4612 C   0  0  1  0  0  0  0  0  0  0  0  0
    2.6288   -8.7579    4.4142 O   0  0  0  0  0  0  0  0  0  0  0  0
    1.3554   -8.2319    4.3788 C   0  0  0  0  0  0  0  0  0  0  0  0
    0.2133   -9.0547    4.2770 C   0  0  0  0  0  0  0  0  0  0  0  0
    0.2230  -10.3213    4.7841 O   0  0  0  0  0  0  0  0  0  0  0  0
   -0.8861   -8.6091    3.5080 C   0  0  0  0  0  0  0  0  0  0  0  0
   -0.7066   -7.4999    2.6496 C   0  0  0  0  0  0  0  0  0  0  0  0
    0.4804   -6.7459    2.7654 C   0  0  0  0  0  0  0  0  0  0  0  0
    1.1769   -6.9095    3.9663 C   0  0  0  0  0  0  0  0  0  0  0  0
    2.3711   -5.9910    4.2113 C   0  0  1  0  0  0  0  0  0  0  0  0
    2.2129   -4.4680    3.9007 C   0  0  0  0  0  0  0  0  0  0  0  0
    3.7121   -4.1432    3.6666 C   0  0  1  0  0  0  0  0  0  0  0  0
    4.2864   -2.9971    4.4179 N   0  0  0  0  0  0  0  0  0  0  0  0
    5.4732   -3.2605    5.2553 C   0  0  0  0  0  0  0  0  0  0  0  0
    3.8836   -1.7021    4.2448 C   0  0  0  0  0  0  0  0  0  0  0  0
    4.4290   -0.7642    4.8367 O   0  0  0  0  0  0  0  0  0  0  0  0
    2.7651   -1.5157    3.3141 C   0  0  0  0  0  0  0  0  0  0  0  0
    1.9399   -0.4623    3.4111 C   0  0  0  0  0  0  0  0  0  0  0  0
    0.8301   -0.2702    2.4814 C   0  0  0  0  0  0  0  0  0  0  0  0
   -0.1104    0.6981    2.5085 C   0  0  0  0  0  0  0  0  0  0  0  0
   -0.2839    1.8403    3.5106 C   0  0  2  0  0  0  0  0  0  0  0  0
   -0.5586    1.2975    4.9407 C   0  0  0  0  0  0  0  0  0  0  0  0
   -0.7453    2.4678    5.9287 C   0  0  1  0  0  0  0  0  0  0  0  0
    0.5272    3.3393    5.9346 C   0  0  0  0  0  0  0  0  0  0  0  0
    0.7532    3.9267    4.5243 C   0  0  2  0  0  0  0  0  0  0  0  0
   -0.4578    4.7694    4.0891 C   0  0  0  0  0  0  0  0  0  0  0  0
   -1.7139    3.8781    4.0903 C   0  0  2  0  0  0  0  0  0  0  0  0
   -1.9575    3.3206    5.5057 C   0  0  0  0  0  0  0  0  0  0  0  0
   -1.5139    2.7057    3.1030 C   0  0  0  0  0  0  0  0  0  0  0  0
    0.9561    2.7828    3.5179 C   0  0  0  0  0  0  0  0  0  0  0  0
    4.2157   -5.5400    4.0111 C   0  0  2  0  0  0  0  0  0  0  0  0
    3.3557   -6.6167    3.2460 C   0  0  1  0  0  0  0  0  0  0  0  0
    2.8638   -6.3832    1.7654 C   0  0  0  0  0  0  0  0  0  0  0  0
    1.3115   -6.4401    1.5602 C   0  0  0  0  0  0  0  0  0  0  0  0
    0.8353   -6.2531    0.4518 O   0  0  0  0  0  0  0  0  0  0  0  0
    2.1681   -4.3669    7.8337 H   0  0  0  0  0  0  0  0  0  0  0  0
    2.3799   -6.0962    7.8576 H   0  0  0  0  0  0  0  0  0  0  0  0
    1.2499   -5.3391    6.7123 H   0  0  0  0  0  0  0  0  0  0  0  0
    4.5959   -6.8548    6.9886 H   0  0  0  0  0  0  0  0  0  0  0  0
    3.3534   -7.9131    6.4859 H   0  0  0  0  0  0  0  0  0  0  0  0
    6.1648   -7.4545    5.3618 H   0  0  0  0  0  0  0  0  0  0  0  0
    5.4925   -8.9506    5.9855 H   0  0  0  0  0  0  0  0  0  0  0  0
    3.4112   -8.6930    2.5157 H   0  0  0  0  0  0  0  0  0  0  0  0
   -0.6717  -10.6381    4.8765 H   0  0  0  0  0  0  0  0  0  0  0  0
   -1.7455   -9.2609    3.3789 H   0  0  0  0  0  0  0  0  0  0  0  0
   -1.3528   -7.4071    1.7971 H   0  0  0  0  0  0  0  0  0  0  0  0
    1.6317   -4.2544    3.0099 H   0  0  0  0  0  0  0  0  0  0  0  0
    1.7646   -3.9053    4.7255 H   0  0  0  0  0  0  0  0  0  0  0  0
    3.9451   -3.9280    2.6261 H   0  0  0  0  0  0  0  0  0  0  0  0
    5.9493   -2.3792    5.6873 H   0  0  0  0  0  0  0  0  0  0  0  0
    6.2196   -3.7835    4.6662 H   0  0  0  0  0  0  0  0  0  0  0  0
    5.2856   -3.8986    6.1122 H   0  0  0  0  0  0  0  0  0  0  0  0
    2.5481   -2.2050    2.5127 H   0  0  0  0  0  0  0  0  0  0  0  0
    2.1399    0.2339    4.2109 H   0  0  0  0  0  0  0  0  0  0  0  0
    0.7518   -0.9748    1.6665 H   0  0  0  0  0  0  0  0  0  0  0  0
   -0.8497    0.6835    1.7176 H   0  0  0  0  0  0  0  0  0  0  0  0
   -1.4461    0.6619    4.9385 H   0  0  0  0  0  0  0  0  0  0  0  0
    0.2585    0.6741    5.2942 H   0  0  0  0  0  0  0  0  0  0  0  0
   -0.9140    2.0670    6.9277 H   0  0  0  0  0  0  0  0  0  0  0  0
    0.4420    4.1395    6.6718 H   0  0  0  0  0  0  0  0  0  0  0  0
    1.3865    2.7348    6.2296 H   0  0  0  0  0  0  0  0  0  0  0  0
    1.6482    4.5475    4.5309 H   0  0  0  0  0  0  0  0  0  0  0  0
   -0.5819    5.6233    4.7558 H   0  0  0  0  0  0  0  0  0  0  0  0
   -0.2799    5.1684    3.0887 H   0  0  0  0  0  0  0  0  0  0  0  0
   -2.5741    4.4662    3.7766 H   0  0  0  0  0  0  0  0  0  0  0  0
   -2.8651    2.7177    5.5201 H   0  0  0  0  0  0  0  0  0  0  0  0
   -2.1121    4.1323    6.2173 H   0  0  0  0  0  0  0  0  0  0  0  0
   -1.3829    3.0986    2.0935 H   0  0  0  0  0  0  0  0  0  0  0  0
   -2.4251    2.1059    3.0710 H   0  0  0  0  0  0  0  0  0  0  0  0
    1.8764    2.2864    3.8018 H   0  0  0  0  0  0  0  0  0  0  0  0
    1.1368    3.1758    2.5158 H   0  0  0  0  0  0  0  0  0  0  0  0
    5.2767   -5.7094    3.9531 H   0  0  0  0  0  0  0  0  0  0  0  0
    3.1513   -5.3927    1.4086 H   0  0  0  0  0  0  0  0  0  0  0  0
    3.3325   -7.0679    1.0542 H   0  0  0  0  0  0  0  0  0  0  0  0
  1  2  1  0
  1 43  1  0
  1 44  1  0
  1 45  1  0
  3  2  1  1
  3 17  1  0
  3 38  1  0
  3  4  1  0
  4  5  1  0
  4 46  1  0
  4 47  1  0
  5  6  1  0
  5 48  1  0
  5 49  1  0
  6  7  2  0
  6  8  1  0
  8 39  1  0
  8  9  1  0
  8 50  1  6
  9 10  1  0
 10 16  2  0
 10 11  1  0
 11 12  1  0
 11 13  2  0
 12 51  1  0
 13 14  1  0
 13 52  1  0
 14 15  2  0
 14 53  1  0
 15 41  1  0
 15 16  1  0
 16 17  1  0
 17 39  1  0
 17 18  1  6
 18 19  1  0
 18 54  1  0
 18 55  1  0
 19 20  1  0
 19 38  1  0
 19 56  1  6
 20 21  1  0
 20 22  1  0
 21 57  1  0
 21 58  1  0
 21 59  1  0
 22 23  2  0
 22 24  1  0
 24 25  2  3
 24 60  1  0
 25 26  1  0
 25 61  1  0
 26 27  2  3
 26 62  1  0
 28 27  1  6
 27 63  1  0
 28 36  1  0
 28 37  1  0
 28 29  1  0
 29 30  1  0
 29 64  1  0
 29 65  1  0
 30 35  1  0
 30 31  1  0
 30 66  1  1
 31 32  1  0
 31 67  1  0
 31 68  1  0
 32 33  1  0
 32 37  1  0
 32 69  1  1
 33 34  1  0
 33 70  1  0
 33 71  1  0
 34 35  1  0
 34 36  1  0
 34 72  1  6
 35 73  1  0
 35 74  1  0
 36 75  1  0
 36 76  1  0
 37 77  1  0
 37 78  1  0
 38 39  1  0
 38 79  1  1
 39 40  1  6
 40 41  1  0
 40 80  1  0
 40 81  1  0
 41 42  2  0
M  END
>  <i_m_ct_stereo_status>  (249) 
1

>  <s_m_source_file>  (249) 
/var/tmp/pbs.5076255.sched01/tmpnby3vxlc/96d7dj3887.sdf

>  <i_m_source_file_index>  (249) 
5

>  <i_lp_mmshare_version>  (249) 
48012

>  <i_f3d_flags>  (249) 
0

>  <s_epik_input>  (249) 
W09IXWMxW2NIXVtjSF1jKEMoPU8pW0NIMl0yKWMzYzFPW0NAQEhdKFtDQF0yNFtDQEBdMzU2KUMoPU8pW0NIMl1bQ0gyXVtDQEBdNShPW0NIM10pW0NAQEhdNFtDQEBIXShbQ0gyXTYpTihbQ0gzXSlDKD1PKS9bQ0hdPVtDSF1cW0NIXT1bQ0hdXEM3OFtDSDJdW0NAQEhdOVtDSDJdW0NASF0oW0NIMl04KVtDSDJdW0NAQEhdKFtDSDJdOSlbQ0gyXTc=

>  <s_epik_cmdline>  (249) 
J2VwaWtfcHl0aG9uJywgJy1waHQnLCAnMi4wJywgJy1waCcsICc3LjAnLCAnLXRuJywgJzgnLCAnLW1hJywgJzIwMCcsICctaW1hZScsICc8aW5maWxlLm1hZT4nLCAnLW9tYWUnLCAnPG91dGZpbGUubWFlPic=

>  <r_lp_tautomer_probability>  (249) 
0.99995

>  <r_epik_Ionization_Penalty>  (249) 
0.00349279

>  <r_epik_Ionization_Penalty_Charging>  (249) 
0

>  <r_epik_Ionization_Penalty_Neutral>  (249) 
0.00349279

>  <r_epik_State_Penalty>  (249) 
0.00247731

>  <r_epik_Charging_Adjusted_Penalty>  (249) 
0.00247731

>  <i_epik_Tot_Q>  (249) 
0

>  <i_epik_Tot_abs_Q>  (249) 
0

>  <s_lp_Force_Field>  (249) 
OPLS3e

>  <r_lp_Energy>  (249) 
186.459

>  <b_lp_Chiralities_Consistent>  (249) 
1

>  <s_lp_Variant>  (249) 
57:0-4

>  <s_i_glide_gridfile>  (249) 
pfpi4k_grid

>  <i_i_glide_lignum>  (249) 
5

>  <i_i_glide_rotatable_bonds>  (249) 
7

>  <r_i_docking_score>  (249) 
-2.73623

>  <r_i_glide_ligand_efficiency>  (249) 
-0.0651484

>  <r_i_glide_ligand_efficiency_sa>  (249) 
-0.226457

>  <r_i_glide_ligand_efficiency_ln>  (249) 
-0.577548

>  <r_i_glide_gscore>  (249) 
-2.73623

>  <r_i_glide_lipo>  (249) 
-0.0212687

>  <r_i_glide_hbond>  (249) 
-0.236058

>  <r_i_glide_metal>  (249) 
-0

>  <r_i_glide_rewards>  (249) 
-0.00959345

>  <r_i_glide_evdw>  (249) 
-27.1116

>  <r_i_glide_ecoul>  (249) 
-8.12167

>  <r_i_glide_erotb>  (249) 
0.167369

>  <r_i_glide_esite>  (249) 
-0.0628488

>  <r_i_glide_emodel>  (249) 
-39.0106

>  <r_i_glide_energy>  (249) 
-35.2333

>  <r_i_glide_einternal>  (249) 
2.73775

>  <r_i_glide_intrahb_reward>  (249) 
-0

>  <i_i_glide_confnum>  (249) 
3

>  <i_i_glide_posenum>  (249) 
1

>  <r_i_glide_eff_state_penalty>  (249) 
0

>  <ligand_id>  (249) 
57

>  <original_smiles>  (249) 
COC12CCC(=O)C3Oc4c(O)ccc5c4C14CC(N(C)C(=O)C=CC=CC16CC7CC(CC(C7)C1)C6)C2C34CC5=O

>  <smiles>  (249) 
[H]Oc1c([H])c([H])c2c3c1OC1([H])C(=O)C([H])([H])C([H])([H])C4(OC([H])([H])[H])C5([H])C([H])(N(C(=O)C([H])=C([H])C([H])=C([H])C67C([H])([H])C8([H])C([H])([H])C([H])(C([H])([H])C([H])(C8([H])[H])C6([H])[H])C7([H])[H])C([H])([H])[H])C([H])([H])C34C15C([H])([H])C2=O

$$$$
57:3:2
     RDKit          3D

 81 89  0  0  1  0  0  0  0  0999 V2000
    3.1182    4.4682    2.7876 C   0  0  0  0  0  0  0  0  0  0  0  0
    3.3971    4.3049    4.1785 O   0  0  0  0  0  0  0  0  0  0  0  0
    2.2541    4.4931    5.0124 C   0  0  1  0  0  0  0  0  0  0  0  0
    1.9573    6.0205    4.8761 C   0  0  0  0  0  0  0  0  0  0  0  0
    1.5123    6.7731    6.1514 C   0  0  0  0  0  0  0  0  0  0  0  0
    0.3691    6.0839    6.8876 C   0  0  0  0  0  0  0  0  0  0  0  0
   -0.0590    6.5038    7.9661 O   0  0  0  0  0  0  0  0  0  0  0  0
   -0.2286    4.8681    6.2038 C   0  0  1  0  0  0  0  0  0  0  0  0
   -0.6303    5.2624    4.8599 O   0  0  0  0  0  0  0  0  0  0  0  0
   -0.7716    4.2305    3.9543 C   0  0  0  0  0  0  0  0  0  0  0  0
   -1.9073    4.0686    3.1476 C   0  0  0  0  0  0  0  0  0  0  0  0
   -2.5912    5.1341    2.6040 O   0  0  0  0  0  0  0  0  0  0  0  0
   -2.4072    2.7712    2.9724 C   0  0  0  0  0  0  0  0  0  0  0  0
   -1.9066    1.7102    3.7686 C   0  0  0  0  0  0  0  0  0  0  0  0
   -0.7688    1.9275    4.5411 C   0  0  0  0  0  0  0  0  0  0  0  0
   -0.0213    3.0482    4.1708 C   0  0  0  0  0  0  0  0  0  0  0  0
    1.2979    3.2431    4.8975 C   0  0  1  0  0  0  0  0  0  0  0  0
    2.2233    1.9951    4.9971 C   0  0  0  0  0  0  0  0  0  0  0  0
    2.9896    2.4303    6.2629 C   0  0  1  0  0  0  0  0  0  0  0  0
    4.4614    2.3772    6.1628 N   0  0  0  0  0  0  0  0  0  0  0  0
    5.1851    3.5163    6.7653 C   0  0  0  0  0  0  0  0  0  0  0  0
    5.1552    1.2774    5.8248 C   0  0  0  0  0  0  0  0  0  0  0  0
    6.3867    1.3161    5.6758 O   0  0  0  0  0  0  0  0  0  0  0  0
    4.3684    0.0581    5.6471 C   0  0  0  0  0  0  0  0  0  0  0  0
    4.6711   -0.8095    4.6624 C   0  0  0  0  0  0  0  0  0  0  0  0
    3.9019   -2.0253    4.4983 C   0  0  0  0  0  0  0  0  0  0  0  0
    3.7968   -2.7852    3.3906 C   0  0  0  0  0  0  0  0  0  0  0  0
    4.3691   -2.5631    1.9861 C   0  0  2  0  0  0  0  0  0  0  0  0
    3.6948   -1.3349    1.3021 C   0  0  0  0  0  0  0  0  0  0  0  0
    4.2700   -1.1456   -0.1168 C   0  0  1  0  0  0  0  0  0  0  0  0
    5.7885   -0.9506   -0.0406 C   0  0  0  0  0  0  0  0  0  0  0  0
    6.4438   -2.1995    0.5687 C   0  0  2  0  0  0  0  0  0  0  0  0
    6.1373   -3.4367   -0.2968 C   0  0  0  0  0  0  0  0  0  0  0  0
    4.6044   -3.6248   -0.3505 C   0  0  2  0  0  0  0  0  0  0  0  0
    3.9574   -2.3792   -0.9874 C   0  0  0  0  0  0  0  0  0  0  0  0
    4.0376   -3.8087    1.0865 C   0  0  0  0  0  0  0  0  0  0  0  0
    5.9179   -2.4032    1.9916 C   0  0  0  0  0  0  0  0  0  0  0  0
    2.3326    3.8060    6.3845 C   0  0  2  0  0  0  0  0  0  0  0  0
    0.7774    3.6508    6.2600 C   0  0  1  0  0  0  0  0  0  0  0  0
    0.0242    2.4501    6.9361 C   0  0  0  0  0  0  0  0  0  0  0  0
   -0.7294    1.5029    5.9677 C   0  0  0  0  0  0  0  0  0  0  0  0
   -1.3249    0.5085    6.4330 O   0  0  0  0  0  0  0  0  0  0  0  0
    4.0186    4.2908    2.2594 H   0  0  0  0  0  0  0  0  0  0  0  0
    2.8793    5.4949    2.5069 H   0  0  0  0  0  0  0  0  0  0  0  0
    2.3602    3.7785    2.3979 H   0  0  0  0  0  0  0  0  0  0  0  0
    2.8862    6.5184    4.6050 H   0  0  0  0  0  0  0  0  0  0  0  0
    1.3091    6.2591    4.0193 H   0  0  0  0  0  0  0  0  0  0  0  0
    2.3654    6.8379    6.8325 H   0  0  0  0  0  0  0  0  0  0  0  0
    1.2072    7.7950    5.8946 H   0  0  0  0  0  0  0  0  0  0  0  0
   -1.1227    4.5849    6.7615 H   0  0  0  0  0  0  0  0  0  0  0  0
   -3.3728    4.8243    2.1656 H   0  0  0  0  0  0  0  0  0  0  0  0
   -3.3324    2.6509    2.4429 H   0  0  0  0  0  0  0  0  0  0  0  0
   -2.5238    0.8687    4.0274 H   0  0  0  0  0  0  0  0  0  0  0  0
    1.6777    1.0695    5.1520 H   0  0  0  0  0  0  0  0  0  0  0  0
    2.8196    1.8463    4.0844 H   0  0  0  0  0  0  0  0  0  0  0  0
    2.7613    1.7918    7.1127 H   0  0  0  0  0  0  0  0  0  0  0  0
    6.2749    3.3725    6.7897 H   0  0  0  0  0  0  0  0  0  0  0  0
    4.8542    3.6649    7.8009 H   0  0  0  0  0  0  0  0  0  0  0  0
    4.9950    4.4312    6.1986 H   0  0  0  0  0  0  0  0  0  0  0  0
    3.5089   -0.1221    6.2902 H   0  0  0  0  0  0  0  0  0  0  0  0
    5.5064   -0.5785    4.0144 H   0  0  0  0  0  0  0  0  0  0  0  0
    3.3632   -2.3686    5.3717 H   0  0  0  0  0  0  0  0  0  0  0  0
    3.1933   -3.6733    3.4977 H   0  0  0  0  0  0  0  0  0  0  0  0
    2.6092   -1.4614    1.2361 H   0  0  0  0  0  0  0  0  0  0  0  0
    3.8549   -0.4277    1.8864 H   0  0  0  0  0  0  0  0  0  0  0  0
    3.8380   -0.2552   -0.5649 H   0  0  0  0  0  0  0  0  0  0  0  0
    6.1703   -0.7577   -1.0388 H   0  0  0  0  0  0  0  0  0  0  0  0
    6.0028   -0.0749    0.5712 H   0  0  0  0  0  0  0  0  0  0  0  0
    7.5190   -2.0578    0.6073 H   0  0  0  0  0  0  0  0  0  0  0  0
    6.5495   -3.3321   -1.3088 H   0  0  0  0  0  0  0  0  0  0  0  0
    6.6026   -4.3112    0.1623 H   0  0  0  0  0  0  0  0  0  0  0  0
    4.3819   -4.5069   -0.9637 H   0  0  0  0  0  0  0  0  0  0  0  0
    2.8800   -2.5176   -1.0754 H   0  0  0  0  0  0  0  0  0  0  0  0
    4.3435   -2.2374   -1.9955 H   0  0  0  0  0  0  0  0  0  0  0  0
    4.4636   -4.7141    1.5274 H   0  0  0  0  0  0  0  0  0  0  0  0
    2.9555   -3.9863    1.0216 H   0  0  0  0  0  0  0  0  0  0  0  0
    6.2959   -1.5352    2.5265 H   0  0  0  0  0  0  0  0  0  0  0  0
    6.3496   -3.3279    2.3820 H   0  0  0  0  0  0  0  0  0  0  0  0
    2.6172    4.4214    7.2117 H   0  0  0  0  0  0  0  0  0  0  0  0
    0.7352    1.7737    7.3932 H   0  0  0  0  0  0  0  0  0  0  0  0
   -0.6606    2.7888    7.7190 H   0  0  0  0  0  0  0  0  0  0  0  0
  1  2  1  0
  1 43  1  0
  1 44  1  0
  1 45  1  0
  3  2  1  6
  3 17  1  0
  3 38  1  0
  3  4  1  0
  4  5  1  0
  4 46  1  0
  4 47  1  0
  5  6  1  0
  5 48  1  0
  5 49  1  0
  6  7  2  0
  6  8  1  0
  8 39  1  0
  8  9  1  0
  8 50  1  1
  9 10  1  0
 10 16  2  0
 10 11  1  0
 11 12  1  0
 11 13  2  0
 12 51  1  0
 13 14  1  0
 13 52  1  0
 14 15  2  0
 14 53  1  0
 15 41  1  0
 15 16  1  0
 16 17  1  0
 17 39  1  0
 17 18  1  1
 18 19  1  0
 18 54  1  0
 18 55  1  0
 19 20  1  0
 19 38  1  0
 19 56  1  1
 20 21  1  0
 20 22  1  0
 21 57  1  0
 21 58  1  0
 21 59  1  0
 22 23  2  0
 22 24  1  0
 24 25  2  3
 24 60  1  0
 25 26  1  0
 25 61  1  0
 26 27  2  3
 26 62  1  0
 28 27  1  1
 27 63  1  0
 28 36  1  0
 28 37  1  0
 28 29  1  0
 29 30  1  0
 29 64  1  0
 29 65  1  0
 30 35  1  0
 30 31  1  0
 30 66  1  6
 31 32  1  0
 31 67  1  0
 31 68  1  0
 32 33  1  0
 32 37  1  0
 32 69  1  1
 33 34  1  0
 33 70  1  0
 33 71  1  0
 34 35  1  0
 34 36  1  0
 34 72  1  6
 35 73  1  0
 35 74  1  0
 36 75  1  0
 36 76  1  0
 37 77  1  0
 37 78  1  0
 38 39  1  0
 38 79  1  1
 39 40  1  1
 40 41  1  0
 40 80  1  0
 40 81  1  0
 41 42  2  0
M  END
>  <i_m_ct_stereo_status>  (250) 
1

>  <s_m_source_file>  (250) 
/var/tmp/pbs.5076255.sched01/tmpnby3vxlc/96d7dj3887.sdf

>  <i_m_source_file_index>  (250) 
5

>  <i_lp_mmshare_version>  (250) 
48012

>  <i_f3d_flags>  (250) 
0

>  <s_epik_input>  (250) 
W09IXWMxW2NIXVtjSF1jKEMoPU8pW0NIMl0yKWMzYzFPW0NAQEhdKFtDQF0yNFtDQEBdMzU2KUMoPU8pW0NIMl1bQ0gyXVtDQEBdNShPW0NIM10pW0NAQEhdNFtDQEBIXShbQ0gyXTYpTihbQ0gzXSlDKD1PKS9bQ0hdPVtDSF1cW0NIXT1bQ0hdXEM3OFtDSDJdW0NAQEhdOVtDSDJdW0NASF0oW0NIMl04KVtDSDJdW0NAQEhdKFtDSDJdOSlbQ0gyXTc=

>  <s_epik_cmdline>  (250) 
J2VwaWtfcHl0aG9uJywgJy1waHQnLCAnMi4wJywgJy1waCcsICc3LjAnLCAnLXRuJywgJzgnLCAnLW1hJywgJzIwMCcsICctaW1hZScsICc8aW5maWxlLm1hZT4nLCAnLW9tYWUnLCAnPG91dGZpbGUubWFlPic=

>  <r_lp_tautomer_probability>  (250) 
0.99995

>  <r_epik_Ionization_Penalty>  (250) 
0.00349279

>  <r_epik_Ionization_Penalty_Charging>  (250) 
0

>  <r_epik_Ionization_Penalty_Neutral>  (250) 
0.00349279

>  <r_epik_State_Penalty>  (250) 
0.00247731

>  <r_epik_Charging_Adjusted_Penalty>  (250) 
0.00247731

>  <i_epik_Tot_Q>  (250) 
0

>  <i_epik_Tot_abs_Q>  (250) 
0

>  <s_lp_Force_Field>  (250) 
OPLS3e

>  <r_lp_Energy>  (250) 
186.459

>  <b_lp_Chiralities_Consistent>  (250) 
1

>  <s_lp_Variant>  (250) 
57:0-4

>  <s_i_glide_gridfile>  (250) 
pfpi4k_grid

>  <i_i_glide_lignum>  (250) 
5

>  <i_i_glide_rotatable_bonds>  (250) 
7

>  <r_i_docking_score>  (250) 
-2.58847

>  <r_i_glide_ligand_efficiency>  (250) 
-0.0616302

>  <r_i_glide_ligand_efficiency_sa>  (250) 
-0.214228

>  <r_i_glide_ligand_efficiency_ln>  (250) 
-0.546359

>  <r_i_glide_gscore>  (250) 
-2.58847

>  <r_i_glide_lipo>  (250) 
-0.461245

>  <r_i_glide_hbond>  (250) 
-0.111965

>  <r_i_glide_metal>  (250) 
-0

>  <r_i_glide_rewards>  (250) 
-0.0226169

>  <r_i_glide_evdw>  (250) 
-21.4362

>  <r_i_glide_ecoul>  (250) 
-7.12855

>  <r_i_glide_erotb>  (250) 
0.167369

>  <r_i_glide_esite>  (250) 
-0.0189183

>  <r_i_glide_emodel>  (250) 
-30.6505

>  <r_i_glide_energy>  (250) 
-28.5647

>  <r_i_glide_einternal>  (250) 
5.0367

>  <r_i_glide_intrahb_reward>  (250) 
-0

>  <i_i_glide_confnum>  (250) 
3

>  <i_i_glide_posenum>  (250) 
36

>  <r_i_glide_eff_state_penalty>  (250) 
0

>  <ligand_id>  (250) 
57

>  <original_smiles>  (250) 
COC12CCC(=O)C3Oc4c(O)ccc5c4C14CC(N(C)C(=O)C=CC=CC16CC7CC(CC(C7)C1)C6)C2C34CC5=O

>  <smiles>  (250) 
[H]Oc1c([H])c([H])c2c3c1OC1([H])C(=O)C([H])([H])C([H])([H])C4(OC([H])([H])[H])C5([H])C([H])(N(C(=O)C([H])=C([H])C([H])=C([H])C67C([H])([H])C8([H])C([H])([H])C([H])(C([H])([H])C([H])(C8([H])[H])C6([H])[H])C7([H])[H])C([H])([H])[H])C([H])([H])C34C15C([H])([H])C2=O

$$$$
59:0:0
     RDKit          3D

 66 71  0  0  1  0  0  0  0  0999 V2000
    2.4657   -0.9916    4.4266 C   0  0  0  0  0  0  0  0  0  0  0  0
    3.0330   -1.3973    3.0545 C   0  0  2  0  0  0  0  0  0  0  0  0
    2.2744   -2.5235    2.3799 C   0  0  0  0  0  0  0  0  0  0  0  0
    2.9126   -2.8264    0.9776 C   0  0  2  0  0  0  0  0  0  0  0  0
    2.3937   -3.7898    0.1026 N   0  0  2  0  0  0  0  0  0  0  0  0
    2.9882   -5.1022    0.4163 C   0  0  0  0  0  0  0  0  0  0  0  0
    2.6962   -5.5642    1.8687 C   0  0  0  0  0  0  0  0  0  0  0  0
    3.3475   -5.3772    3.0686 C   0  0  0  0  0  0  0  0  0  0  0  0
    2.7297   -5.9033    4.3007 C   0  0  0  0  0  0  0  0  0  0  0  0
    1.5666   -6.2927    4.4085 O   0  0  0  0  0  0  0  0  0  0  0  0
    3.5946   -5.7998    5.2835 O   0  0  0  0  0  0  0  0  0  0  0  0
    4.8963   -5.4934    4.8425 C   0  0  0  0  0  0  0  0  0  0  0  0
    4.7046   -4.7478    3.4831 C   0  0  1  0  0  0  0  0  0  0  0  0
    5.8992   -5.2119    2.6244 C   0  0  0  0  0  0  0  0  0  0  0  0
    4.7443   -3.1924    3.9126 C   0  0  0  0  0  0  0  0  0  0  0  0
    4.4905   -1.8372    3.0593 C   0  0  1  0  0  0  0  0  0  0  0  0
    5.0411   -1.7720    1.5976 C   0  0  2  0  0  0  0  0  0  0  0  0
    6.2747   -1.0681    1.0883 C   0  0  0  0  0  0  0  0  0  0  0  0
    6.7468   -2.0756    0.0097 C   0  0  1  0  0  0  0  0  0  0  0  0
    8.1237   -2.6909    0.3104 C   0  0  0  0  0  0  0  0  0  0  0  0
    5.5860   -3.1295   -0.1645 C   0  0  2  0  0  0  0  0  0  0  0  0
    5.6010   -3.7049   -1.5894 C   0  0  0  0  0  0  0  0  0  0  0  0
    5.2990   -2.7134   -2.6927 C   0  0  0  0  0  0  0  0  0  0  0  0
    4.5046   -1.5094   -2.1965 C   0  0  1  0  0  0  0  0  0  0  0  0
    3.7287   -0.8774   -3.3750 C   0  0  0  0  0  0  0  0  0  0  0  0
    3.6151   -1.8913   -0.9743 C   0  0  1  0  0  0  0  0  0  0  0  0
    2.6475   -3.1577   -1.2121 C   0  0  0  0  0  0  0  0  0  0  0  0
    4.2931   -2.3813    0.3796 C   0  0  1  0  0  0  0  0  0  0  0  0
    2.3489   -1.8363    5.1071 H   0  0  0  0  0  0  0  0  0  0  0  0
    1.4818   -0.5314    4.3132 H   0  0  0  0  0  0  0  0  0  0  0  0
    3.1089   -0.2544    4.9143 H   0  0  0  0  0  0  0  0  0  0  0  0
    2.9601   -0.5036    2.4289 H   0  0  0  0  0  0  0  0  0  0  0  0
    2.1925   -3.3341    3.0783 H   0  0  0  0  0  0  0  0  0  0  0  0
    1.2228   -2.2240    2.3010 H   0  0  0  0  0  0  0  0  0  0  0  0
    2.2494   -1.9978    0.7122 H   0  0  0  0  0  0  0  0  0  0  0  0
    2.5724   -5.8749   -0.2375 H   0  0  0  0  0  0  0  0  0  0  0  0
    4.0563   -5.1547    0.2660 H   0  0  0  0  0  0  0  0  0  0  0  0
    1.7327   -6.0622    1.9429 H   0  0  0  0  0  0  0  0  0  0  0  0
    5.4740   -4.9454    5.5803 H   0  0  0  0  0  0  0  0  0  0  0  0
    5.3754   -6.4634    4.7145 H   0  0  0  0  0  0  0  0  0  0  0  0
    6.6127   -4.4075    2.4664 H   0  0  0  0  0  0  0  0  0  0  0  0
    5.5920   -5.6381    1.6748 H   0  0  0  0  0  0  0  0  0  0  0  0
    6.4910   -5.9982    3.0939 H   0  0  0  0  0  0  0  0  0  0  0  0
    4.0997   -3.1138    4.7918 H   0  0  0  0  0  0  0  0  0  0  0  0
    5.7379   -3.0528    4.3415 H   0  0  0  0  0  0  0  0  0  0  0  0
    5.0266   -1.0576    3.6033 H   0  0  0  0  0  0  0  0  0  0  0  0
    5.6410   -2.5933    1.9547 H   0  0  0  0  0  0  0  0  0  0  0  0
    5.9985   -0.1089    0.6434 H   0  0  0  0  0  0  0  0  0  0  0  0
    7.0127   -0.9000    1.8731 H   0  0  0  0  0  0  0  0  0  0  0  0
    6.8831   -1.5096   -0.9020 H   0  0  0  0  0  0  0  0  0  0  0  0
    8.1216   -3.2481    1.2469 H   0  0  0  0  0  0  0  0  0  0  0  0
    8.8842   -1.9115    0.3901 H   0  0  0  0  0  0  0  0  0  0  0  0
    8.4421   -3.3682   -0.4816 H   0  0  0  0  0  0  0  0  0  0  0  0
    5.8377   -3.9805    0.4416 H   0  0  0  0  0  0  0  0  0  0  0  0
    6.5928   -4.0812   -1.7567 H   0  0  0  0  0  0  0  0  0  0  0  0
    4.9370   -4.5700   -1.6773 H   0  0  0  0  0  0  0  0  0  0  0  0
    6.2583   -2.3501   -3.0330 H   0  0  0  0  0  0  0  0  0  0  0  0
    4.8589   -3.1936   -3.5614 H   0  0  0  0  0  0  0  0  0  0  0  0
    5.1737   -0.7251   -1.8570 H   0  0  0  0  0  0  0  0  0  0  0  0
    3.0360   -1.5755   -3.8471 H   0  0  0  0  0  0  0  0  0  0  0  0
    4.4384   -0.5617   -4.1474 H   0  0  0  0  0  0  0  0  0  0  0  0
    3.1728    0.0151   -3.0792 H   0  0  0  0  0  0  0  0  0  0  0  0
    3.0361   -0.9786   -0.7931 H   0  0  0  0  0  0  0  0  0  0  0  0
    2.9874   -3.8496   -1.9800 H   0  0  0  0  0  0  0  0  0  0  0  0
    1.7279   -2.7668   -1.6534 H   0  0  0  0  0  0  0  0  0  0  0  0
    1.4086   -3.8446    0.2290 H   0  0  0  0  0  0  0  0  0  0  0  0
  1  2  1  0
  1 29  1  0
  1 30  1  0
  1 31  1  0
  2 16  1  0
  2  3  1  0
  2 32  1  6
  3  4  1  0
  3 33  1  0
  3 34  1  0
  4 28  1  0
  4  5  1  0
  4 35  1  6
  5 27  1  0
  5  6  1  0
  5 66  1  1
  6  7  1  0
  6 36  1  0
  6 37  1  0
  7  8  2  3
  7 38  1  0
  8 13  1  0
  8  9  1  0
  9 10  2  0
  9 11  1  0
 11 12  1  0
 12 13  1  0
 12 39  1  0
 12 40  1  0
 13 14  1  6
 13 15  1  0
 14 41  1  0
 14 42  1  0
 14 43  1  0
 15 16  1  0
 15 44  1  0
 15 45  1  0
 16 17  1  0
 16 46  1  1
 28 17  1  1
 17 18  1  0
 17 47  1  1
 18 19  1  0
 18 48  1  0
 18 49  1  0
 19 20  1  0
 19 21  1  0
 19 50  1  6
 20 51  1  0
 20 52  1  0
 20 53  1  0
 21 28  1  0
 21 22  1  0
 21 54  1  1
 22 23  1  0
 22 55  1  0
 22 56  1  0
 23 24  1  0
 23 57  1  0
 23 58  1  0
 24 25  1  0
 24 26  1  0
 24 59  1  1
 25 60  1  0
 25 61  1  0
 25 62  1  0
 26 27  1  0
 26 28  1  0
 26 63  1  1
 27 64  1  0
 27 65  1  0
M  CHG  1   5   1
M  END
>  <i_m_ct_stereo_status>  (251) 
1

>  <s_m_source_file>  (251) 
/var/tmp/pbs.5076255.sched01/tmpnby3vxlc/96d7dj3887.sdf

>  <i_m_source_file_index>  (251) 
7

>  <i_lp_mmshare_version>  (251) 
48012

>  <i_f3d_flags>  (251) 
0

>  <s_epik_input>  (251) 
QzEyM1tDQEhdNE41W0NIMl0vW0NIXT1DLzZbQ0BdKFtDSDNdKShbQ0gyXU9DNj1PKVtDSDJdW0NASF0oW0NASF0oW0NIM10pW0NIMl00KVtDQEBIXTFbQ0gyXVtDQEBIXShbQ0gzXSlbQ0BASF0yW0NIMl1bQ0gyXVtDQEBIXShbQ0gzXSlbQ0BIXTNbQ0gyXTU=

>  <s_epik_cmdline>  (251) 
J2VwaWtfcHl0aG9uJywgJy1waHQnLCAnMi4wJywgJy1waCcsICc3LjAnLCAnLXRuJywgJzgnLCAnLW1hJywgJzIwMCcsICctaW1hZScsICc8aW5maWxlLm1hZT4nLCAnLW9tYWUnLCAnPG91dGZpbGUubWFlPic=

>  <r_epik_Ionization_Penalty>  (251) 
0.0114804

>  <r_epik_Ionization_Penalty_Charging>  (251) 
0.0114804

>  <r_epik_Ionization_Penalty_Neutral>  (251) 
0

>  <r_epik_State_Penalty>  (251) 
0.00883737

>  <r_epik_Charging_Adjusted_Penalty>  (251) 
0.0203178

>  <i_epik_Tot_Q>  (251) 
1

>  <i_epik_Tot_abs_Q>  (251) 
1

>  <s_epik_Chemistry_Notes>  (251) 
This compound has an ester and may undergo hydrolysis at high or low pH.

>  <s_lp_Force_Field>  (251) 
OPLS3e

>  <r_lp_Energy>  (251) 
196.419

>  <b_lp_Chiralities_Consistent>  (251) 
1

>  <s_lp_Variant>  (251) 
59:0-1

>  <s_i_glide_gridfile>  (251) 
pfpi4k_grid

>  <i_i_glide_lignum>  (251) 
7

>  <i_i_glide_rotatable_bonds>  (251) 
0

>  <r_i_docking_score>  (251) 
-3.52403

>  <r_i_glide_ligand_efficiency>  (251) 
-0.125858

>  <r_i_glide_ligand_efficiency_sa>  (251) 
-0.382179

>  <r_i_glide_ligand_efficiency_ln>  (251) 
-0.813449

>  <r_i_glide_gscore>  (251) 
-3.52403

>  <r_i_glide_lipo>  (251) 
-0.918476

>  <r_i_glide_hbond>  (251) 
0

>  <r_i_glide_metal>  (251) 
-0

>  <r_i_glide_rewards>  (251) 
-0.786991

>  <r_i_glide_evdw>  (251) 
-25.1744

>  <r_i_glide_ecoul>  (251) 
-3.42649

>  <r_i_glide_erotb>  (251) 
0

>  <r_i_glide_esite>  (251) 
-0.0458704

>  <r_i_glide_emodel>  (251) 
-32.7679

>  <r_i_glide_energy>  (251) 
-28.6008

>  <r_i_glide_einternal>  (251) 
0

>  <r_i_glide_intrahb_reward>  (251) 
-0

>  <i_i_glide_confnum>  (251) 
1

>  <i_i_glide_posenum>  (251) 
19

>  <r_i_glide_eff_state_penalty>  (251) 
0

>  <ligand_id>  (251) 
59

>  <original_smiles>  (251) 
CC1CC2N3CC=C4C(=O)OCC4(C)CC1C1CC(C)C4CCC(C)C(C3)C412

>  <smiles>  (251) 
[H]C1=C2C(=O)OC([H])([H])C2(C([H])([H])[H])C([H])([H])C2([H])C([H])(C([H])([H])[H])C([H])([H])C3([H])C45C([H])(C([H])([H])C([H])([H])C([H])(C([H])([H])[H])C4([H])C([H])([H])[N+]3([H])C1([H])[H])C([H])(C([H])([H])[H])C([H])([H])C25[H]

$$$$
59:2:0
     RDKit          3D

 66 71  0  0  1  0  0  0  0  0999 V2000
    5.9688   -8.2123    4.5613 C   0  0  0  0  0  0  0  0  0  0  0  0
    5.9203   -6.9876    3.6235 C   0  0  2  0  0  0  0  0  0  0  0  0
    6.0862   -5.6500    4.3742 C   0  0  0  0  0  0  0  0  0  0  0  0
    5.2007   -4.4729    3.8780 C   0  0  2  0  0  0  0  0  0  0  0  0
    3.8204   -4.3867    4.4691 N   0  0  2  0  0  0  0  0  0  0  0  0
    3.2763   -5.5745    5.1742 C   0  0  0  0  0  0  0  0  0  0  0  0
    1.8195   -5.9435    4.8966 C   0  0  0  0  0  0  0  0  0  0  0  0
    1.3305   -6.6548    3.8567 C   0  0  0  0  0  0  0  0  0  0  0  0
   -0.0716   -7.1210    3.8777 C   0  0  0  0  0  0  0  0  0  0  0  0
   -0.9851   -6.6484    4.5401 O   0  0  0  0  0  0  0  0  0  0  0  0
   -0.1746   -8.1136    3.0104 O   0  0  0  0  0  0  0  0  0  0  0  0
    1.0818   -8.5559    2.5300 C   0  0  0  0  0  0  0  0  0  0  0  0
    1.9934   -7.3039    2.6453 C   0  0  1  0  0  0  0  0  0  0  0  0
    1.7357   -6.5173    1.3400 C   0  0  0  0  0  0  0  0  0  0  0  0
    3.4681   -7.7861    2.8167 C   0  0  0  0  0  0  0  0  0  0  0  0
    4.8099   -6.9738    2.5255 C   0  0  1  0  0  0  0  0  0  0  0  0
    4.9230   -5.6693    1.6330 C   0  0  2  0  0  0  0  0  0  0  0  0
    6.2927   -5.7727    0.8474 C   0  0  0  0  0  0  0  0  0  0  0  0
    7.1679   -4.5466    1.1769 C   0  0  1  0  0  0  0  0  0  0  0  0
    8.1831   -4.1809    0.0864 C   0  0  0  0  0  0  0  0  0  0  0  0
    6.0407   -3.5610    1.3785 C   0  0  2  0  0  0  0  0  0  0  0  0
    6.2175   -2.0379    1.4683 C   0  0  0  0  0  0  0  0  0  0  0  0
    4.8714   -1.3512    1.0595 C   0  0  0  0  0  0  0  0  0  0  0  0
    3.5855   -2.1988    1.3537 C   0  0  1  0  0  0  0  0  0  0  0  0
    2.9560   -2.8506    0.1147 C   0  0  0  0  0  0  0  0  0  0  0  0
    3.9076   -3.1775    2.4969 C   0  0  1  0  0  0  0  0  0  0  0  0
    2.9329   -3.7085    3.5139 C   0  0  0  0  0  0  0  0  0  0  0  0
    5.0276   -4.2485    2.3340 C   0  0  2  0  0  0  0  0  0  0  0  0
    5.1848   -8.2104    5.3133 H   0  0  0  0  0  0  0  0  0  0  0  0
    6.9191   -8.2313    5.0995 H   0  0  0  0  0  0  0  0  0  0  0  0
    5.9018   -9.1425    3.9981 H   0  0  0  0  0  0  0  0  0  0  0  0
    6.8540   -7.0945    3.0818 H   0  0  0  0  0  0  0  0  0  0  0  0
    5.9744   -5.7809    5.4521 H   0  0  0  0  0  0  0  0  0  0  0  0
    7.1332   -5.3661    4.2706 H   0  0  0  0  0  0  0  0  0  0  0  0
    5.7300   -3.5900    4.2574 H   0  0  0  0  0  0  0  0  0  0  0  0
    3.8419   -6.4860    5.0352 H   0  0  0  0  0  0  0  0  0  0  0  0
    3.3549   -5.3906    6.2455 H   0  0  0  0  0  0  0  0  0  0  0  0
    1.1418   -5.6265    5.6744 H   0  0  0  0  0  0  0  0  0  0  0  0
    1.4145   -9.3552    3.1940 H   0  0  0  0  0  0  0  0  0  0  0  0
    1.0199   -8.9590    1.5262 H   0  0  0  0  0  0  0  0  0  0  0  0
    2.1699   -7.0353    0.4898 H   0  0  0  0  0  0  0  0  0  0  0  0
    2.1390   -5.5146    1.3442 H   0  0  0  0  0  0  0  0  0  0  0  0
    0.6704   -6.4181    1.1321 H   0  0  0  0  0  0  0  0  0  0  0  0
    3.5258   -8.2648    3.7918 H   0  0  0  0  0  0  0  0  0  0  0  0
    3.5298   -8.6509    2.1529 H   0  0  0  0  0  0  0  0  0  0  0  0
    5.2182   -7.7098    1.8384 H   0  0  0  0  0  0  0  0  0  0  0  0
    4.1623   -5.6566    0.8584 H   0  0  0  0  0  0  0  0  0  0  0  0
    6.8684   -6.6859    0.9987 H   0  0  0  0  0  0  0  0  0  0  0  0
    6.0554   -5.7790   -0.2218 H   0  0  0  0  0  0  0  0  0  0  0  0
    7.6994   -4.7022    2.1153 H   0  0  0  0  0  0  0  0  0  0  0  0
    7.6971   -3.9631   -0.8645 H   0  0  0  0  0  0  0  0  0  0  0  0
    8.8867   -4.9977   -0.0721 H   0  0  0  0  0  0  0  0  0  0  0  0
    8.7613   -3.3017    0.3591 H   0  0  0  0  0  0  0  0  0  0  0  0
    5.5853   -3.5957    0.3856 H   0  0  0  0  0  0  0  0  0  0  0  0
    6.4832   -1.7512    2.4864 H   0  0  0  0  0  0  0  0  0  0  0  0
    7.0183   -1.6866    0.8224 H   0  0  0  0  0  0  0  0  0  0  0  0
    4.8059   -0.3945    1.5775 H   0  0  0  0  0  0  0  0  0  0  0  0
    4.8991   -1.0981   -0.0086 H   0  0  0  0  0  0  0  0  0  0  0  0
    2.8338   -1.4892    1.7226 H   0  0  0  0  0  0  0  0  0  0  0  0
    3.5771   -3.6165   -0.3506 H   0  0  0  0  0  0  0  0  0  0  0  0
    2.7437   -2.1002   -0.6463 H   0  0  0  0  0  0  0  0  0  0  0  0
    2.0036   -3.3094    0.3681 H   0  0  0  0  0  0  0  0  0  0  0  0
    4.3439   -2.4092    3.1440 H   0  0  0  0  0  0  0  0  0  0  0  0
    2.2166   -4.3450    3.0068 H   0  0  0  0  0  0  0  0  0  0  0  0
    2.3585   -2.9099    3.9940 H   0  0  0  0  0  0  0  0  0  0  0  0
    3.9419   -3.7146    5.2207 H   0  0  0  0  0  0  0  0  0  0  0  0
  1  2  1  0
  1 29  1  0
  1 30  1  0
  1 31  1  0
  2 16  1  0
  2  3  1  0
  2 32  1  6
  3  4  1  0
  3 33  1  0
  3 34  1  0
  4 28  1  0
  4  5  1  0
  4 35  1  1
  5 27  1  0
  5  6  1  0
  5 66  1  1
  6  7  1  0
  6 36  1  0
  6 37  1  0
  7  8  2  3
  7 38  1  0
  8 13  1  0
  8  9  1  0
  9 10  2  0
  9 11  1  0
 11 12  1  0
 12 13  1  0
 12 39  1  0
 12 40  1  0
 13 14  1  6
 13 15  1  0
 14 41  1  0
 14 42  1  0
 14 43  1  0
 15 16  1  0
 15 44  1  0
 15 45  1  0
 16 17  1  0
 16 46  1  6
 28 17  1  6
 17 18  1  0
 17 47  1  6
 18 19  1  0
 18 48  1  0
 18 49  1  0
 19 20  1  0
 19 21  1  0
 19 50  1  1
 20 51  1  0
 20 52  1  0
 20 53  1  0
 21 28  1  0
 21 22  1  0
 21 54  1  6
 22 23  1  0
 22 55  1  0
 22 56  1  0
 23 24  1  0
 23 57  1  0
 23 58  1  0
 24 25  1  0
 24 26  1  0
 24 59  1  1
 25 60  1  0
 25 61  1  0
 25 62  1  0
 26 27  1  0
 26 28  1  0
 26 63  1  1
 27 64  1  0
 27 65  1  0
M  CHG  1   5   1
M  END
>  <i_m_ct_stereo_status>  (252) 
1

>  <s_m_source_file>  (252) 
/var/tmp/pbs.5076255.sched01/tmpnby3vxlc/96d7dj3887.sdf

>  <i_m_source_file_index>  (252) 
9

>  <i_lp_mmshare_version>  (252) 
48012

>  <i_f3d_flags>  (252) 
0

>  <s_epik_input>  (252) 
QzEyM1tDQEhdNE41W0NIMl0vW0NIXT1DLzZbQ0BdKFtDSDNdKShbQ0gyXU9DNj1PKVtDSDJdW0NASF0oW0NASF0oW0NIM10pW0NIMl00KVtDQEBIXTFbQ0gyXVtDQEBIXShbQ0gzXSlbQ0BASF0yW0NIMl1bQ0gyXVtDQEBIXShbQ0gzXSlbQ0BIXTNbQ0gyXTU=

>  <s_epik_cmdline>  (252) 
J2VwaWtfcHl0aG9uJywgJy1waHQnLCAnMi4wJywgJy1waCcsICc3LjAnLCAnLXRuJywgJzgnLCAnLW1hJywgJzIwMCcsICctaW1hZScsICc8aW5maWxlLm1hZT4nLCAnLW9tYWUnLCAnPG91dGZpbGUubWFlPic=

>  <r_epik_Ionization_Penalty>  (252) 
0.0114804

>  <r_epik_Ionization_Penalty_Charging>  (252) 
0.0114804

>  <r_epik_Ionization_Penalty_Neutral>  (252) 
0

>  <r_epik_State_Penalty>  (252) 
0.00883737

>  <r_epik_Charging_Adjusted_Penalty>  (252) 
0.0203178

>  <i_epik_Tot_Q>  (252) 
1

>  <i_epik_Tot_abs_Q>  (252) 
1

>  <s_epik_Chemistry_Notes>  (252) 
This compound has an ester and may undergo hydrolysis at high or low pH.

>  <s_lp_Force_Field>  (252) 
OPLS3e

>  <r_lp_Energy>  (252) 
136.062

>  <b_lp_Chiralities_Consistent>  (252) 
1

>  <s_lp_Variant>  (252) 
59:0-3

>  <s_i_glide_gridfile>  (252) 
pfpi4k_grid

>  <i_i_glide_lignum>  (252) 
9

>  <i_i_glide_rotatable_bonds>  (252) 
0

>  <r_i_docking_score>  (252) 
-3.00114

>  <r_i_glide_ligand_efficiency>  (252) 
-0.107184

>  <r_i_glide_ligand_efficiency_sa>  (252) 
-0.325473

>  <r_i_glide_ligand_efficiency_ln>  (252) 
-0.692752

>  <r_i_glide_gscore>  (252) 
-3.00114

>  <r_i_glide_lipo>  (252) 
-0.677218

>  <r_i_glide_hbond>  (252) 
0

>  <r_i_glide_metal>  (252) 
-0

>  <r_i_glide_rewards>  (252) 
-0.786991

>  <r_i_glide_evdw>  (252) 
-23.5813

>  <r_i_glide_ecoul>  (252) 
-2.10396

>  <r_i_glide_erotb>  (252) 
0

>  <r_i_glide_esite>  (252) 
-0.0422772

>  <r_i_glide_emodel>  (252) 
-30.7225

>  <r_i_glide_energy>  (252) 
-25.6852

>  <r_i_glide_einternal>  (252) 
0

>  <r_i_glide_intrahb_reward>  (252) 
-0

>  <i_i_glide_confnum>  (252) 
2

>  <i_i_glide_posenum>  (252) 
7

>  <r_i_glide_eff_state_penalty>  (252) 
0

>  <ligand_id>  (252) 
59

>  <original_smiles>  (252) 
CC1CC2N3CC=C4C(=O)OCC4(C)CC1C1CC(C)C4CCC(C)C(C3)C412

>  <smiles>  (252) 
[H]C1=C2C(=O)OC([H])([H])C2(C([H])([H])[H])C([H])([H])C2([H])C([H])(C([H])([H])[H])C([H])([H])C3([H])C45C([H])(C([H])([H])C([H])([H])C([H])(C([H])([H])[H])C4([H])C([H])([H])[N+]3([H])C1([H])[H])C([H])(C([H])([H])[H])C([H])([H])C25[H]

$$$$
59:2:1
     RDKit          3D

 66 71  0  0  1  0  0  0  0  0999 V2000
    4.7549   -8.4831    5.8289 C   0  0  0  0  0  0  0  0  0  0  0  0
    4.9414   -7.4961    4.6585 C   0  0  2  0  0  0  0  0  0  0  0  0
    4.9930   -6.0223    5.1118 C   0  0  0  0  0  0  0  0  0  0  0  0
    4.2682   -4.9984    4.1987 C   0  0  2  0  0  0  0  0  0  0  0  0
    2.7971   -4.8072    4.4553 N   0  0  2  0  0  0  0  0  0  0  0  0
    2.0831   -5.8196    5.2725 C   0  0  0  0  0  0  0  0  0  0  0  0
    0.7074   -6.2612    4.7854 C   0  0  0  0  0  0  0  0  0  0  0  0
    0.4186   -7.1915    3.8442 C   0  0  0  0  0  0  0  0  0  0  0  0
   -0.9652   -7.6591    3.6748 C   0  0  0  0  0  0  0  0  0  0  0  0
   -1.9757   -7.0603    4.0167 O   0  0  0  0  0  0  0  0  0  0  0  0
   -0.9287   -8.8179    3.0472 O   0  0  0  0  0  0  0  0  0  0  0  0
    0.3826   -9.3430    2.9473 C   0  0  0  0  0  0  0  0  0  0  0  0
    1.2957   -8.0859    2.9737 C   0  0  1  0  0  0  0  0  0  0  0  0
    1.3434   -7.6081    1.5053 C   0  0  0  0  0  0  0  0  0  0  0  0
    2.6867   -8.4918    3.5494 C   0  0  0  0  0  0  0  0  0  0  0  0
    4.0825   -7.7408    3.3755 C   0  0  1  0  0  0  0  0  0  0  0  0
    4.4212   -6.6661    2.2627 C   0  0  2  0  0  0  0  0  0  0  0  0
    5.9197   -6.9219    1.8190 C   0  0  0  0  0  0  0  0  0  0  0  0
    6.7447   -5.6391    2.0550 C   0  0  1  0  0  0  0  0  0  0  0  0
    7.9720   -5.5189    1.1379 C   0  0  0  0  0  0  0  0  0  0  0  0
    5.6347   -4.6500    1.7990 C   0  0  2  0  0  0  0  0  0  0  0  0
    5.8331   -3.1417    1.5973 C   0  0  0  0  0  0  0  0  0  0  0  0
    4.6269   -2.5799    0.7692 C   0  0  0  0  0  0  0  0  0  0  0  0
    3.2750   -3.3537    0.9613 C   0  0  1  0  0  0  0  0  0  0  0  0
    2.8799   -4.2599   -0.2151 C   0  0  0  0  0  0  0  0  0  0  0  0
    3.3241   -4.0604    2.3282 C   0  0  1  0  0  0  0  0  0  0  0  0
    2.1474   -4.3710    3.2129 C   0  0  0  0  0  0  0  0  0  0  0  0
    4.4214   -5.1237    2.6438 C   0  0  2  0  0  0  0  0  0  0  0  0
    3.8311   -8.3284    6.3816 H   0  0  0  0  0  0  0  0  0  0  0  0
    5.5701   -8.3712    6.5459 H   0  0  0  0  0  0  0  0  0  0  0  0
    4.7731   -9.5165    5.4826 H   0  0  0  0  0  0  0  0  0  0  0  0
    5.9636   -7.7098    4.3583 H   0  0  0  0  0  0  0  0  0  0  0  0
    4.6574   -5.9151    6.1444 H   0  0  0  0  0  0  0  0  0  0  0  0
    6.0489   -5.7404    5.1672 H   0  0  0  0  0  0  0  0  0  0  0  0
    4.7347   -4.0453    4.4767 H   0  0  0  0  0  0  0  0  0  0  0  0
    2.6326   -6.7278    5.4574 H   0  0  0  0  0  0  0  0  0  0  0  0
    1.9403   -5.4016    6.2719 H   0  0  0  0  0  0  0  0  0  0  0  0
   -0.1119   -5.7909    5.3130 H   0  0  0  0  0  0  0  0  0  0  0  0
    0.5447   -9.9701    3.8236 H   0  0  0  0  0  0  0  0  0  0  0  0
    0.5149   -9.9637    2.0673 H   0  0  0  0  0  0  0  0  0  0  0  0
    1.9214   -8.3096    0.9021 H   0  0  0  0  0  0  0  0  0  0  0  0
    1.7688   -6.6246    1.3681 H   0  0  0  0  0  0  0  0  0  0  0  0
    0.3475   -7.5694    1.0588 H   0  0  0  0  0  0  0  0  0  0  0  0
    2.5240   -8.7453    4.5966 H   0  0  0  0  0  0  0  0  0  0  0  0
    2.8564   -9.4822    3.1179 H   0  0  0  0  0  0  0  0  0  0  0  0
    4.6014   -8.6060    2.9658 H   0  0  0  0  0  0  0  0  0  0  0  0
    3.8370   -6.8338    1.3632 H   0  0  0  0  0  0  0  0  0  0  0  0
    6.4206   -7.7694    2.2831 H   0  0  0  0  0  0  0  0  0  0  0  0
    5.9100   -7.1618    0.7560 H   0  0  0  0  0  0  0  0  0  0  0  0
    7.0640   -5.5694    3.0967 H   0  0  0  0  0  0  0  0  0  0  0  0
    7.7015   -5.5509    0.0826 H   0  0  0  0  0  0  0  0  0  0  0  0
    8.6739   -6.3319    1.3224 H   0  0  0  0  0  0  0  0  0  0  0  0
    8.5054   -4.5860    1.3176 H   0  0  0  0  0  0  0  0  0  0  0  0
    5.3942   -4.9027    0.7603 H   0  0  0  0  0  0  0  0  0  0  0  0
    5.8985   -2.6418    2.5682 H   0  0  0  0  0  0  0  0  0  0  0  0
    6.7629   -2.9287    1.0729 H   0  0  0  0  0  0  0  0  0  0  0  0
    4.4878   -1.5347    1.0359 H   0  0  0  0  0  0  0  0  0  0  0  0
    4.8881   -2.5753   -0.2942 H   0  0  0  0  0  0  0  0  0  0  0  0
    2.4921   -2.5876    1.0069 H   0  0  0  0  0  0  0  0  0  0  0  0
    3.5641   -5.0958   -0.3552 H   0  0  0  0  0  0  0  0  0  0  0  0
    2.8589   -3.6993   -1.1521 H   0  0  0  0  0  0  0  0  0  0  0  0
    1.8860   -4.6797   -0.0766 H   0  0  0  0  0  0  0  0  0  0  0  0
    3.6417   -3.1634    2.8694 H   0  0  0  0  0  0  0  0  0  0  0  0
    1.5356   -5.1152    2.7194 H   0  0  0  0  0  0  0  0  0  0  0  0
    1.5095   -3.4930    3.3745 H   0  0  0  0  0  0  0  0  0  0  0  0
    2.7829   -3.9810    5.0507 H   0  0  0  0  0  0  0  0  0  0  0  0
  1  2  1  0
  1 29  1  0
  1 30  1  0
  1 31  1  0
  2 16  1  0
  2  3  1  0
  2 32  1  6
  3  4  1  0
  3 33  1  0
  3 34  1  0
  4 28  1  0
  4  5  1  0
  4 35  1  1
  5 27  1  0
  5  6  1  0
  5 66  1  1
  6  7  1  0
  6 36  1  0
  6 37  1  0
  7  8  2  3
  7 38  1  0
  8 13  1  0
  8  9  1  0
  9 10  2  0
  9 11  1  0
 11 12  1  0
 12 13  1  0
 12 39  1  0
 12 40  1  0
 13 14  1  6
 13 15  1  0
 14 41  1  0
 14 42  1  0
 14 43  1  0
 15 16  1  0
 15 44  1  0
 15 45  1  0
 16 17  1  0
 16 46  1  6
 28 17  1  6
 17 18  1  0
 17 47  1  6
 18 19  1  0
 18 48  1  0
 18 49  1  0
 19 20  1  0
 19 21  1  0
 19 50  1  1
 20 51  1  0
 20 52  1  0
 20 53  1  0
 21 28  1  0
 21 22  1  0
 21 54  1  6
 22 23  1  0
 22 55  1  0
 22 56  1  0
 23 24  1  0
 23 57  1  0
 23 58  1  0
 24 25  1  0
 24 26  1  0
 24 59  1  1
 25 60  1  0
 25 61  1  0
 25 62  1  0
 26 27  1  0
 26 28  1  0
 26 63  1  1
 27 64  1  0
 27 65  1  0
M  CHG  1   5   1
M  END
>  <i_m_ct_stereo_status>  (253) 
1

>  <s_m_source_file>  (253) 
/var/tmp/pbs.5076255.sched01/tmpnby3vxlc/96d7dj3887.sdf

>  <i_m_source_file_index>  (253) 
9

>  <i_lp_mmshare_version>  (253) 
48012

>  <i_f3d_flags>  (253) 
0

>  <s_epik_input>  (253) 
QzEyM1tDQEhdNE41W0NIMl0vW0NIXT1DLzZbQ0BdKFtDSDNdKShbQ0gyXU9DNj1PKVtDSDJdW0NASF0oW0NASF0oW0NIM10pW0NIMl00KVtDQEBIXTFbQ0gyXVtDQEBIXShbQ0gzXSlbQ0BASF0yW0NIMl1bQ0gyXVtDQEBIXShbQ0gzXSlbQ0BIXTNbQ0gyXTU=

>  <s_epik_cmdline>  (253) 
J2VwaWtfcHl0aG9uJywgJy1waHQnLCAnMi4wJywgJy1waCcsICc3LjAnLCAnLXRuJywgJzgnLCAnLW1hJywgJzIwMCcsICctaW1hZScsICc8aW5maWxlLm1hZT4nLCAnLW9tYWUnLCAnPG91dGZpbGUubWFlPic=

>  <r_epik_Ionization_Penalty>  (253) 
0.0114804

>  <r_epik_Ionization_Penalty_Charging>  (253) 
0.0114804

>  <r_epik_Ionization_Penalty_Neutral>  (253) 
0

>  <r_epik_State_Penalty>  (253) 
0.00883737

>  <r_epik_Charging_Adjusted_Penalty>  (253) 
0.0203178

>  <i_epik_Tot_Q>  (253) 
1

>  <i_epik_Tot_abs_Q>  (253) 
1

>  <s_epik_Chemistry_Notes>  (253) 
This compound has an ester and may undergo hydrolysis at high or low pH.

>  <s_lp_Force_Field>  (253) 
OPLS3e

>  <r_lp_Energy>  (253) 
136.062

>  <b_lp_Chiralities_Consistent>  (253) 
1

>  <s_lp_Variant>  (253) 
59:0-3

>  <s_i_glide_gridfile>  (253) 
pfpi4k_grid

>  <i_i_glide_lignum>  (253) 
9

>  <i_i_glide_rotatable_bonds>  (253) 
0

>  <r_i_docking_score>  (253) 
-2.93904

>  <r_i_glide_ligand_efficiency>  (253) 
-0.104966

>  <r_i_glide_ligand_efficiency_sa>  (253) 
-0.318738

>  <r_i_glide_ligand_efficiency_ln>  (253) 
-0.678418

>  <r_i_glide_gscore>  (253) 
-2.93904

>  <r_i_glide_lipo>  (253) 
-0.336049

>  <r_i_glide_hbond>  (253) 
0

>  <r_i_glide_metal>  (253) 
-0

>  <r_i_glide_rewards>  (253) 
-0.786991

>  <r_i_glide_evdw>  (253) 
-26.3916

>  <r_i_glide_ecoul>  (253) 
-2.87869

>  <r_i_glide_erotb>  (253) 
0

>  <r_i_glide_esite>  (253) 
-0.0646206

>  <r_i_glide_emodel>  (253) 
-34.2095

>  <r_i_glide_energy>  (253) 
-29.2703

>  <r_i_glide_einternal>  (253) 
0

>  <r_i_glide_intrahb_reward>  (253) 
-0

>  <i_i_glide_confnum>  (253) 
1

>  <i_i_glide_posenum>  (253) 
13

>  <r_i_glide_eff_state_penalty>  (253) 
0

>  <ligand_id>  (253) 
59

>  <original_smiles>  (253) 
CC1CC2N3CC=C4C(=O)OCC4(C)CC1C1CC(C)C4CCC(C)C(C3)C412

>  <smiles>  (253) 
[H]C1=C2C(=O)OC([H])([H])C2(C([H])([H])[H])C([H])([H])C2([H])C([H])(C([H])([H])[H])C([H])([H])C3([H])C45C([H])(C([H])([H])C([H])([H])C([H])(C([H])([H])[H])C4([H])C([H])([H])[N+]3([H])C1([H])[H])C([H])(C([H])([H])[H])C([H])([H])C25[H]

$$$$
59:2:2
     RDKit          3D

 66 71  0  0  1  0  0  0  0  0999 V2000
    5.5253   -5.6623    5.4862 C   0  0  0  0  0  0  0  0  0  0  0  0
    5.5545   -5.0189    4.0885 C   0  0  2  0  0  0  0  0  0  0  0  0
    5.1815   -3.5188    4.1253 C   0  0  0  0  0  0  0  0  0  0  0  0
    4.3456   -2.9902    2.9439 C   0  0  2  0  0  0  0  0  0  0  0  0
    2.8509   -3.1350    3.1183 N   0  0  2  0  0  0  0  0  0  0  0  0
    2.3304   -4.0613    4.1656 C   0  0  0  0  0  0  0  0  0  0  0  0
    1.1630   -4.9593    3.7859 C   0  0  0  0  0  0  0  0  0  0  0  0
    1.2051   -6.1652    3.1581 C   0  0  0  0  0  0  0  0  0  0  0  0
    0.0107   -7.0162    3.1004 C   0  0  0  0  0  0  0  0  0  0  0  0
   -1.1507   -6.6587    3.2356 O   0  0  0  0  0  0  0  0  0  0  0  0
    0.4020   -8.2440    2.8186 O   0  0  0  0  0  0  0  0  0  0  0  0
    1.8060   -8.3950    2.8804 C   0  0  0  0  0  0  0  0  0  0  0  0
    2.3551   -6.9748    2.5878 C   0  0  1  0  0  0  0  0  0  0  0  0
    2.4145   -6.8850    1.0596 C   0  0  0  0  0  0  0  0  0  0  0  0
    3.7457   -6.8260    3.2706 C   0  0  0  0  0  0  0  0  0  0  0  0
    4.9102   -5.8057    2.9077 C   0  0  1  0  0  0  0  0  0  0  0  0
    5.0741   -5.0161    1.5454 C   0  0  2  0  0  0  0  0  0  0  0  0
    6.6137   -4.9782    1.2008 C   0  0  0  0  0  0  0  0  0  0  0  0
    7.0522   -3.5070    1.0685 C   0  0  1  0  0  0  0  0  0  0  0  0
    8.3014   -3.2974    0.1875 C   0  0  0  0  0  0  0  0  0  0  0  0
    5.7706   -2.9456    0.5406 C   0  0  2  0  0  0  0  0  0  0  0  0
    5.6142   -1.5372   -0.0572 C   0  0  0  0  0  0  0  0  0  0  0  0
    4.3914   -1.5628   -1.0246 C   0  0  0  0  0  0  0  0  0  0  0  0
    3.2993   -2.6282   -0.6295 C   0  0  1  0  0  0  0  0  0  0  0  0
    3.2359   -3.8427   -1.4927 C   0  0  0  0  0  0  0  0  0  0  0  0
    3.3849   -2.8712    0.8809 C   0  0  1  0  0  0  0  0  0  0  0  0
    2.2351   -3.2376    1.7779 C   0  0  0  0  0  0  0  0  0  0  0  0
    4.6605   -3.4827    1.4909 C   0  0  2  0  0  0  0  0  0  0  0  0
    4.5471   -5.6188    5.9612 H   0  0  0  0  0  0  0  0  0  0  0  0
    6.2196   -5.1472    6.1513 H   0  0  0  0  0  0  0  0  0  0  0  0
    5.8387   -6.7029    5.4422 H   0  0  0  0  0  0  0  0  0  0  0  0
    6.6198   -5.0384    3.8742 H   0  0  0  0  0  0  0  0  0  0  0  0
    4.7350   -3.2277    5.0792 H   0  0  0  0  0  0  0  0  0  0  0  0
    6.1010   -2.9465    4.1376 H   0  0  0  0  0  0  0  0  0  0  0  0
    4.5161   -1.9126    2.9489 H   0  0  0  0  0  0  0  0  0  0  0  0
    3.0705   -4.7023    4.6052 H   0  0  0  0  0  0  0  0  0  0  0  0
    1.9986   -3.4456    5.0017 H   0  0  0  0  0  0  0  0  0  0  0  0
    0.2117   -4.6114    4.1571 H   0  0  0  0  0  0  0  0  0  0  0  0
    2.0302   -8.7044    3.9002 H   0  0  0  0  0  0  0  0  0  0  0  0
    2.1657   -9.1698    2.2012 H   0  0  0  0  0  0  0  0  0  0  0  0
    3.2196   -7.5273    0.7002 H   0  0  0  0  0  0  0  0  0  0  0  0
    2.5827   -5.9004    0.6481 H   0  0  0  0  0  0  0  0  0  0  0  0
    1.4845   -7.2384    0.6058 H   0  0  0  0  0  0  0  0  0  0  0  0
    3.5594   -6.8298    4.3409 H   0  0  0  0  0  0  0  0  0  0  0  0
    4.1963   -7.8100    3.1312 H   0  0  0  0  0  0  0  0  0  0  0  0
    5.6685   -6.5751    2.7651 H   0  0  0  0  0  0  0  0  0  0  0  0
    4.6282   -5.5553    0.7192 H   0  0  0  0  0  0  0  0  0  0  0  0
    7.2716   -5.4825    1.9040 H   0  0  0  0  0  0  0  0  0  0  0  0
    6.7717   -5.4935    0.2574 H   0  0  0  0  0  0  0  0  0  0  0  0
    7.1827   -3.0789    2.0477 H   0  0  0  0  0  0  0  0  0  0  0  0
    8.1582   -3.6755   -0.8224 H   0  0  0  0  0  0  0  0  0  0  0  0
    9.1574   -3.8078    0.6204 H   0  0  0  0  0  0  0  0  0  0  0  0
    8.5621   -2.2439    0.1187 H   0  0  0  0  0  0  0  0  0  0  0  0
    5.6966   -3.5156   -0.3808 H   0  0  0  0  0  0  0  0  0  0  0  0
    5.4551   -0.8123    0.7385 H   0  0  0  0  0  0  0  0  0  0  0  0
    6.5032   -1.2351   -0.6044 H   0  0  0  0  0  0  0  0  0  0  0  0
    3.9412   -0.5669   -1.0555 H   0  0  0  0  0  0  0  0  0  0  0  0
    4.7236   -1.7704   -2.0399 H   0  0  0  0  0  0  0  0  0  0  0  0
    2.3254   -2.2136   -0.8479 H   0  0  0  0  0  0  0  0  0  0  0  0
    4.1130   -4.4921   -1.4016 H   0  0  0  0  0  0  0  0  0  0  0  0
    3.1324   -3.5723   -2.5386 H   0  0  0  0  0  0  0  0  0  0  0  0
    2.3349   -4.4196   -1.2354 H   0  0  0  0  0  0  0  0  0  0  0  0
    3.3923   -1.8093    1.1392 H   0  0  0  0  0  0  0  0  0  0  0  0
    1.8774   -4.2213    1.5184 H   0  0  0  0  0  0  0  0  0  0  0  0
    1.4224   -2.5242    1.7059 H   0  0  0  0  0  0  0  0  0  0  0  0
    2.5647   -2.2217    3.4421 H   0  0  0  0  0  0  0  0  0  0  0  0
  1  2  1  0
  1 29  1  0
  1 30  1  0
  1 31  1  0
  2 16  1  0
  2  3  1  0
  2 32  1  6
  3  4  1  0
  3 33  1  0
  3 34  1  0
  4 28  1  0
  4  5  1  0
  4 35  1  6
  5 27  1  0
  5  6  1  0
  5 66  1  1
  6  7  1  0
  6 36  1  0
  6 37  1  0
  7  8  2  3
  7 38  1  0
  8 13  1  0
  8  9  1  0
  9 10  2  0
  9 11  1  0
 11 12  1  0
 12 13  1  0
 12 39  1  0
 12 40  1  0
 13 14  1  6
 13 15  1  0
 14 41  1  0
 14 42  1  0
 14 43  1  0
 15 16  1  0
 15 44  1  0
 15 45  1  0
 16 17  1  0
 16 46  1  6
 28 17  1  1
 17 18  1  0
 17 47  1  6
 18 19  1  0
 18 48  1  0
 18 49  1  0
 19 20  1  0
 19 21  1  0
 19 50  1  1
 20 51  1  0
 20 52  1  0
 20 53  1  0
 21 28  1  0
 21 22  1  0
 21 54  1  6
 22 23  1  0
 22 55  1  0
 22 56  1  0
 23 24  1  0
 23 57  1  0
 23 58  1  0
 24 25  1  0
 24 26  1  0
 24 59  1  1
 25 60  1  0
 25 61  1  0
 25 62  1  0
 26 27  1  0
 26 28  1  0
 26 63  1  1
 27 64  1  0
 27 65  1  0
M  CHG  1   5   1
M  END
>  <i_m_ct_stereo_status>  (254) 
1

>  <s_m_source_file>  (254) 
/var/tmp/pbs.5076255.sched01/tmpnby3vxlc/96d7dj3887.sdf

>  <i_m_source_file_index>  (254) 
9

>  <i_lp_mmshare_version>  (254) 
48012

>  <i_f3d_flags>  (254) 
0

>  <s_epik_input>  (254) 
QzEyM1tDQEhdNE41W0NIMl0vW0NIXT1DLzZbQ0BdKFtDSDNdKShbQ0gyXU9DNj1PKVtDSDJdW0NASF0oW0NASF0oW0NIM10pW0NIMl00KVtDQEBIXTFbQ0gyXVtDQEBIXShbQ0gzXSlbQ0BASF0yW0NIMl1bQ0gyXVtDQEBIXShbQ0gzXSlbQ0BIXTNbQ0gyXTU=

>  <s_epik_cmdline>  (254) 
J2VwaWtfcHl0aG9uJywgJy1waHQnLCAnMi4wJywgJy1waCcsICc3LjAnLCAnLXRuJywgJzgnLCAnLW1hJywgJzIwMCcsICctaW1hZScsICc8aW5maWxlLm1hZT4nLCAnLW9tYWUnLCAnPG91dGZpbGUubWFlPic=

>  <r_epik_Ionization_Penalty>  (254) 
0.0114804

>  <r_epik_Ionization_Penalty_Charging>  (254) 
0.0114804

>  <r_epik_Ionization_Penalty_Neutral>  (254) 
0

>  <r_epik_State_Penalty>  (254) 
0.00883737

>  <r_epik_Charging_Adjusted_Penalty>  (254) 
0.0203178

>  <i_epik_Tot_Q>  (254) 
1

>  <i_epik_Tot_abs_Q>  (254) 
1

>  <s_epik_Chemistry_Notes>  (254) 
This compound has an ester and may undergo hydrolysis at high or low pH.

>  <s_lp_Force_Field>  (254) 
OPLS3e

>  <r_lp_Energy>  (254) 
136.062

>  <b_lp_Chiralities_Consistent>  (254) 
1

>  <s_lp_Variant>  (254) 
59:0-3

>  <s_i_glide_gridfile>  (254) 
pfpi4k_grid

>  <i_i_glide_lignum>  (254) 
9

>  <i_i_glide_rotatable_bonds>  (254) 
0

>  <r_i_docking_score>  (254) 
-2.83852

>  <r_i_glide_ligand_efficiency>  (254) 
-0.101376

>  <r_i_glide_ligand_efficiency_sa>  (254) 
-0.307836

>  <r_i_glide_ligand_efficiency_ln>  (254) 
-0.655213

>  <r_i_glide_gscore>  (254) 
-2.83852

>  <r_i_glide_lipo>  (254) 
-0.553556

>  <r_i_glide_hbond>  (254) 
-0.146769

>  <r_i_glide_metal>  (254) 
-0

>  <r_i_glide_rewards>  (254) 
-0.786991

>  <r_i_glide_evdw>  (254) 
-10.995

>  <r_i_glide_ecoul>  (254) 
-4.91967

>  <r_i_glide_erotb>  (254) 
0

>  <r_i_glide_esite>  (254) 
-0.0635025

>  <r_i_glide_emodel>  (254) 
-20.5899

>  <r_i_glide_energy>  (254) 
-15.9146

>  <r_i_glide_einternal>  (254) 
0

>  <r_i_glide_intrahb_reward>  (254) 
-0

>  <i_i_glide_confnum>  (254) 
1

>  <i_i_glide_posenum>  (254) 
10

>  <r_i_glide_eff_state_penalty>  (254) 
0

>  <ligand_id>  (254) 
59

>  <original_smiles>  (254) 
CC1CC2N3CC=C4C(=O)OCC4(C)CC1C1CC(C)C4CCC(C)C(C3)C412

>  <smiles>  (254) 
[H]C1=C2C(=O)OC([H])([H])C2(C([H])([H])[H])C([H])([H])C2([H])C([H])(C([H])([H])[H])C([H])([H])C3([H])C45C([H])(C([H])([H])C([H])([H])C([H])(C([H])([H])[H])C4([H])C([H])([H])[N+]3([H])C1([H])[H])C([H])(C([H])([H])[H])C([H])([H])C25[H]

$$$$
59:3:0
     RDKit          3D

 66 71  0  0  1  0  0  0  0  0999 V2000
    4.8765   -7.2555    4.4936 C   0  0  0  0  0  0  0  0  0  0  0  0
    4.7575   -6.1088    3.4686 C   0  0  2  0  0  0  0  0  0  0  0  0
    4.5632   -4.7019    4.0547 C   0  0  0  0  0  0  0  0  0  0  0  0
    4.3292   -3.5479    3.0235 C   0  0  2  0  0  0  0  0  0  0  0  0
    2.9641   -2.9028    3.0259 N   0  0  2  0  0  0  0  0  0  0  0  0
    1.8542   -3.4042    3.8694 C   0  0  0  0  0  0  0  0  0  0  0  0
    1.3900   -4.7251    3.2910 C   0  0  0  0  0  0  0  0  0  0  0  0
    1.3920   -5.9507    3.8234 C   0  0  0  0  0  0  0  0  0  0  0  0
    1.5522   -6.3478    5.2212 C   0  0  0  0  0  0  0  0  0  0  0  0
    1.5315   -5.6042    6.1970 O   0  0  0  0  0  0  0  0  0  0  0  0
    1.6881   -7.6721    5.2437 O   0  0  0  0  0  0  0  0  0  0  0  0
    1.8146   -8.2833    3.9580 C   0  0  0  0  0  0  0  0  0  0  0  0
    1.5007   -7.1537    2.9504 C   0  0  1  0  0  0  0  0  0  0  0  0
    0.1329   -7.4556    2.2945 C   0  0  0  0  0  0  0  0  0  0  0  0
    2.5898   -6.9070    1.8410 C   0  0  0  0  0  0  0  0  0  0  0  0
    4.0695   -6.3718    2.0991 C   0  0  1  0  0  0  0  0  0  0  0  0
    4.6258   -5.2986    1.0704 C   0  0  2  0  0  0  0  0  0  0  0  0
    6.1149   -5.7360    0.7644 C   0  0  0  0  0  0  0  0  0  0  0  0
    7.0695   -4.6227    1.2367 C   0  0  1  0  0  0  0  0  0  0  0  0
    8.4418   -4.6402    0.5478 C   0  0  0  0  0  0  0  0  0  0  0  0
    6.1682   -3.4600    0.9003 C   0  0  2  0  0  0  0  0  0  0  0  0
    6.6399   -2.0080    0.7499 C   0  0  0  0  0  0  0  0  0  0  0  0
    5.7085   -1.2845   -0.2797 C   0  0  0  0  0  0  0  0  0  0  0  0
    4.2519   -1.8564   -0.3675 C   0  0  1  0  0  0  0  0  0  0  0  0
    3.9517   -2.6996   -1.6188 C   0  0  0  0  0  0  0  0  0  0  0  0
    3.9417   -2.5366    0.9770 C   0  0  1  0  0  0  0  0  0  0  0  0
    2.6009   -2.5631    1.6450 C   0  0  0  0  0  0  0  0  0  0  0  0
    4.7630   -3.7601    1.5061 C   0  0  2  0  0  0  0  0  0  0  0  0
    4.0874   -7.2801    5.2318 H   0  0  0  0  0  0  0  0  0  0  0  0
    5.8003   -7.1389    5.0675 H   0  0  0  0  0  0  0  0  0  0  0  0
    4.9446   -8.2257    4.0018 H   0  0  0  0  0  0  0  0  0  0  0  0
    5.8038   -6.0779    3.2120 H   0  0  0  0  0  0  0  0  0  0  0  0
    3.8341   -4.7119    4.8562 H   0  0  0  0  0  0  0  0  0  0  0  0
    5.4851   -4.4693    4.5816 H   0  0  0  0  0  0  0  0  0  0  0  0
    4.9878   -2.7526    3.3919 H   0  0  0  0  0  0  0  0  0  0  0  0
    2.1065   -3.4643    4.9283 H   0  0  0  0  0  0  0  0  0  0  0  0
    1.0123   -2.7117    3.8023 H   0  0  0  0  0  0  0  0  0  0  0  0
    1.1989   -4.7023    2.2449 H   0  0  0  0  0  0  0  0  0  0  0  0
    2.8138   -8.6847    3.8148 H   0  0  0  0  0  0  0  0  0  0  0  0
    1.1257   -9.1204    3.8725 H   0  0  0  0  0  0  0  0  0  0  0  0
    0.1691   -8.3839    1.7214 H   0  0  0  0  0  0  0  0  0  0  0  0
   -0.1854   -6.6672    1.6150 H   0  0  0  0  0  0  0  0  0  0  0  0
   -0.6506   -7.5788    3.0486 H   0  0  0  0  0  0  0  0  0  0  0  0
    2.6820   -7.8550    1.3138 H   0  0  0  0  0  0  0  0  0  0  0  0
    2.1512   -6.2649    1.0783 H   0  0  0  0  0  0  0  0  0  0  0  0
    4.5626   -7.2935    1.8117 H   0  0  0  0  0  0  0  0  0  0  0  0
    4.0696   -5.3679    0.1346 H   0  0  0  0  0  0  0  0  0  0  0  0
    6.4378   -6.6903    1.1852 H   0  0  0  0  0  0  0  0  0  0  0  0
    6.2001   -5.8601   -0.3203 H   0  0  0  0  0  0  0  0  0  0  0  0
    7.2110   -4.6633    2.3180 H   0  0  0  0  0  0  0  0  0  0  0  0
    8.3641   -4.5566   -0.5346 H   0  0  0  0  0  0  0  0  0  0  0  0
    8.9729   -5.5647    0.7735 H   0  0  0  0  0  0  0  0  0  0  0  0
    9.0636   -3.8193    0.8977 H   0  0  0  0  0  0  0  0  0  0  0  0
    6.0611   -3.6504   -0.1693 H   0  0  0  0  0  0  0  0  0  0  0  0
    6.6049   -1.5020    1.7194 H   0  0  0  0  0  0  0  0  0  0  0  0
    7.6721   -1.9514    0.4107 H   0  0  0  0  0  0  0  0  0  0  0  0
    5.6681   -0.2300   -0.0139 H   0  0  0  0  0  0  0  0  0  0  0  0
    6.1627   -1.3237   -1.2783 H   0  0  0  0  0  0  0  0  0  0  0  0
    3.5906   -0.9835   -0.4557 H   0  0  0  0  0  0  0  0  0  0  0  0
    4.5310   -3.6252   -1.6658 H   0  0  0  0  0  0  0  0  0  0  0  0
    4.1695   -2.1384   -2.5276 H   0  0  0  0  0  0  0  0  0  0  0  0
    2.8990   -2.9739   -1.6589 H   0  0  0  0  0  0  0  0  0  0  0  0
    4.3139   -1.6929    1.5660 H   0  0  0  0  0  0  0  0  0  0  0  0
    2.0001   -3.2919    1.1003 H   0  0  0  0  0  0  0  0  0  0  0  0
    2.0837   -1.6017    1.5751 H   0  0  0  0  0  0  0  0  0  0  0  0
    3.1650   -1.9972    3.4515 H   0  0  0  0  0  0  0  0  0  0  0  0
  1  2  1  0
  1 29  1  0
  1 30  1  0
  1 31  1  0
  2 16  1  0
  2  3  1  0
  2 32  1  6
  3  4  1  0
  3 33  1  0
  3 34  1  0
  4 28  1  0
  4  5  1  0
  4 35  1  1
  5 27  1  0
  5  6  1  0
  5 66  1  1
  6  7  1  0
  6 36  1  0
  6 37  1  0
  7  8  2  3
  7 38  1  0
  8 13  1  0
  8  9  1  0
  9 10  2  0
  9 11  1  0
 11 12  1  0
 12 13  1  0
 12 39  1  0
 12 40  1  0
 13 14  1  6
 13 15  1  0
 14 41  1  0
 14 42  1  0
 14 43  1  0
 15 16  1  0
 15 44  1  0
 15 45  1  0
 16 17  1  0
 16 46  1  6
 28 17  1  6
 17 18  1  0
 17 47  1  6
 18 19  1  0
 18 48  1  0
 18 49  1  0
 19 20  1  0
 19 21  1  0
 19 50  1  1
 20 51  1  0
 20 52  1  0
 20 53  1  0
 21 28  1  0
 21 22  1  0
 21 54  1  6
 22 23  1  0
 22 55  1  0
 22 56  1  0
 23 24  1  0
 23 57  1  0
 23 58  1  0
 24 25  1  0
 24 26  1  0
 24 59  1  6
 25 60  1  0
 25 61  1  0
 25 62  1  0
 26 27  1  0
 26 28  1  0
 26 63  1  1
 27 64  1  0
 27 65  1  0
M  CHG  1   5   1
M  END
>  <i_m_ct_stereo_status>  (255) 
1

>  <s_m_source_file>  (255) 
/var/tmp/pbs.5076255.sched01/tmpnby3vxlc/96d7dj3887.sdf

>  <i_m_source_file_index>  (255) 
10

>  <i_lp_mmshare_version>  (255) 
48012

>  <i_f3d_flags>  (255) 
0

>  <s_epik_input>  (255) 
QzEyM1tDQEhdNE41W0NIMl0vW0NIXT1DLzZbQ0BdKFtDSDNdKShbQ0gyXU9DNj1PKVtDSDJdW0NASF0oW0NASF0oW0NIM10pW0NIMl00KVtDQEBIXTFbQ0gyXVtDQEBIXShbQ0gzXSlbQ0BASF0yW0NIMl1bQ0gyXVtDQEBIXShbQ0gzXSlbQ0BIXTNbQ0gyXTU=

>  <s_epik_cmdline>  (255) 
J2VwaWtfcHl0aG9uJywgJy1waHQnLCAnMi4wJywgJy1waCcsICc3LjAnLCAnLXRuJywgJzgnLCAnLW1hJywgJzIwMCcsICctaW1hZScsICc8aW5maWxlLm1hZT4nLCAnLW9tYWUnLCAnPG91dGZpbGUubWFlPic=

>  <r_epik_Ionization_Penalty>  (255) 
0.0114804

>  <r_epik_Ionization_Penalty_Charging>  (255) 
0.0114804

>  <r_epik_Ionization_Penalty_Neutral>  (255) 
0

>  <r_epik_State_Penalty>  (255) 
0.00883737

>  <r_epik_Charging_Adjusted_Penalty>  (255) 
0.0203178

>  <i_epik_Tot_Q>  (255) 
1

>  <i_epik_Tot_abs_Q>  (255) 
1

>  <s_epik_Chemistry_Notes>  (255) 
This compound has an ester and may undergo hydrolysis at high or low pH.

>  <s_lp_Force_Field>  (255) 
OPLS3e

>  <r_lp_Energy>  (255) 
147.281

>  <b_lp_Chiralities_Consistent>  (255) 
1

>  <s_lp_Variant>  (255) 
59:0-4

>  <s_i_glide_gridfile>  (255) 
pfpi4k_grid

>  <i_i_glide_lignum>  (255) 
10

>  <i_i_glide_rotatable_bonds>  (255) 
0

>  <r_i_docking_score>  (255) 
-3.02548

>  <r_i_glide_ligand_efficiency>  (255) 
-0.108053

>  <r_i_glide_ligand_efficiency_sa>  (255) 
-0.328112

>  <r_i_glide_ligand_efficiency_ln>  (255) 
-0.69837

>  <r_i_glide_gscore>  (255) 
-3.02548

>  <r_i_glide_lipo>  (255) 
-0.501035

>  <r_i_glide_hbond>  (255) 
0

>  <r_i_glide_metal>  (255) 
-0

>  <r_i_glide_rewards>  (255) 
-0.786991

>  <r_i_glide_evdw>  (255) 
-26.1116

>  <r_i_glide_ecoul>  (255) 
-2.87047

>  <r_i_glide_erotb>  (255) 
0

>  <r_i_glide_esite>  (255) 
-0.0013033

>  <r_i_glide_emodel>  (255) 
-33.6293

>  <r_i_glide_energy>  (255) 
-28.9821

>  <r_i_glide_einternal>  (255) 
0

>  <r_i_glide_intrahb_reward>  (255) 
-0

>  <i_i_glide_confnum>  (255) 
2

>  <i_i_glide_posenum>  (255) 
1

>  <r_i_glide_eff_state_penalty>  (255) 
0

>  <ligand_id>  (255) 
59

>  <original_smiles>  (255) 
CC1CC2N3CC=C4C(=O)OCC4(C)CC1C1CC(C)C4CCC(C)C(C3)C412

>  <smiles>  (255) 
[H]C1=C2C(=O)OC([H])([H])C2(C([H])([H])[H])C([H])([H])C2([H])C([H])(C([H])([H])[H])C([H])([H])C3([H])C45C([H])(C([H])([H])C([H])([H])C([H])(C([H])([H])[H])C4([H])C([H])([H])[N+]3([H])C1([H])[H])C([H])(C([H])([H])[H])C([H])([H])C25[H]

$$$$
59:4:0
     RDKit          3D

 65 70  0  0  1  0  0  0  0  0999 V2000
    5.3877   -3.4271    4.7624 C   0  0  0  0  0  0  0  0  0  0  0  0
    5.1981   -4.1796    3.4339 C   0  0  2  0  0  0  0  0  0  0  0  0
    6.2206   -3.7705    2.3005 C   0  0  0  0  0  0  0  0  0  0  0  0
    5.6708   -3.8598    0.8748 C   0  0  2  0  0  0  0  0  0  0  0  0
    5.5104   -5.0905    0.0600 N   0  0  0  0  0  0  0  0  0  0  0  0
    4.8061   -6.3730    0.5358 C   0  0  0  0  0  0  0  0  0  0  0  0
    3.2644   -6.4250    0.5871 C   0  0  0  0  0  0  0  0  0  0  0  0
    2.3230   -6.4465    1.5846 C   0  0  0  0  0  0  0  0  0  0  0  0
    0.9044   -6.5028    1.2639 C   0  0  0  0  0  0  0  0  0  0  0  0
    0.4209   -6.3222    0.1599 O   0  0  0  0  0  0  0  0  0  0  0  0
    0.1913   -6.6720    2.3829 O   0  0  0  0  0  0  0  0  0  0  0  0
    0.9998   -6.7841    3.5337 C   0  0  0  0  0  0  0  0  0  0  0  0
    2.4019   -6.3012    3.0874 C   0  0  1  0  0  0  0  0  0  0  0  0
    3.4426   -7.2574    3.6958 C   0  0  0  0  0  0  0  0  0  0  0  0
    2.5413   -4.7795    3.5233 C   0  0  0  0  0  0  0  0  0  0  0  0
    3.7410   -4.0339    2.8930 C   0  0  1  0  0  0  0  0  0  0  0  0
    3.6847   -2.7711    2.0089 C   0  0  2  0  0  0  0  0  0  0  0  0
    2.5566   -1.8179    1.7462 C   0  0  0  0  0  0  0  0  0  0  0  0
    3.3183   -0.7757    0.8786 C   0  0  1  0  0  0  0  0  0  0  0  0
    3.5786    0.5280    1.6193 C   0  0  0  0  0  0  0  0  0  0  0  0
    4.6424   -1.4426    0.3573 C   0  0  2  0  0  0  0  0  0  0  0  0
    5.0704   -1.1700   -1.1023 C   0  0  0  0  0  0  0  0  0  0  0  0
    4.0439   -1.5538   -2.1571 C   0  0  0  0  0  0  0  0  0  0  0  0
    3.1662   -2.7006   -1.6601 C   0  0  1  0  0  0  0  0  0  0  0  0
    2.4543   -3.3865   -2.8407 C   0  0  0  0  0  0  0  0  0  0  0  0
    3.7310   -3.6149   -0.5465 C   0  0  1  0  0  0  0  0  0  0  0  0
    4.8295   -4.5185   -1.0748 C   0  0  0  0  0  0  0  0  0  0  0  0
    4.4362   -2.9391    0.6591 C   0  0  1  0  0  0  0  0  0  0  0  0
    5.2900   -2.3491    4.6167 H   0  0  0  0  0  0  0  0  0  0  0  0
    6.3662   -3.6362    5.1766 H   0  0  0  0  0  0  0  0  0  0  0  0
    4.6528   -3.7399    5.5091 H   0  0  0  0  0  0  0  0  0  0  0  0
    5.3852   -5.2322    3.6423 H   0  0  0  0  0  0  0  0  0  0  0  0
    6.5125   -2.7202    2.4283 H   0  0  0  0  0  0  0  0  0  0  0  0
    7.1710   -4.3545    2.3441 H   0  0  0  0  0  0  0  0  0  0  0  0
    5.4943   -4.7084    1.4430 H   0  0  0  0  0  0  0  0  0  0  0  0
    5.0322   -7.1381   -0.2013 H   0  0  0  0  0  0  0  0  0  0  0  0
    5.2531   -6.7566    1.4509 H   0  0  0  0  0  0  0  0  0  0  0  0
    2.8513   -6.3078   -0.3869 H   0  0  0  0  0  0  0  0  0  0  0  0
    0.5980   -6.2093    4.3808 H   0  0  0  0  0  0  0  0  0  0  0  0
    1.0122   -7.8454    3.7939 H   0  0  0  0  0  0  0  0  0  0  0  0
    3.4397   -7.1764    4.7857 H   0  0  0  0  0  0  0  0  0  0  0  0
    4.4505   -7.0737    3.3365 H   0  0  0  0  0  0  0  0  0  0  0  0
    3.2074   -8.2886    3.4200 H   0  0  0  0  0  0  0  0  0  0  0  0
    1.6449   -4.2360    3.2182 H   0  0  0  0  0  0  0  0  0  0  0  0
    2.6253   -4.7116    4.6073 H   0  0  0  0  0  0  0  0  0  0  0  0
    3.7532   -4.6888    2.0971 H   0  0  0  0  0  0  0  0  0  0  0  0
    4.3124   -2.1175    2.6209 H   0  0  0  0  0  0  0  0  0  0  0  0
    1.7655   -2.3069    1.1665 H   0  0  0  0  0  0  0  0  0  0  0  0
    2.1348   -1.3831    2.6630 H   0  0  0  0  0  0  0  0  0  0  0  0
    2.6828   -0.5099    0.0518 H   0  0  0  0  0  0  0  0  0  0  0  0
    4.2083    0.3731    2.5051 H   0  0  0  0  0  0  0  0  0  0  0  0
    2.6275    0.9791    1.9126 H   0  0  0  0  0  0  0  0  0  0  0  0
    4.0884    1.1772    0.9088 H   0  0  0  0  0  0  0  0  0  0  0  0
    5.4778   -1.1150    0.9851 H   0  0  0  0  0  0  0  0  0  0  0  0
    5.2998   -0.1262   -1.2344 H   0  0  0  0  0  0  0  0  0  0  0  0
    5.9768   -1.7266   -1.3030 H   0  0  0  0  0  0  0  0  0  0  0  0
    3.3894   -0.7083   -2.3552 H   0  0  0  0  0  0  0  0  0  0  0  0
    4.5079   -1.8195   -3.1166 H   0  0  0  0  0  0  0  0  0  0  0  0
    2.3830   -2.2006   -1.1073 H   0  0  0  0  0  0  0  0  0  0  0  0
    3.1872   -3.8620   -3.5017 H   0  0  0  0  0  0  0  0  0  0  0  0
    1.8786   -2.6726   -3.4478 H   0  0  0  0  0  0  0  0  0  0  0  0
    1.7548   -4.1522   -2.4820 H   0  0  0  0  0  0  0  0  0  0  0  0
    2.8571   -4.1416   -0.1685 H   0  0  0  0  0  0  0  0  0  0  0  0
    5.5088   -3.9365   -1.7042 H   0  0  0  0  0  0  0  0  0  0  0  0
    4.3968   -5.3776   -1.5229 H   0  0  0  0  0  0  0  0  0  0  0  0
  1  2  1  0
  1 29  1  0
  1 30  1  0
  1 31  1  0
  2 16  1  0
  2  3  1  0
  2 32  1  1
  3  4  1  0
  3 33  1  0
  3 34  1  0
 28  4  1  1
  4  5  1  0
  4 35  1  6
  5 27  1  0
  5  6  1  0
  6  7  1  0
  6 36  1  0
  6 37  1  0
  7  8  2  3
  7 38  1  0
  8 13  1  0
  8  9  1  0
  9 10  2  0
  9 11  1  0
 11 12  1  0
 12 13  1  0
 12 39  1  0
 12 40  1  0
 13 14  1  1
 13 15  1  0
 14 41  1  0
 14 42  1  0
 14 43  1  0
 15 16  1  0
 15 44  1  0
 15 45  1  0
 16 17  1  0
 16 46  1  6
 17 28  1  0
 17 18  1  0
 17 47  1  1
 18 19  1  0
 18 48  1  0
 18 49  1  0
 19 20  1  0
 19 21  1  0
 19 50  1  6
 20 51  1  0
 20 52  1  0
 20 53  1  0
 21 28  1  0
 21 22  1  0
 21 54  1  1
 22 23  1  0
 22 55  1  0
 22 56  1  0
 23 24  1  0
 23 57  1  0
 23 58  1  0
 24 25  1  0
 24 26  1  0
 24 59  1  1
 25 60  1  0
 25 61  1  0
 25 62  1  0
 26 27  1  0
 26 28  1  0
 26 63  1  1
 27 64  1  0
 27 65  1  0
M  END
>  <i_m_ct_stereo_status>  (256) 
1

>  <s_m_source_file>  (256) 
/var/tmp/pbs.5076255.sched01/tmpnby3vxlc/96d7dj3887.sdf

>  <i_m_source_file_index>  (256) 
11

>  <i_lp_mmshare_version>  (256) 
48012

>  <i_f3d_flags>  (256) 
0

>  <s_epik_input>  (256) 
QzEyM1tDQEhdNE41W0NIMl0vW0NIXT1DLzZbQ0BdKFtDSDNdKShbQ0gyXU9DNj1PKVtDSDJdW0NASF0oW0NASF0oW0NIM10pW0NIMl00KVtDQEBIXTFbQ0gyXVtDQEBIXShbQ0gzXSlbQ0BASF0yW0NIMl1bQ0gyXVtDQEBIXShbQ0gzXSlbQ0BIXTNbQ0gyXTU=

>  <s_epik_cmdline>  (256) 
J2VwaWtfcHl0aG9uJywgJy1waHQnLCAnMi4wJywgJy1waCcsICc3LjAnLCAnLXRuJywgJzgnLCAnLW1hJywgJzIwMCcsICctaW1hZScsICc8aW5maWxlLm1hZT4nLCAnLW9tYWUnLCAnPG91dGZpbGUubWFlPic=

>  <r_epik_Ionization_Penalty>  (256) 
2.34231

>  <r_epik_Ionization_Penalty_Charging>  (256) 
0

>  <r_epik_Ionization_Penalty_Neutral>  (256) 
2.34231

>  <r_epik_State_Penalty>  (256) 
2.49602

>  <r_epik_Charging_Adjusted_Penalty>  (256) 
2.49602

>  <i_epik_Tot_Q>  (256) 
0

>  <i_epik_Tot_abs_Q>  (256) 
0

>  <s_epik_Chemistry_Notes>  (256) 
This compound has an ester and may undergo hydrolysis at high or low pH.

>  <s_lp_Force_Field>  (256) 
OPLS3e

>  <r_lp_Energy>  (256) 
169.674

>  <b_lp_Chiralities_Consistent>  (256) 
1

>  <s_lp_Variant>  (256) 
59:0-5

>  <s_i_glide_gridfile>  (256) 
pfpi4k_grid

>  <i_i_glide_lignum>  (256) 
11

>  <i_i_glide_rotatable_bonds>  (256) 
0

>  <r_i_docking_score>  (256) 
-3.1347

>  <r_i_glide_ligand_efficiency>  (256) 
-0.111954

>  <r_i_glide_ligand_efficiency_sa>  (256) 
-0.339957

>  <r_i_glide_ligand_efficiency_ln>  (256) 
-0.723582

>  <r_i_glide_gscore>  (256) 
-3.1347

>  <r_i_glide_lipo>  (256) 
-0.520028

>  <r_i_glide_hbond>  (256) 
-0.43925

>  <r_i_glide_metal>  (256) 
-0

>  <r_i_glide_rewards>  (256) 
-0.793863

>  <r_i_glide_evdw>  (256) 
-9.56201

>  <r_i_glide_ecoul>  (256) 
-5.40611

>  <r_i_glide_erotb>  (256) 
0

>  <r_i_glide_esite>  (256) 
-0.0925454

>  <r_i_glide_emodel>  (256) 
-18.1106

>  <r_i_glide_energy>  (256) 
-14.9681

>  <r_i_glide_einternal>  (256) 
0

>  <r_i_glide_intrahb_reward>  (256) 
-0

>  <i_i_glide_confnum>  (256) 
1

>  <i_i_glide_posenum>  (256) 
13

>  <r_i_glide_eff_state_penalty>  (256) 
0

>  <ligand_id>  (256) 
59

>  <original_smiles>  (256) 
CC1CC2N3CC=C4C(=O)OCC4(C)CC1C1CC(C)C4CCC(C)C(C3)C412

>  <smiles>  (256) 
[H]C1=C2C(=O)OC([H])([H])C2(C([H])([H])[H])C([H])([H])C2([H])C([H])(C([H])([H])[H])C([H])([H])C3([H])N(C1([H])[H])C([H])([H])C1([H])C([H])(C([H])([H])[H])C([H])([H])C([H])([H])C4([H])C([H])(C([H])([H])[H])C([H])([H])C2([H])C314

$$$$
59:4:1
     RDKit          3D

 65 70  0  0  1  0  0  0  0  0999 V2000
    6.8539   -8.2363    4.2718 C   0  0  0  0  0  0  0  0  0  0  0  0
    5.9894   -7.4153    3.2993 C   0  0  2  0  0  0  0  0  0  0  0  0
    6.6076   -5.9843    2.9626 C   0  0  0  0  0  0  0  0  0  0  0  0
    5.5050   -4.9085    2.6213 C   0  0  2  0  0  0  0  0  0  0  0  0
    4.6577   -4.6897    1.3890 N   0  0  0  0  0  0  0  0  0  0  0  0
    3.9140   -5.7902    0.6411 C   0  0  0  0  0  0  0  0  0  0  0  0
    2.5062   -6.2319    1.1182 C   0  0  0  0  0  0  0  0  0  0  0  0
    2.0623   -7.3399    1.7897 C   0  0  0  0  0  0  0  0  0  0  0  0
    0.6404   -7.4876    2.1161 C   0  0  0  0  0  0  0  0  0  0  0  0
   -0.2414   -6.6380    1.9558 O   0  0  0  0  0  0  0  0  0  0  0  0
    0.4433   -8.6854    2.6588 O   0  0  0  0  0  0  0  0  0  0  0  0
    1.5683   -9.5383    2.5619 C   0  0  0  0  0  0  0  0  0  0  0  0
    2.7673   -8.5946    2.3398 C   0  0  1  0  0  0  0  0  0  0  0  0
    3.6930   -9.2641    1.3017 C   0  0  0  0  0  0  0  0  0  0  0  0
    3.4716   -8.3725    3.7442 C   0  0  0  0  0  0  0  0  0  0  0  0
    4.5073   -7.2291    3.7806 C   0  0  1  0  0  0  0  0  0  0  0  0
    4.4518   -5.9772    4.6775 C   0  0  2  0  0  0  0  0  0  0  0  0
    3.5781   -5.6575    5.8706 C   0  0  0  0  0  0  0  0  0  0  0  0
    4.1966   -4.2807    6.2806 C   0  0  1  0  0  0  0  0  0  0  0  0
    5.0368   -4.3543    7.5663 C   0  0  0  0  0  0  0  0  0  0  0  0
    5.0260   -3.7699    5.0408 C   0  0  2  0  0  0  0  0  0  0  0  0
    4.9348   -2.2653    4.7513 C   0  0  0  0  0  0  0  0  0  0  0  0
    3.5061   -1.7842    4.4752 C   0  0  0  0  0  0  0  0  0  0  0  0
    2.5574   -2.8914    3.9677 C   0  0  1  0  0  0  0  0  0  0  0  0
    1.3771   -2.2722    3.2025 C   0  0  0  0  0  0  0  0  0  0  0  0
    3.2712   -4.0569    3.2200 C   0  0  1  0  0  0  0  0  0  0  0  0
    3.7232   -3.6560    1.8052 C   0  0  0  0  0  0  0  0  0  0  0  0
    4.5615   -4.6593    3.8614 C   0  0  1  0  0  0  0  0  0  0  0  0
    6.9728   -7.7357    5.2342 H   0  0  0  0  0  0  0  0  0  0  0  0
    7.8507   -8.3980    3.8581 H   0  0  0  0  0  0  0  0  0  0  0  0
    6.4111   -9.2170    4.4591 H   0  0  0  0  0  0  0  0  0  0  0  0
    5.9846   -7.9757    2.3678 H   0  0  0  0  0  0  0  0  0  0  0  0
    7.1576   -5.6435    3.8381 H   0  0  0  0  0  0  0  0  0  0  0  0
    7.3639   -6.0720    2.1812 H   0  0  0  0  0  0  0  0  0  0  0  0
    5.4103   -5.7876    2.0511 H   0  0  0  0  0  0  0  0  0  0  0  0
    3.7369   -5.3916   -0.3602 H   0  0  0  0  0  0  0  0  0  0  0  0
    4.5553   -6.6485    0.4599 H   0  0  0  0  0  0  0  0  0  0  0  0
    1.7646   -5.4923    0.8689 H   0  0  0  0  0  0  0  0  0  0  0  0
    1.6783  -10.1804    3.4380 H   0  0  0  0  0  0  0  0  0  0  0  0
    1.4069  -10.1857    1.7017 H   0  0  0  0  0  0  0  0  0  0  0  0
    4.1006  -10.1984    1.6945 H   0  0  0  0  0  0  0  0  0  0  0  0
    4.5322   -8.6535    0.9882 H   0  0  0  0  0  0  0  0  0  0  0  0
    3.1417   -9.5261    0.3976 H   0  0  0  0  0  0  0  0  0  0  0  0
    2.7002   -8.1440    4.4835 H   0  0  0  0  0  0  0  0  0  0  0  0
    3.9401   -9.3008    4.0745 H   0  0  0  0  0  0  0  0  0  0  0  0
    4.0571   -6.7853    2.9436 H   0  0  0  0  0  0  0  0  0  0  0  0
    5.3908   -6.1144    5.2148 H   0  0  0  0  0  0  0  0  0  0  0  0
    2.5350   -5.5592    5.5686 H   0  0  0  0  0  0  0  0  0  0  0  0
    3.6406   -6.4083    6.6599 H   0  0  0  0  0  0  0  0  0  0  0  0
    3.3832   -3.5953    6.5116 H   0  0  0  0  0  0  0  0  0  0  0  0
    5.8751   -5.0450    7.4636 H   0  0  0  0  0  0  0  0  0  0  0  0
    4.4237   -4.6902    8.4054 H   0  0  0  0  0  0  0  0  0  0  0  0
    5.4349   -3.3729    7.8244 H   0  0  0  0  0  0  0  0  0  0  0  0
    6.0799   -3.9890    5.2275 H   0  0  0  0  0  0  0  0  0  0  0  0
    5.3793   -1.6892    5.5628 H   0  0  0  0  0  0  0  0  0  0  0  0
    5.5398   -2.0644    3.8693 H   0  0  0  0  0  0  0  0  0  0  0  0
    3.0858   -1.3767    5.3953 H   0  0  0  0  0  0  0  0  0  0  0  0
    3.5319   -0.9464    3.7737 H   0  0  0  0  0  0  0  0  0  0  0  0
    2.0921   -3.3430    4.8418 H   0  0  0  0  0  0  0  0  0  0  0  0
    1.7102   -1.7237    2.3221 H   0  0  0  0  0  0  0  0  0  0  0  0
    0.8430   -1.5653    3.8404 H   0  0  0  0  0  0  0  0  0  0  0  0
    0.6660   -3.0337    2.8829 H   0  0  0  0  0  0  0  0  0  0  0  0
    2.5350   -4.8513    3.1657 H   0  0  0  0  0  0  0  0  0  0  0  0
    4.2623   -2.7098    1.8371 H   0  0  0  0  0  0  0  0  0  0  0  0
    2.8969   -3.5217    1.1062 H   0  0  0  0  0  0  0  0  0  0  0  0
  1  2  1  0
  1 29  1  0
  1 30  1  0
  1 31  1  0
  2 16  1  0
  2  3  1  0
  2 32  1  6
  3  4  1  0
  3 33  1  0
  3 34  1  0
 28  4  1  6
  4  5  1  0
  4 35  1  6
  5 27  1  0
  5  6  1  0
  6  7  1  0
  6 36  1  0
  6 37  1  0
  7  8  2  3
  7 38  1  0
  8 13  1  0
  8  9  1  0
  9 10  2  0
  9 11  1  0
 11 12  1  0
 12 13  1  0
 12 39  1  0
 12 40  1  0
 13 14  1  6
 13 15  1  0
 14 41  1  0
 14 42  1  0
 14 43  1  0
 15 16  1  0
 15 44  1  0
 15 45  1  0
 16 17  1  0
 16 46  1  6
 17 28  1  0
 17 18  1  0
 17 47  1  1
 18 19  1  0
 18 48  1  0
 18 49  1  0
 19 20  1  0
 19 21  1  0
 19 50  1  1
 20 51  1  0
 20 52  1  0
 20 53  1  0
 21 28  1  0
 21 22  1  0
 21 54  1  1
 22 23  1  0
 22 55  1  0
 22 56  1  0
 23 24  1  0
 23 57  1  0
 23 58  1  0
 24 25  1  0
 24 26  1  0
 24 59  1  1
 25 60  1  0
 25 61  1  0
 25 62  1  0
 26 27  1  0
 26 28  1  0
 26 63  1  6
 27 64  1  0
 27 65  1  0
M  END
>  <i_m_ct_stereo_status>  (257) 
1

>  <s_m_source_file>  (257) 
/var/tmp/pbs.5076255.sched01/tmpnby3vxlc/96d7dj3887.sdf

>  <i_m_source_file_index>  (257) 
11

>  <i_lp_mmshare_version>  (257) 
48012

>  <i_f3d_flags>  (257) 
0

>  <s_epik_input>  (257) 
QzEyM1tDQEhdNE41W0NIMl0vW0NIXT1DLzZbQ0BdKFtDSDNdKShbQ0gyXU9DNj1PKVtDSDJdW0NASF0oW0NASF0oW0NIM10pW0NIMl00KVtDQEBIXTFbQ0gyXVtDQEBIXShbQ0gzXSlbQ0BASF0yW0NIMl1bQ0gyXVtDQEBIXShbQ0gzXSlbQ0BIXTNbQ0gyXTU=

>  <s_epik_cmdline>  (257) 
J2VwaWtfcHl0aG9uJywgJy1waHQnLCAnMi4wJywgJy1waCcsICc3LjAnLCAnLXRuJywgJzgnLCAnLW1hJywgJzIwMCcsICctaW1hZScsICc8aW5maWxlLm1hZT4nLCAnLW9tYWUnLCAnPG91dGZpbGUubWFlPic=

>  <r_epik_Ionization_Penalty>  (257) 
2.34231

>  <r_epik_Ionization_Penalty_Charging>  (257) 
0

>  <r_epik_Ionization_Penalty_Neutral>  (257) 
2.34231

>  <r_epik_State_Penalty>  (257) 
2.49602

>  <r_epik_Charging_Adjusted_Penalty>  (257) 
2.49602

>  <i_epik_Tot_Q>  (257) 
0

>  <i_epik_Tot_abs_Q>  (257) 
0

>  <s_epik_Chemistry_Notes>  (257) 
This compound has an ester and may undergo hydrolysis at high or low pH.

>  <s_lp_Force_Field>  (257) 
OPLS3e

>  <r_lp_Energy>  (257) 
169.674

>  <b_lp_Chiralities_Consistent>  (257) 
1

>  <s_lp_Variant>  (257) 
59:0-5

>  <s_i_glide_gridfile>  (257) 
pfpi4k_grid

>  <i_i_glide_lignum>  (257) 
11

>  <i_i_glide_rotatable_bonds>  (257) 
0

>  <r_i_docking_score>  (257) 
-2.90297

>  <r_i_glide_ligand_efficiency>  (257) 
-0.103677

>  <r_i_glide_ligand_efficiency_sa>  (257) 
-0.314826

>  <r_i_glide_ligand_efficiency_ln>  (257) 
-0.670091

>  <r_i_glide_gscore>  (257) 
-2.90297

>  <r_i_glide_lipo>  (257) 
-0.242423

>  <r_i_glide_hbond>  (257) 
-0.193862

>  <r_i_glide_metal>  (257) 
-0

>  <r_i_glide_rewards>  (257) 
-0.793863

>  <r_i_glide_evdw>  (257) 
-22.6725

>  <r_i_glide_ecoul>  (257) 
-3.25239

>  <r_i_glide_erotb>  (257) 
0

>  <r_i_glide_esite>  (257) 
-0.0513402

>  <r_i_glide_emodel>  (257) 
-30.7358

>  <r_i_glide_energy>  (257) 
-25.9248

>  <r_i_glide_einternal>  (257) 
0

>  <r_i_glide_intrahb_reward>  (257) 
-0

>  <i_i_glide_confnum>  (257) 
2

>  <i_i_glide_posenum>  (257) 
40

>  <r_i_glide_eff_state_penalty>  (257) 
0

>  <ligand_id>  (257) 
59

>  <original_smiles>  (257) 
CC1CC2N3CC=C4C(=O)OCC4(C)CC1C1CC(C)C4CCC(C)C(C3)C412

>  <smiles>  (257) 
[H]C1=C2C(=O)OC([H])([H])C2(C([H])([H])[H])C([H])([H])C2([H])C([H])(C([H])([H])[H])C([H])([H])C3([H])N(C1([H])[H])C([H])([H])C1([H])C([H])(C([H])([H])[H])C([H])([H])C([H])([H])C4([H])C([H])(C([H])([H])[H])C([H])([H])C2([H])C314

$$$$
59:5:0
     RDKit          3D

 65 70  0  0  1  0  0  0  0  0999 V2000
    1.1083   -4.9280    4.1803 C   0  0  0  0  0  0  0  0  0  0  0  0
    2.0850   -4.5217    3.0622 C   0  0  2  0  0  0  0  0  0  0  0  0
    2.2742   -5.6755    1.9849 C   0  0  0  0  0  0  0  0  0  0  0  0
    3.7189   -5.7130    1.4095 C   0  0  2  0  0  0  0  0  0  0  0  0
    4.1440   -5.1558    0.0866 N   0  0  0  0  0  0  0  0  0  0  0  0
    3.7590   -3.7836   -0.4303 C   0  0  0  0  0  0  0  0  0  0  0  0
    3.2106   -2.7604    0.5898 C   0  0  0  0  0  0  0  0  0  0  0  0
    3.8911   -1.9326    1.4221 C   0  0  0  0  0  0  0  0  0  0  0  0
    5.2867   -1.5082    1.2585 C   0  0  0  0  0  0  0  0  0  0  0  0
    6.0829   -1.8674    0.3926 O   0  0  0  0  0  0  0  0  0  0  0  0
    5.5625   -0.6539    2.2462 O   0  0  0  0  0  0  0  0  0  0  0  0
    4.4225   -0.2691    3.0021 C   0  0  0  0  0  0  0  0  0  0  0  0
    3.4132   -1.4103    2.7924 C   0  0  1  0  0  0  0  0  0  0  0  0
    1.9849   -0.8197    2.7393 C   0  0  0  0  0  0  0  0  0  0  0  0
    3.5685   -2.4674    4.0032 C   0  0  0  0  0  0  0  0  0  0  0  0
    3.4499   -3.9854    3.6453 C   0  0  1  0  0  0  0  0  0  0  0  0
    4.3907   -5.2159    3.8084 C   0  0  2  0  0  0  0  0  0  0  0  0
    5.5213   -5.4198    4.7906 C   0  0  0  0  0  0  0  0  0  0  0  0
    5.9416   -6.8809    4.4354 C   0  0  1  0  0  0  0  0  0  0  0  0
    5.5376   -7.9005    5.5143 C   0  0  0  0  0  0  0  0  0  0  0  0
    5.3257   -7.2143    3.0221 C   0  0  2  0  0  0  0  0  0  0  0  0
    6.2561   -8.0031    2.0854 C   0  0  0  0  0  0  0  0  0  0  0  0
    7.5658   -7.2649    1.7633 C   0  0  0  0  0  0  0  0  0  0  0  0
    7.4700   -5.7260    1.8888 C   0  0  1  0  0  0  0  0  0  0  0  0
    8.5717   -5.0467    1.0579 C   0  0  0  0  0  0  0  0  0  0  0  0
    6.0355   -5.1624    1.6525 C   0  0  1  0  0  0  0  0  0  0  0  0
    5.6010   -5.2691    0.1717 C   0  0  0  0  0  0  0  0  0  0  0  0
    4.8792   -5.8467    2.4500 C   0  0  1  0  0  0  0  0  0  0  0  0
    1.4660   -5.7851    4.7522 H   0  0  0  0  0  0  0  0  0  0  0  0
    0.1367   -5.1958    3.7669 H   0  0  0  0  0  0  0  0  0  0  0  0
    0.9527   -4.1041    4.8792 H   0  0  0  0  0  0  0  0  0  0  0  0
    1.5779   -3.7036    2.5725 H   0  0  0  0  0  0  0  0  0  0  0  0
    2.0647   -6.6394    2.4510 H   0  0  0  0  0  0  0  0  0  0  0  0
    1.5459   -5.5744    1.1829 H   0  0  0  0  0  0  0  0  0  0  0  0
    3.6792   -4.7017    1.5128 H   0  0  0  0  0  0  0  0  0  0  0  0
    4.5590   -3.3338   -1.0203 H   0  0  0  0  0  0  0  0  0  0  0  0
    2.9521   -3.9436   -1.1468 H   0  0  0  0  0  0  0  0  0  0  0  0
    2.1734   -2.9364    0.8053 H   0  0  0  0  0  0  0  0  0  0  0  0
    4.6603   -0.0796    4.0493 H   0  0  0  0  0  0  0  0  0  0  0  0
    4.0433    0.6612    2.5784 H   0  0  0  0  0  0  0  0  0  0  0  0
    1.7477   -0.2955    3.6670 H   0  0  0  0  0  0  0  0  0  0  0  0
    1.2135   -1.5742    2.5933 H   0  0  0  0  0  0  0  0  0  0  0  0
    1.8828   -0.0970    1.9273 H   0  0  0  0  0  0  0  0  0  0  0  0
    4.5453   -2.3288    4.4735 H   0  0  0  0  0  0  0  0  0  0  0  0
    2.8469   -2.2354    4.7877 H   0  0  0  0  0  0  0  0  0  0  0  0
    4.1655   -3.6735    2.9292 H   0  0  0  0  0  0  0  0  0  0  0  0
    3.6745   -5.9288    4.2191 H   0  0  0  0  0  0  0  0  0  0  0  0
    6.3251   -4.7102    4.5990 H   0  0  0  0  0  0  0  0  0  0  0  0
    5.2051   -5.3066    5.8284 H   0  0  0  0  0  0  0  0  0  0  0  0
    7.0300   -6.9152    4.3965 H   0  0  0  0  0  0  0  0  0  0  0  0
    4.4577   -7.9244    5.6633 H   0  0  0  0  0  0  0  0  0  0  0  0
    6.0041   -7.6562    6.4698 H   0  0  0  0  0  0  0  0  0  0  0  0
    5.8627   -8.9048    5.2398 H   0  0  0  0  0  0  0  0  0  0  0  0
    4.4281   -7.8166    3.1731 H   0  0  0  0  0  0  0  0  0  0  0  0
    6.4714   -8.9887    2.4994 H   0  0  0  0  0  0  0  0  0  0  0  0
    5.7174   -8.1805    1.1574 H   0  0  0  0  0  0  0  0  0  0  0  0
    8.3480   -7.6101    2.4414 H   0  0  0  0  0  0  0  0  0  0  0  0
    7.9118   -7.5518    0.7691 H   0  0  0  0  0  0  0  0  0  0  0  0
    7.7248   -5.4754    2.9184 H   0  0  0  0  0  0  0  0  0  0  0  0
    8.4839   -5.2821   -0.0017 H   0  0  0  0  0  0  0  0  0  0  0  0
    9.5468   -5.4047    1.3895 H   0  0  0  0  0  0  0  0  0  0  0  0
    8.5588   -3.9626    1.1735 H   0  0  0  0  0  0  0  0  0  0  0  0
    6.0601   -4.1075    1.9119 H   0  0  0  0  0  0  0  0  0  0  0  0
    5.8537   -6.2558   -0.2122 H   0  0  0  0  0  0  0  0  0  0  0  0
    6.1287   -4.5518   -0.4574 H   0  0  0  0  0  0  0  0  0  0  0  0
  1  2  1  0
  1 29  1  0
  1 30  1  0
  1 31  1  0
  2 16  1  0
  2  3  1  0
  2 32  1  6
  3  4  1  0
  3 33  1  0
  3 34  1  0
 28  4  1  6
  4  5  1  0
  4 35  1  6
  5 27  1  0
  5  6  1  0
  6  7  1  0
  6 36  1  0
  6 37  1  0
  7  8  2  3
  7 38  1  0
  8 13  1  0
  8  9  1  0
  9 10  2  0
  9 11  1  0
 11 12  1  0
 12 13  1  0
 12 39  1  0
 12 40  1  0
 13 14  1  6
 13 15  1  0
 14 41  1  0
 14 42  1  0
 14 43  1  0
 15 16  1  0
 15 44  1  0
 15 45  1  0
 16 17  1  0
 16 46  1  6
 17 28  1  0
 17 18  1  0
 17 47  1  1
 18 19  1  0
 18 48  1  0
 18 49  1  0
 19 20  1  0
 19 21  1  0
 19 50  1  6
 20 51  1  0
 20 52  1  0
 20 53  1  0
 21 28  1  0
 21 22  1  0
 21 54  1  1
 22 23  1  0
 22 55  1  0
 22 56  1  0
 23 24  1  0
 23 57  1  0
 23 58  1  0
 24 25  1  0
 24 26  1  0
 24 59  1  1
 25 60  1  0
 25 61  1  0
 25 62  1  0
 26 27  1  0
 26 28  1  0
 26 63  1  1
 27 64  1  0
 27 65  1  0
M  END
>  <i_m_ct_stereo_status>  (258) 
1

>  <s_m_source_file>  (258) 
/var/tmp/pbs.5076255.sched01/tmpnby3vxlc/96d7dj3887.sdf

>  <i_m_source_file_index>  (258) 
12

>  <i_lp_mmshare_version>  (258) 
48012

>  <i_f3d_flags>  (258) 
0

>  <s_epik_input>  (258) 
QzEyM1tDQEhdNE41W0NIMl0vW0NIXT1DLzZbQ0BdKFtDSDNdKShbQ0gyXU9DNj1PKVtDSDJdW0NASF0oW0NASF0oW0NIM10pW0NIMl00KVtDQEBIXTFbQ0gyXVtDQEBIXShbQ0gzXSlbQ0BASF0yW0NIMl1bQ0gyXVtDQEBIXShbQ0gzXSlbQ0BIXTNbQ0gyXTU=

>  <s_epik_cmdline>  (258) 
J2VwaWtfcHl0aG9uJywgJy1waHQnLCAnMi4wJywgJy1waCcsICc3LjAnLCAnLXRuJywgJzgnLCAnLW1hJywgJzIwMCcsICctaW1hZScsICc8aW5maWxlLm1hZT4nLCAnLW9tYWUnLCAnPG91dGZpbGUubWFlPic=

>  <r_epik_Ionization_Penalty>  (258) 
2.34231

>  <r_epik_Ionization_Penalty_Charging>  (258) 
0

>  <r_epik_Ionization_Penalty_Neutral>  (258) 
2.34231

>  <r_epik_State_Penalty>  (258) 
2.49602

>  <r_epik_Charging_Adjusted_Penalty>  (258) 
2.49602

>  <i_epik_Tot_Q>  (258) 
0

>  <i_epik_Tot_abs_Q>  (258) 
0

>  <s_epik_Chemistry_Notes>  (258) 
This compound has an ester and may undergo hydrolysis at high or low pH.

>  <s_lp_Force_Field>  (258) 
OPLS3e

>  <r_lp_Energy>  (258) 
173.935

>  <b_lp_Chiralities_Consistent>  (258) 
1

>  <s_lp_Variant>  (258) 
59:0-6

>  <s_i_glide_gridfile>  (258) 
pfpi4k_grid

>  <i_i_glide_lignum>  (258) 
12

>  <i_i_glide_rotatable_bonds>  (258) 
0

>  <r_i_docking_score>  (258) 
-2.59968

>  <r_i_glide_ligand_efficiency>  (258) 
-0.0928456

>  <r_i_glide_ligand_efficiency_sa>  (258) 
-0.281934

>  <r_i_glide_ligand_efficiency_ln>  (258) 
-0.600082

>  <r_i_glide_gscore>  (258) 
-2.59968

>  <r_i_glide_lipo>  (258) 
-0.349635

>  <r_i_glide_hbond>  (258) 
0

>  <r_i_glide_metal>  (258) 
-0

>  <r_i_glide_rewards>  (258) 
-0.92725

>  <r_i_glide_evdw>  (258) 
-26.2752

>  <r_i_glide_ecoul>  (258) 
-0.0601991

>  <r_i_glide_erotb>  (258) 
0

>  <r_i_glide_esite>  (258) 
0

>  <r_i_glide_emodel>  (258) 
-30.3766

>  <r_i_glide_energy>  (258) 
-26.3354

>  <r_i_glide_einternal>  (258) 
0

>  <r_i_glide_intrahb_reward>  (258) 
-0

>  <i_i_glide_confnum>  (258) 
2

>  <i_i_glide_posenum>  (258) 
3

>  <r_i_glide_eff_state_penalty>  (258) 
0

>  <ligand_id>  (258) 
59

>  <original_smiles>  (258) 
CC1CC2N3CC=C4C(=O)OCC4(C)CC1C1CC(C)C4CCC(C)C(C3)C412

>  <smiles>  (258) 
[H]C1=C2C(=O)OC([H])([H])C2(C([H])([H])[H])C([H])([H])C2([H])C([H])(C([H])([H])[H])C([H])([H])C3([H])N(C1([H])[H])C([H])([H])C1([H])C([H])(C([H])([H])[H])C([H])([H])C([H])([H])C4([H])C([H])(C([H])([H])[H])C([H])([H])C2([H])C314

$$$$
59:5:1
     RDKit          3D

 65 70  0  0  1  0  0  0  0  0999 V2000
    0.7809   -5.7071    3.6023 C   0  0  0  0  0  0  0  0  0  0  0  0
    2.0656   -5.4441    2.7972 C   0  0  2  0  0  0  0  0  0  0  0  0
    2.5411   -6.7303    1.9991 C   0  0  0  0  0  0  0  0  0  0  0  0
    4.0923   -6.8332    1.9145 C   0  0  2  0  0  0  0  0  0  0  0  0
    4.9257   -6.4677    0.7328 N   0  0  0  0  0  0  0  0  0  0  0  0
    4.7686   -5.1785   -0.0601 C   0  0  0  0  0  0  0  0  0  0  0  0
    3.9476   -4.0359    0.5817 C   0  0  0  0  0  0  0  0  0  0  0  0
    4.3627   -3.0889    1.4620 C   0  0  0  0  0  0  0  0  0  0  0  0
    5.7498   -2.6742    1.6708 C   0  0  0  0  0  0  0  0  0  0  0  0
    6.7535   -3.1575    1.1523 O   0  0  0  0  0  0  0  0  0  0  0  0
    5.7454   -1.6687    2.5488 O   0  0  0  0  0  0  0  0  0  0  0  0
    4.4452   -1.2072    2.8814 C   0  0  0  0  0  0  0  0  0  0  0  0
    3.5123   -2.3807    2.5351 C   0  0  1  0  0  0  0  0  0  0  0  0
    2.1967   -1.8145    1.9676 C   0  0  0  0  0  0  0  0  0  0  0  0
    3.2511   -3.2585    3.8649 C   0  0  0  0  0  0  0  0  0  0  0  0
    3.1973   -4.8119    3.7004 C   0  0  1  0  0  0  0  0  0  0  0  0
    4.0030   -5.9972    4.3111 C   0  0  2  0  0  0  0  0  0  0  0  0
    4.7690   -6.0465    5.6148 C   0  0  0  0  0  0  0  0  0  0  0  0
    5.2279   -7.5395    5.6106 C   0  0  1  0  0  0  0  0  0  0  0  0
    4.4776   -8.4008    6.6402 C   0  0  0  0  0  0  0  0  0  0  0  0
    5.0685   -8.0745    4.1370 C   0  0  2  0  0  0  0  0  0  0  0  0
    6.2152   -8.9758    3.6543 C   0  0  0  0  0  0  0  0  0  0  0  0
    7.5826   -8.2724    3.6587 C   0  0  0  0  0  0  0  0  0  0  0  0
    7.5016   -6.7310    3.5439 C   0  0  1  0  0  0  0  0  0  0  0  0
    8.8244   -6.1703    2.9975 C   0  0  0  0  0  0  0  0  0  0  0  0
    6.2346   -6.2263    2.7924 C   0  0  1  0  0  0  0  0  0  0  0  0
    6.2832   -6.5532    1.2793 C   0  0  0  0  0  0  0  0  0  0  0  0
    4.8656   -6.8047    3.2733 C   0  0  1  0  0  0  0  0  0  0  0  0
    0.9188   -6.4680    4.3708 H   0  0  0  0  0  0  0  0  0  0  0  0
   -0.0208   -6.0491    2.9473 H   0  0  0  0  0  0  0  0  0  0  0  0
    0.4419   -4.7947    4.0960 H   0  0  0  0  0  0  0  0  0  0  0  0
    1.7640   -4.7077    2.0688 H   0  0  0  0  0  0  0  0  0  0  0  0
    2.1619   -7.6206    2.5007 H   0  0  0  0  0  0  0  0  0  0  0  0
    2.1005   -6.7462    1.0038 H   0  0  0  0  0  0  0  0  0  0  0  0
    4.0606   -5.8179    1.8669 H   0  0  0  0  0  0  0  0  0  0  0  0
    5.7253   -4.8055   -0.4243 H   0  0  0  0  0  0  0  0  0  0  0  0
    4.2219   -5.4434   -0.9640 H   0  0  0  0  0  0  0  0  0  0  0  0
    2.8916   -4.2034    0.4817 H   0  0  0  0  0  0  0  0  0  0  0  0
    4.3609   -0.8747    3.9168 H   0  0  0  0  0  0  0  0  0  0  0  0
    4.2372   -0.3475    2.2448 H   0  0  0  0  0  0  0  0  0  0  0  0
    1.6998   -1.1688    2.6952 H   0  0  0  0  0  0  0  0  0  0  0  0
    1.4875   -2.5917    1.6963 H   0  0  0  0  0  0  0  0  0  0  0  0
    2.3728   -1.2158    1.0717 H   0  0  0  0  0  0  0  0  0  0  0  0
    4.0411   -3.0457    4.5911 H   0  0  0  0  0  0  0  0  0  0  0  0
    2.3305   -2.9255    4.3478 H   0  0  0  0  0  0  0  0  0  0  0  0
    4.1096   -4.5936    3.2080 H   0  0  0  0  0  0  0  0  0  0  0  0
    3.1732   -6.6552    4.5706 H   0  0  0  0  0  0  0  0  0  0  0  0
    5.6172   -5.3621    5.5850 H   0  0  0  0  0  0  0  0  0  0  0  0
    4.1516   -5.7918    6.4769 H   0  0  0  0  0  0  0  0  0  0  0  0
    6.2725   -7.5662    5.9158 H   0  0  0  0  0  0  0  0  0  0  0  0
    3.4037   -8.4163    6.4489 H   0  0  0  0  0  0  0  0  0  0  0  0
    4.6355   -8.0210    7.6506 H   0  0  0  0  0  0  0  0  0  0  0  0
    4.8381   -9.4303    6.6181 H   0  0  0  0  0  0  0  0  0  0  0  0
    4.1473   -8.6600    4.0821 H   0  0  0  0  0  0  0  0  0  0  0  0
    6.2585   -9.8903    4.2458 H   0  0  0  0  0  0  0  0  0  0  0  0
    5.9847   -9.2888    2.6382 H   0  0  0  0  0  0  0  0  0  0  0  0
    8.1035   -8.5128    4.5857 H   0  0  0  0  0  0  0  0  0  0  0  0
    8.2092   -8.6842    2.8668 H   0  0  0  0  0  0  0  0  0  0  0  0
    7.4377   -6.3337    4.5563 H   0  0  0  0  0  0  0  0  0  0  0  0
    9.0331   -6.5615    2.0041 H   0  0  0  0  0  0  0  0  0  0  0  0
    9.6523   -6.4611    3.6465 H   0  0  0  0  0  0  0  0  0  0  0  0
    8.8166   -5.0824    2.9374 H   0  0  0  0  0  0  0  0  0  0  0  0
    6.2107   -5.1450    2.8916 H   0  0  0  0  0  0  0  0  0  0  0  0
    6.6229   -7.5799    1.1387 H   0  0  0  0  0  0  0  0  0  0  0  0
    7.0012   -5.9235    0.7567 H   0  0  0  0  0  0  0  0  0  0  0  0
  1  2  1  0
  1 29  1  0
  1 30  1  0
  1 31  1  0
  2 16  1  0
  2  3  1  0
  2 32  1  6
  3  4  1  0
  3 33  1  0
  3 34  1  0
 28  4  1  6
  4  5  1  0
  4 35  1  6
  5 27  1  0
  5  6  1  0
  6  7  1  0
  6 36  1  0
  6 37  1  0
  7  8  2  3
  7 38  1  0
  8 13  1  0
  8  9  1  0
  9 10  2  0
  9 11  1  0
 11 12  1  0
 12 13  1  0
 12 39  1  0
 12 40  1  0
 13 14  1  6
 13 15  1  0
 14 41  1  0
 14 42  1  0
 14 43  1  0
 15 16  1  0
 15 44  1  0
 15 45  1  0
 16 17  1  0
 16 46  1  6
 17 28  1  0
 17 18  1  0
 17 47  1  1
 18 19  1  0
 18 48  1  0
 18 49  1  0
 19 20  1  0
 19 21  1  0
 19 50  1  1
 20 51  1  0
 20 52  1  0
 20 53  1  0
 21 28  1  0
 21 22  1  0
 21 54  1  1
 22 23  1  0
 22 55  1  0
 22 56  1  0
 23 24  1  0
 23 57  1  0
 23 58  1  0
 24 25  1  0
 24 26  1  0
 24 59  1  1
 25 60  1  0
 25 61  1  0
 25 62  1  0
 26 27  1  0
 26 28  1  0
 26 63  1  6
 27 64  1  0
 27 65  1  0
M  END
>  <i_m_ct_stereo_status>  (259) 
1

>  <s_m_source_file>  (259) 
/var/tmp/pbs.5076255.sched01/tmpnby3vxlc/96d7dj3887.sdf

>  <i_m_source_file_index>  (259) 
12

>  <i_lp_mmshare_version>  (259) 
48012

>  <i_f3d_flags>  (259) 
0

>  <s_epik_input>  (259) 
QzEyM1tDQEhdNE41W0NIMl0vW0NIXT1DLzZbQ0BdKFtDSDNdKShbQ0gyXU9DNj1PKVtDSDJdW0NASF0oW0NASF0oW0NIM10pW0NIMl00KVtDQEBIXTFbQ0gyXVtDQEBIXShbQ0gzXSlbQ0BASF0yW0NIMl1bQ0gyXVtDQEBIXShbQ0gzXSlbQ0BIXTNbQ0gyXTU=

>  <s_epik_cmdline>  (259) 
J2VwaWtfcHl0aG9uJywgJy1waHQnLCAnMi4wJywgJy1waCcsICc3LjAnLCAnLXRuJywgJzgnLCAnLW1hJywgJzIwMCcsICctaW1hZScsICc8aW5maWxlLm1hZT4nLCAnLW9tYWUnLCAnPG91dGZpbGUubWFlPic=

>  <r_epik_Ionization_Penalty>  (259) 
2.34231

>  <r_epik_Ionization_Penalty_Charging>  (259) 
0

>  <r_epik_Ionization_Penalty_Neutral>  (259) 
2.34231

>  <r_epik_State_Penalty>  (259) 
2.49602

>  <r_epik_Charging_Adjusted_Penalty>  (259) 
2.49602

>  <i_epik_Tot_Q>  (259) 
0

>  <i_epik_Tot_abs_Q>  (259) 
0

>  <s_epik_Chemistry_Notes>  (259) 
This compound has an ester and may undergo hydrolysis at high or low pH.

>  <s_lp_Force_Field>  (259) 
OPLS3e

>  <r_lp_Energy>  (259) 
173.935

>  <b_lp_Chiralities_Consistent>  (259) 
1

>  <s_lp_Variant>  (259) 
59:0-6

>  <s_i_glide_gridfile>  (259) 
pfpi4k_grid

>  <i_i_glide_lignum>  (259) 
12

>  <i_i_glide_rotatable_bonds>  (259) 
0

>  <r_i_docking_score>  (259) 
-2.32215

>  <r_i_glide_ligand_efficiency>  (259) 
-0.0829341

>  <r_i_glide_ligand_efficiency_sa>  (259) 
-0.251837

>  <r_i_glide_ligand_efficiency_ln>  (259) 
-0.536022

>  <r_i_glide_gscore>  (259) 
-2.32215

>  <r_i_glide_lipo>  (259) 
-0.211752

>  <r_i_glide_hbond>  (259) 
0

>  <r_i_glide_metal>  (259) 
-0

>  <r_i_glide_rewards>  (259) 
-0.886603

>  <r_i_glide_evdw>  (259) 
-20.2551

>  <r_i_glide_ecoul>  (259) 
-1.40697

>  <r_i_glide_erotb>  (259) 
0

>  <r_i_glide_esite>  (259) 
0

>  <r_i_glide_emodel>  (259) 
-25.2592

>  <r_i_glide_energy>  (259) 
-21.6621

>  <r_i_glide_einternal>  (259) 
0

>  <r_i_glide_intrahb_reward>  (259) 
-0

>  <i_i_glide_confnum>  (259) 
1

>  <i_i_glide_posenum>  (259) 
29

>  <r_i_glide_eff_state_penalty>  (259) 
0

>  <ligand_id>  (259) 
59

>  <original_smiles>  (259) 
CC1CC2N3CC=C4C(=O)OCC4(C)CC1C1CC(C)C4CCC(C)C(C3)C412

>  <smiles>  (259) 
[H]C1=C2C(=O)OC([H])([H])C2(C([H])([H])[H])C([H])([H])C2([H])C([H])(C([H])([H])[H])C([H])([H])C3([H])N(C1([H])[H])C([H])([H])C1([H])C([H])(C([H])([H])[H])C([H])([H])C([H])([H])C4([H])C([H])(C([H])([H])[H])C([H])([H])C2([H])C314

$$$$
59:5:2
     RDKit          3D

 65 70  0  0  1  0  0  0  0  0999 V2000
    0.9556   -6.2310    0.3694 C   0  0  0  0  0  0  0  0  0  0  0  0
    2.3549   -5.7703    0.7763 C   0  0  2  0  0  0  0  0  0  0  0  0
    3.1383   -6.9022    1.5509 C   0  0  0  0  0  0  0  0  0  0  0  0
    4.0423   -6.3116    2.6568 C   0  0  2  0  0  0  0  0  0  0  0  0
    5.5163   -6.1198    2.5480 N   0  0  0  0  0  0  0  0  0  0  0  0
    6.2076   -5.4543    1.3617 C   0  0  0  0  0  0  0  0  0  0  0  0
    5.3278   -4.6566    0.3605 C   0  0  0  0  0  0  0  0  0  0  0  0
    4.9145   -3.3557    0.4226 C   0  0  0  0  0  0  0  0  0  0  0  0
    5.4941   -2.3078    1.2342 C   0  0  0  0  0  0  0  0  0  0  0  0
    6.3589   -2.4472    2.0711 O   0  0  0  0  0  0  0  0  0  0  0  0
    4.8641   -1.1669    0.9930 O   0  0  0  0  0  0  0  0  0  0  0  0
    3.9376   -1.2553   -0.0680 C   0  0  0  0  0  0  0  0  0  0  0  0
    3.6372   -2.7610   -0.1629 C   0  0  1  0  0  0  0  0  0  0  0  0
    3.4367   -3.1220   -1.6387 C   0  0  0  0  0  0  0  0  0  0  0  0
    2.3454   -3.0707    0.7199 C   0  0  0  0  0  0  0  0  0  0  0  0
    2.3051   -4.3931    1.5471 C   0  0  1  0  0  0  0  0  0  0  0  0
    2.0975   -4.7393    3.0511 C   0  0  2  0  0  0  0  0  0  0  0  0
    1.4255   -3.9274    4.1358 C   0  0  0  0  0  0  0  0  0  0  0  0
    1.5429   -4.9148    5.3394 C   0  0  1  0  0  0  0  0  0  0  0  0
    0.1980   -5.5470    5.7326 C   0  0  0  0  0  0  0  0  0  0  0  0
    2.6240   -5.9934    4.9593 C   0  0  2  0  0  0  0  0  0  0  0  0
    3.5724   -6.3779    6.1089 C   0  0  0  0  0  0  0  0  0  0  0  0
    4.3964   -5.1991    6.6510 C   0  0  0  0  0  0  0  0  0  0  0  0
    4.5734   -4.0481    5.6395 C   0  0  1  0  0  0  0  0  0  0  0  0
    5.8011   -3.2034    6.0156 C   0  0  0  0  0  0  0  0  0  0  0  0
    4.5483   -4.5225    4.1560 C   0  0  1  0  0  0  0  0  0  0  0  0
    5.7735   -5.3745    3.7796 C   0  0  0  0  0  0  0  0  0  0  0  0
    3.3456   -5.4052    3.7231 C   0  0  1  0  0  0  0  0  0  0  0  0
    0.2988   -6.4792    1.2099 H   0  0  0  0  0  0  0  0  0  0  0  0
    1.0094   -7.1146   -0.2416 H   0  0  0  0  0  0  0  0  0  0  0  0
    0.4792   -5.5038   -0.2907 H   0  0  0  0  0  0  0  0  0  0  0  0
    2.8516   -5.6169   -0.1715 H   0  0  0  0  0  0  0  0  0  0  0  0
    2.4205   -7.5920    1.9970 H   0  0  0  0  0  0  0  0  0  0  0  0
    3.7280   -7.4963    0.8557 H   0  0  0  0  0  0  0  0  0  0  0  0
    4.1808   -5.5304    2.0169 H   0  0  0  0  0  0  0  0  0  0  0  0
    7.0743   -4.8629    1.6728 H   0  0  0  0  0  0  0  0  0  0  0  0
    6.6422   -6.2650    0.7734 H   0  0  0  0  0  0  0  0  0  0  0  0
    4.8249   -5.3131   -0.3276 H   0  0  0  0  0  0  0  0  0  0  0  0
    3.0514   -0.6285    0.0970 H   0  0  0  0  0  0  0  0  0  0  0  0
    4.4499   -0.8954   -0.9621 H   0  0  0  0  0  0  0  0  0  0  0  0
    2.6093   -2.5480   -2.0627 H   0  0  0  0  0  0  0  0  0  0  0  0
    3.2041   -4.1749   -1.7444 H   0  0  0  0  0  0  0  0  0  0  0  0
    4.3335   -2.9142   -2.2262 H   0  0  0  0  0  0  0  0  0  0  0  0
    2.1805   -2.2462    1.4189 H   0  0  0  0  0  0  0  0  0  0  0  0
    1.4783   -3.0345    0.0305 H   0  0  0  0  0  0  0  0  0  0  0  0
    3.2300   -3.9886    1.8707 H   0  0  0  0  0  0  0  0  0  0  0  0
    1.3730   -5.5476    2.9623 H   0  0  0  0  0  0  0  0  0  0  0  0
    1.9809   -3.0088    4.3165 H   0  0  0  0  0  0  0  0  0  0  0  0
    0.3936   -3.6662    3.8944 H   0  0  0  0  0  0  0  0  0  0  0  0
    1.8593   -4.3445    6.2121 H   0  0  0  0  0  0  0  0  0  0  0  0
   -0.2350   -6.1255    4.9121 H   0  0  0  0  0  0  0  0  0  0  0  0
   -0.5206   -4.7772    6.0222 H   0  0  0  0  0  0  0  0  0  0  0  0
    0.3203   -6.2156    6.5891 H   0  0  0  0  0  0  0  0  0  0  0  0
    2.1139   -6.9046    4.6362 H   0  0  0  0  0  0  0  0  0  0  0  0
    3.0213   -6.8676    6.9166 H   0  0  0  0  0  0  0  0  0  0  0  0
    4.2552   -7.1276    5.7248 H   0  0  0  0  0  0  0  0  0  0  0  0
    3.8876   -4.7965    7.5165 H   0  0  0  0  0  0  0  0  0  0  0  0
    5.3637   -5.5508    7.0207 H   0  0  0  0  0  0  0  0  0  0  0  0
    3.7362   -3.3596    5.7619 H   0  0  0  0  0  0  0  0  0  0  0  0
    6.7270   -3.7885    6.0031 H   0  0  0  0  0  0  0  0  0  0  0  0
    5.6957   -2.8071    7.0287 H   0  0  0  0  0  0  0  0  0  0  0  0
    5.9232   -2.3482    5.3436 H   0  0  0  0  0  0  0  0  0  0  0  0
    4.5623   -3.6319    3.5330 H   0  0  0  0  0  0  0  0  0  0  0  0
    6.0087   -6.0911    4.5671 H   0  0  0  0  0  0  0  0  0  0  0  0
    6.6130   -4.6928    3.6752 H   0  0  0  0  0  0  0  0  0  0  0  0
  1  2  1  0
  1 29  1  0
  1 30  1  0
  1 31  1  0
  2 16  1  0
  2  3  1  0
  2 32  1  6
  3  4  1  0
  3 33  1  0
  3 34  1  0
 28  4  1  6
  4  5  1  0
  4 35  1  1
  5 27  1  0
  5  6  1  0
  6  7  1  0
  6 36  1  0
  6 37  1  0
  7  8  2  3
  7 38  1  0
  8 13  1  0
  8  9  1  0
  9 10  2  0
  9 11  1  0
 11 12  1  0
 12 13  1  0
 12 39  1  0
 12 40  1  0
 13 14  1  6
 13 15  1  0
 14 41  1  0
 14 42  1  0
 14 43  1  0
 15 16  1  0
 15 44  1  0
 15 45  1  0
 16 17  1  0
 16 46  1  1
 17 28  1  0
 17 18  1  0
 17 47  1  6
 18 19  1  0
 18 48  1  0
 18 49  1  0
 19 20  1  0
 19 21  1  0
 19 50  1  1
 20 51  1  0
 20 52  1  0
 20 53  1  0
 21 28  1  0
 21 22  1  0
 21 54  1  6
 22 23  1  0
 22 55  1  0
 22 56  1  0
 23 24  1  0
 23 57  1  0
 23 58  1  0
 24 25  1  0
 24 26  1  0
 24 59  1  6
 25 60  1  0
 25 61  1  0
 25 62  1  0
 26 27  1  0
 26 28  1  0
 26 63  1  6
 27 64  1  0
 27 65  1  0
M  END
>  <i_m_ct_stereo_status>  (260) 
1

>  <s_m_source_file>  (260) 
/var/tmp/pbs.5076255.sched01/tmpnby3vxlc/96d7dj3887.sdf

>  <i_m_source_file_index>  (260) 
12

>  <i_lp_mmshare_version>  (260) 
48012

>  <i_f3d_flags>  (260) 
0

>  <s_epik_input>  (260) 
QzEyM1tDQEhdNE41W0NIMl0vW0NIXT1DLzZbQ0BdKFtDSDNdKShbQ0gyXU9DNj1PKVtDSDJdW0NASF0oW0NASF0oW0NIM10pW0NIMl00KVtDQEBIXTFbQ0gyXVtDQEBIXShbQ0gzXSlbQ0BASF0yW0NIMl1bQ0gyXVtDQEBIXShbQ0gzXSlbQ0BIXTNbQ0gyXTU=

>  <s_epik_cmdline>  (260) 
J2VwaWtfcHl0aG9uJywgJy1waHQnLCAnMi4wJywgJy1waCcsICc3LjAnLCAnLXRuJywgJzgnLCAnLW1hJywgJzIwMCcsICctaW1hZScsICc8aW5maWxlLm1hZT4nLCAnLW9tYWUnLCAnPG91dGZpbGUubWFlPic=

>  <r_epik_Ionization_Penalty>  (260) 
2.34231

>  <r_epik_Ionization_Penalty_Charging>  (260) 
0

>  <r_epik_Ionization_Penalty_Neutral>  (260) 
2.34231

>  <r_epik_State_Penalty>  (260) 
2.49602

>  <r_epik_Charging_Adjusted_Penalty>  (260) 
2.49602

>  <i_epik_Tot_Q>  (260) 
0

>  <i_epik_Tot_abs_Q>  (260) 
0

>  <s_epik_Chemistry_Notes>  (260) 
This compound has an ester and may undergo hydrolysis at high or low pH.

>  <s_lp_Force_Field>  (260) 
OPLS3e

>  <r_lp_Energy>  (260) 
173.935

>  <b_lp_Chiralities_Consistent>  (260) 
1

>  <s_lp_Variant>  (260) 
59:0-6

>  <s_i_glide_gridfile>  (260) 
pfpi4k_grid

>  <i_i_glide_lignum>  (260) 
12

>  <i_i_glide_rotatable_bonds>  (260) 
0

>  <r_i_docking_score>  (260) 
-1.85747

>  <r_i_glide_ligand_efficiency>  (260) 
-0.0663383

>  <r_i_glide_ligand_efficiency_sa>  (260) 
-0.201442

>  <r_i_glide_ligand_efficiency_ln>  (260) 
-0.428759

>  <r_i_glide_gscore>  (260) 
-1.85747

>  <r_i_glide_lipo>  (260) 
-0.281574

>  <r_i_glide_hbond>  (260) 
0

>  <r_i_glide_metal>  (260) 
-0

>  <r_i_glide_rewards>  (260) 
-0.889439

>  <r_i_glide_evdw>  (260) 
-11.2632

>  <r_i_glide_ecoul>  (260) 
-0.821988

>  <r_i_glide_erotb>  (260) 
0

>  <r_i_glide_esite>  (260) 
0

>  <r_i_glide_emodel>  (260) 
-14.7375

>  <r_i_glide_energy>  (260) 
-12.0852

>  <r_i_glide_einternal>  (260) 
0

>  <r_i_glide_intrahb_reward>  (260) 
-0

>  <i_i_glide_confnum>  (260) 
2

>  <i_i_glide_posenum>  (260) 
1

>  <r_i_glide_eff_state_penalty>  (260) 
0

>  <ligand_id>  (260) 
59

>  <original_smiles>  (260) 
CC1CC2N3CC=C4C(=O)OCC4(C)CC1C1CC(C)C4CCC(C)C(C3)C412

>  <smiles>  (260) 
[H]C1=C2C(=O)OC([H])([H])C2(C([H])([H])[H])C([H])([H])C2([H])C([H])(C([H])([H])[H])C([H])([H])C3([H])N(C1([H])[H])C([H])([H])C1([H])C([H])(C([H])([H])[H])C([H])([H])C([H])([H])C4([H])C([H])(C([H])([H])[H])C([H])([H])C2([H])C314

$$$$
59:6:0
     RDKit          3D

 65 70  0  0  1  0  0  0  0  0999 V2000
    2.2109   -4.5371   -0.3105 C   0  0  0  0  0  0  0  0  0  0  0  0
    2.7481   -5.6315    0.6156 C   0  0  2  0  0  0  0  0  0  0  0  0
    2.1687   -5.5904    2.0339 C   0  0  0  0  0  0  0  0  0  0  0  0
    3.1932   -5.4188    3.1643 C   0  0  2  0  0  0  0  0  0  0  0  0
    4.0657   -4.2309    3.0081 N   0  0  0  0  0  0  0  0  0  0  0  0
    3.4876   -2.9076    2.7971 C   0  0  0  0  0  0  0  0  0  0  0  0
    3.9697   -2.1936    1.5379 C   0  0  0  0  0  0  0  0  0  0  0  0
    4.8357   -2.5285    0.5486 C   0  0  0  0  0  0  0  0  0  0  0  0
    4.9565   -1.6275   -0.6072 C   0  0  0  0  0  0  0  0  0  0  0  0
    4.2406   -0.6594   -0.8612 O   0  0  0  0  0  0  0  0  0  0  0  0
    5.9378   -2.0477   -1.3905 O   0  0  0  0  0  0  0  0  0  0  0  0
    6.6978   -3.0726   -0.8115 C   0  0  0  0  0  0  0  0  0  0  0  0
    5.8288   -3.6799    0.3214 C   0  0  1  0  0  0  0  0  0  0  0  0
    6.8301   -3.9607    1.4357 C   0  0  0  0  0  0  0  0  0  0  0  0
    5.2213   -5.0041   -0.2125 C   0  0  0  0  0  0  0  0  0  0  0  0
    4.2602   -5.9615    0.5514 C   0  0  1  0  0  0  0  0  0  0  0  0
    4.7583   -6.8554    1.7680 C   0  0  2  0  0  0  0  0  0  0  0  0
    4.1624   -8.3000    1.5549 C   0  0  0  0  0  0  0  0  0  0  0  0
    3.4208   -8.7518    2.8302 C   0  0  1  0  0  0  0  0  0  0  0  0
    3.4740  -10.2733    3.0405 C   0  0  0  0  0  0  0  0  0  0  0  0
    4.1891   -7.9322    3.8295 C   0  0  2  0  0  0  0  0  0  0  0  0
    4.0795   -8.1034    5.3528 C   0  0  0  0  0  0  0  0  0  0  0  0
    5.4116   -7.6009    6.0043 C   0  0  0  0  0  0  0  0  0  0  0  0
    6.1314   -6.4355    5.2383 C   0  0  1  0  0  0  0  0  0  0  0  0
    7.3984   -6.8623    4.4767 C   0  0  0  0  0  0  0  0  0  0  0  0
    5.0983   -5.7290    4.3528 C   0  0  1  0  0  0  0  0  0  0  0  0
    5.0480   -4.2388    4.0849 C   0  0  0  0  0  0  0  0  0  0  0  0
    4.3128   -6.4902    3.2579 C   0  0  2  0  0  0  0  0  0  0  0  0
    2.3844   -3.5294    0.0458 H   0  0  0  0  0  0  0  0  0  0  0  0
    1.1518   -4.6916   -0.4430 H   0  0  0  0  0  0  0  0  0  0  0  0
    2.6289   -4.5742   -1.3075 H   0  0  0  0  0  0  0  0  0  0  0  0
    2.2608   -6.5201    0.2033 H   0  0  0  0  0  0  0  0  0  0  0  0
    1.4351   -4.7994    2.1069 H   0  0  0  0  0  0  0  0  0  0  0  0
    1.6214   -6.5096    2.2230 H   0  0  0  0  0  0  0  0  0  0  0  0
    2.6379   -5.3369    4.1022 H   0  0  0  0  0  0  0  0  0  0  0  0
    2.4030   -2.9894    2.7346 H   0  0  0  0  0  0  0  0  0  0  0  0
    3.6833   -2.2639    3.6601 H   0  0  0  0  0  0  0  0  0  0  0  0
    3.4223   -1.2692    1.4050 H   0  0  0  0  0  0  0  0  0  0  0  0
    7.0402   -3.8016   -1.5442 H   0  0  0  0  0  0  0  0  0  0  0  0
    7.5933   -2.6015   -0.4043 H   0  0  0  0  0  0  0  0  0  0  0  0
    7.7968   -4.2746    1.0321 H   0  0  0  0  0  0  0  0  0  0  0  0
    6.5195   -4.7884    2.0614 H   0  0  0  0  0  0  0  0  0  0  0  0
    7.0058   -3.0661    2.0435 H   0  0  0  0  0  0  0  0  0  0  0  0
    4.7539   -4.7678   -1.1664 H   0  0  0  0  0  0  0  0  0  0  0  0
    6.0766   -5.6320   -0.4450 H   0  0  0  0  0  0  0  0  0  0  0  0
    4.2528   -6.7022   -0.2514 H   0  0  0  0  0  0  0  0  0  0  0  0
    5.8472   -6.9386    1.7339 H   0  0  0  0  0  0  0  0  0  0  0  0
    3.4578   -8.3873    0.7278 H   0  0  0  0  0  0  0  0  0  0  0  0
    4.9873   -8.9732    1.3258 H   0  0  0  0  0  0  0  0  0  0  0  0
    2.3767   -8.4410    2.8177 H   0  0  0  0  0  0  0  0  0  0  0  0
    4.4962  -10.6517    3.0924 H   0  0  0  0  0  0  0  0  0  0  0  0
    2.9771  -10.7879    2.2182 H   0  0  0  0  0  0  0  0  0  0  0  0
    2.9595  -10.5638    3.9581 H   0  0  0  0  0  0  0  0  0  0  0  0
    5.1905   -8.3433    3.6895 H   0  0  0  0  0  0  0  0  0  0  0  0
    3.2234   -7.5545    5.7489 H   0  0  0  0  0  0  0  0  0  0  0  0
    3.9360   -9.1519    5.6062 H   0  0  0  0  0  0  0  0  0  0  0  0
    5.1882   -7.2809    7.0196 H   0  0  0  0  0  0  0  0  0  0  0  0
    6.1040   -8.4364    6.1065 H   0  0  0  0  0  0  0  0  0  0  0  0
    6.4589   -5.7232    5.9973 H   0  0  0  0  0  0  0  0  0  0  0  0
    7.2079   -7.5781    3.6821 H   0  0  0  0  0  0  0  0  0  0  0  0
    8.1156   -7.3147    5.1567 H   0  0  0  0  0  0  0  0  0  0  0  0
    7.8842   -5.9994    4.0262 H   0  0  0  0  0  0  0  0  0  0  0  0
    4.3572   -5.6531    5.1565 H   0  0  0  0  0  0  0  0  0  0  0  0
    6.0017   -3.8019    3.8246 H   0  0  0  0  0  0  0  0  0  0  0  0
    4.6784   -3.7031    4.9579 H   0  0  0  0  0  0  0  0  0  0  0  0
  1  2  1  0
  1 29  1  0
  1 30  1  0
  1 31  1  0
  2 16  1  0
  2  3  1  0
  2 32  1  6
  3  4  1  0
  3 33  1  0
  3 34  1  0
 28  4  1  6
  4  5  1  0
  4 35  1  1
  5 27  1  0
  5  6  1  0
  6  7  1  0
  6 36  1  0
  6 37  1  0
  7  8  2  3
  7 38  1  0
  8 13  1  0
  8  9  1  0
  9 10  2  0
  9 11  1  0
 11 12  1  0
 12 13  1  0
 12 39  1  0
 12 40  1  0
 13 14  1  1
 13 15  1  0
 14 41  1  0
 14 42  1  0
 14 43  1  0
 15 16  1  0
 15 44  1  0
 15 45  1  0
 16 17  1  0
 16 46  1  6
 17 28  1  0
 17 18  1  0
 17 47  1  1
 18 19  1  0
 18 48  1  0
 18 49  1  0
 19 20  1  0
 19 21  1  0
 19 50  1  6
 20 51  1  0
 20 52  1  0
 20 53  1  0
 21 28  1  0
 21 22  1  0
 21 54  1  6
 22 23  1  0
 22 55  1  0
 22 56  1  0
 23 24  1  0
 23 57  1  0
 23 58  1  0
 24 25  1  0
 24 26  1  0
 24 59  1  1
 25 60  1  0
 25 61  1  0
 25 62  1  0
 26 27  1  0
 26 28  1  0
 26 63  1  1
 27 64  1  0
 27 65  1  0
M  END
>  <i_m_ct_stereo_status>  (261) 
1

>  <s_m_source_file>  (261) 
/var/tmp/pbs.5076255.sched01/tmpnby3vxlc/96d7dj3887.sdf

>  <i_m_source_file_index>  (261) 
13

>  <i_lp_mmshare_version>  (261) 
48012

>  <i_f3d_flags>  (261) 
0

>  <s_epik_input>  (261) 
QzEyM1tDQEhdNE41W0NIMl0vW0NIXT1DLzZbQ0BdKFtDSDNdKShbQ0gyXU9DNj1PKVtDSDJdW0NASF0oW0NASF0oW0NIM10pW0NIMl00KVtDQEBIXTFbQ0gyXVtDQEBIXShbQ0gzXSlbQ0BASF0yW0NIMl1bQ0gyXVtDQEBIXShbQ0gzXSlbQ0BIXTNbQ0gyXTU=

>  <s_epik_cmdline>  (261) 
J2VwaWtfcHl0aG9uJywgJy1waHQnLCAnMi4wJywgJy1waCcsICc3LjAnLCAnLXRuJywgJzgnLCAnLW1hJywgJzIwMCcsICctaW1hZScsICc8aW5maWxlLm1hZT4nLCAnLW9tYWUnLCAnPG91dGZpbGUubWFlPic=

>  <r_epik_Ionization_Penalty>  (261) 
2.34231

>  <r_epik_Ionization_Penalty_Charging>  (261) 
0

>  <r_epik_Ionization_Penalty_Neutral>  (261) 
2.34231

>  <r_epik_State_Penalty>  (261) 
2.49602

>  <r_epik_Charging_Adjusted_Penalty>  (261) 
2.49602

>  <i_epik_Tot_Q>  (261) 
0

>  <i_epik_Tot_abs_Q>  (261) 
0

>  <s_epik_Chemistry_Notes>  (261) 
This compound has an ester and may undergo hydrolysis at high or low pH.

>  <s_lp_Force_Field>  (261) 
OPLS3e

>  <r_lp_Energy>  (261) 
131.065

>  <b_lp_Chiralities_Consistent>  (261) 
1

>  <s_lp_Variant>  (261) 
59:0-7

>  <s_i_glide_gridfile>  (261) 
pfpi4k_grid

>  <i_i_glide_lignum>  (261) 
13

>  <i_i_glide_rotatable_bonds>  (261) 
0

>  <r_i_docking_score>  (261) 
-2.20353

>  <r_i_glide_ligand_efficiency>  (261) 
-0.0786973

>  <r_i_glide_ligand_efficiency_sa>  (261) 
-0.238971

>  <r_i_glide_ligand_efficiency_ln>  (261) 
-0.508638

>  <r_i_glide_gscore>  (261) 
-2.20353

>  <r_i_glide_lipo>  (261) 
-0.402006

>  <r_i_glide_hbond>  (261) 
-0.035228

>  <r_i_glide_metal>  (261) 
-0

>  <r_i_glide_rewards>  (261) 
-0.793863

>  <r_i_glide_evdw>  (261) 
-18.7848

>  <r_i_glide_ecoul>  (261) 
-0.0348509

>  <r_i_glide_erotb>  (261) 
0

>  <r_i_glide_esite>  (261) 
-0.027961

>  <r_i_glide_emodel>  (261) 
-20.4805

>  <r_i_glide_energy>  (261) 
-18.8197

>  <r_i_glide_einternal>  (261) 
0

>  <r_i_glide_intrahb_reward>  (261) 
-0

>  <i_i_glide_confnum>  (261) 
1

>  <i_i_glide_posenum>  (261) 
1

>  <r_i_glide_eff_state_penalty>  (261) 
0

>  <ligand_id>  (261) 
59

>  <original_smiles>  (261) 
CC1CC2N3CC=C4C(=O)OCC4(C)CC1C1CC(C)C4CCC(C)C(C3)C412

>  <smiles>  (261) 
[H]C1=C2C(=O)OC([H])([H])C2(C([H])([H])[H])C([H])([H])C2([H])C([H])(C([H])([H])[H])C([H])([H])C3([H])N(C1([H])[H])C([H])([H])C1([H])C([H])(C([H])([H])[H])C([H])([H])C([H])([H])C4([H])C([H])(C([H])([H])[H])C([H])([H])C2([H])C314

$$$$
59:6:1
     RDKit          3D

 65 70  0  0  1  0  0  0  0  0999 V2000
    2.1799   -7.5595    1.5423 C   0  0  0  0  0  0  0  0  0  0  0  0
    2.7120   -6.3150    0.7982 C   0  0  2  0  0  0  0  0  0  0  0  0
    4.1535   -6.4897    0.2804 C   0  0  0  0  0  0  0  0  0  0  0  0
    5.1531   -5.4515    0.7650 C   0  0  2  0  0  0  0  0  0  0  0  0
    5.2069   -5.3841    2.2370 N   0  0  0  0  0  0  0  0  0  0  0  0
    5.4727   -6.5652    3.0278 C   0  0  0  0  0  0  0  0  0  0  0  0
    4.4321   -6.8504    4.0932 C   0  0  0  0  0  0  0  0  0  0  0  0
    3.2914   -6.1933    4.4888 C   0  0  0  0  0  0  0  0  0  0  0  0
    2.4282   -6.8490    5.4611 C   0  0  0  0  0  0  0  0  0  0  0  0
    2.5408   -8.0066    5.8990 O   0  0  0  0  0  0  0  0  0  0  0  0
    1.4370   -6.0429    5.7831 O   0  0  0  0  0  0  0  0  0  0  0  0
    1.6357   -4.7308    5.3089 C   0  0  0  0  0  0  0  0  0  0  0  0
    2.6511   -4.8394    4.1461 C   0  0  1  0  0  0  0  0  0  0  0  0
    3.5258   -3.5860    4.2777 C   0  0  0  0  0  0  0  0  0  0  0  0
    1.8166   -4.8066    2.8344 C   0  0  0  0  0  0  0  0  0  0  0  0
    2.4106   -4.9219    1.3899 C   0  0  1  0  0  0  0  0  0  0  0  0
    3.2449   -3.7683    0.7033 C   0  0  2  0  0  0  0  0  0  0  0  0
    2.7184   -3.6053   -0.7731 C   0  0  0  0  0  0  0  0  0  0  0  0
    3.8984   -3.6076   -1.7716 C   0  0  1  0  0  0  0  0  0  0  0  0
    3.6401   -2.7547   -3.0276 C   0  0  0  0  0  0  0  0  0  0  0  0
    4.9568   -3.1398   -0.8529 C   0  0  2  0  0  0  0  0  0  0  0  0
    6.3646   -2.7933   -1.3434 C   0  0  0  0  0  0  0  0  0  0  0  0
    6.9453   -1.8017   -0.3050 C   0  0  0  0  0  0  0  0  0  0  0  0
    6.4774   -1.9807    1.1586 C   0  0  1  0  0  0  0  0  0  0  0  0
    5.4884   -0.9094    1.6647 C   0  0  0  0  0  0  0  0  0  0  0  0
    5.9768   -3.4267    1.3250 C   0  0  1  0  0  0  0  0  0  0  0  0
    6.1115   -4.2910    2.5448 C   0  0  0  0  0  0  0  0  0  0  0  0
    4.8045   -3.9514    0.4719 C   0  0  2  0  0  0  0  0  0  0  0  0
    2.7327   -7.7728    2.4489 H   0  0  0  0  0  0  0  0  0  0  0  0
    2.2831   -8.4518    0.9217 H   0  0  0  0  0  0  0  0  0  0  0  0
    1.1222   -7.4833    1.7916 H   0  0  0  0  0  0  0  0  0  0  0  0
    2.1145   -6.2955   -0.1110 H   0  0  0  0  0  0  0  0  0  0  0  0
    4.5099   -7.5068    0.4290 H   0  0  0  0  0  0  0  0  0  0  0  0
    4.1854   -6.3649   -0.7931 H   0  0  0  0  0  0  0  0  0  0  0  0
    6.1325   -5.7266    0.3688 H   0  0  0  0  0  0  0  0  0  0  0  0
    5.5163   -7.4389    2.3746 H   0  0  0  0  0  0  0  0  0  0  0  0
    6.4535   -6.5174    3.5085 H   0  0  0  0  0  0  0  0  0  0  0  0
    4.6199   -7.8062    4.5589 H   0  0  0  0  0  0  0  0  0  0  0  0
    0.6945   -4.2556    5.0277 H   0  0  0  0  0  0  0  0  0  0  0  0
    2.0506   -4.1609    6.1401 H   0  0  0  0  0  0  0  0  0  0  0  0
    2.9417   -2.7321    4.6194 H   0  0  0  0  0  0  0  0  0  0  0  0
    3.9108   -3.2682    3.3173 H   0  0  0  0  0  0  0  0  0  0  0  0
    4.3393   -3.7313    4.9874 H   0  0  0  0  0  0  0  0  0  0  0  0
    1.0481   -5.5751    2.9325 H   0  0  0  0  0  0  0  0  0  0  0  0
    1.2570   -3.8690    2.8536 H   0  0  0  0  0  0  0  0  0  0  0  0
    1.4386   -4.7639    0.9335 H   0  0  0  0  0  0  0  0  0  0  0  0
    3.0663   -2.8344    1.2318 H   0  0  0  0  0  0  0  0  0  0  0  0
    1.9813   -4.3340   -1.0959 H   0  0  0  0  0  0  0  0  0  0  0  0
    2.2067   -2.6424   -0.8249 H   0  0  0  0  0  0  0  0  0  0  0  0
    4.2409   -4.5944   -2.0631 H   0  0  0  0  0  0  0  0  0  0  0  0
    3.4505   -1.7009   -2.7887 H   0  0  0  0  0  0  0  0  0  0  0  0
    2.7719   -3.1195   -3.5670 H   0  0  0  0  0  0  0  0  0  0  0  0
    4.4819   -2.7961   -3.7080 H   0  0  0  0  0  0  0  0  0  0  0  0
    4.5839   -2.1334   -0.6226 H   0  0  0  0  0  0  0  0  0  0  0  0
    6.9840   -3.6880   -1.4456 H   0  0  0  0  0  0  0  0  0  0  0  0
    6.3376   -2.3011   -2.3206 H   0  0  0  0  0  0  0  0  0  0  0  0
    8.0366   -1.8681   -0.3413 H   0  0  0  0  0  0  0  0  0  0  0  0
    6.6407   -0.7910   -0.5698 H   0  0  0  0  0  0  0  0  0  0  0  0
    7.4227   -1.8166    1.6668 H   0  0  0  0  0  0  0  0  0  0  0  0
    4.5325   -0.8835    1.1316 H   0  0  0  0  0  0  0  0  0  0  0  0
    5.9210    0.0850    1.5734 H   0  0  0  0  0  0  0  0  0  0  0  0
    5.2696   -1.0583    2.7201 H   0  0  0  0  0  0  0  0  0  0  0  0
    6.8577   -3.8649    0.8471 H   0  0  0  0  0  0  0  0  0  0  0  0
    5.9027   -3.7899    3.4809 H   0  0  0  0  0  0  0  0  0  0  0  0
    7.1280   -4.6779    2.6067 H   0  0  0  0  0  0  0  0  0  0  0  0
  1  2  1  0
  1 29  1  0
  1 30  1  0
  1 31  1  0
  2 16  1  0
  2  3  1  0
  2 32  1  6
  3  4  1  0
  3 33  1  0
  3 34  1  0
 28  4  1  6
  4  5  1  0
  4 35  1  6
  5 27  1  0
  5  6  1  0
  6  7  1  0
  6 36  1  0
  6 37  1  0
  7  8  2  3
  7 38  1  0
  8 13  1  0
  8  9  1  0
  9 10  2  0
  9 11  1  0
 11 12  1  0
 12 13  1  0
 12 39  1  0
 12 40  1  0
 13 14  1  6
 13 15  1  0
 14 41  1  0
 14 42  1  0
 14 43  1  0
 15 16  1  0
 15 44  1  0
 15 45  1  0
 16 17  1  0
 16 46  1  6
 17 28  1  0
 17 18  1  0
 17 47  1  1
 18 19  1  0
 18 48  1  0
 18 49  1  0
 19 20  1  0
 19 21  1  0
 19 50  1  6
 20 51  1  0
 20 52  1  0
 20 53  1  0
 21 28  1  0
 21 22  1  0
 21 54  1  1
 22 23  1  0
 22 55  1  0
 22 56  1  0
 23 24  1  0
 23 57  1  0
 23 58  1  0
 24 25  1  0
 24 26  1  0
 24 59  1  1
 25 60  1  0
 25 61  1  0
 25 62  1  0
 26 27  1  0
 26 28  1  0
 26 63  1  6
 27 64  1  0
 27 65  1  0
M  END
>  <i_m_ct_stereo_status>  (262) 
1

>  <s_m_source_file>  (262) 
/var/tmp/pbs.5076255.sched01/tmpnby3vxlc/96d7dj3887.sdf

>  <i_m_source_file_index>  (262) 
13

>  <i_lp_mmshare_version>  (262) 
48012

>  <i_f3d_flags>  (262) 
0

>  <s_epik_input>  (262) 
QzEyM1tDQEhdNE41W0NIMl0vW0NIXT1DLzZbQ0BdKFtDSDNdKShbQ0gyXU9DNj1PKVtDSDJdW0NASF0oW0NASF0oW0NIM10pW0NIMl00KVtDQEBIXTFbQ0gyXVtDQEBIXShbQ0gzXSlbQ0BASF0yW0NIMl1bQ0gyXVtDQEBIXShbQ0gzXSlbQ0BIXTNbQ0gyXTU=

>  <s_epik_cmdline>  (262) 
J2VwaWtfcHl0aG9uJywgJy1waHQnLCAnMi4wJywgJy1waCcsICc3LjAnLCAnLXRuJywgJzgnLCAnLW1hJywgJzIwMCcsICctaW1hZScsICc8aW5maWxlLm1hZT4nLCAnLW9tYWUnLCAnPG91dGZpbGUubWFlPic=

>  <r_epik_Ionization_Penalty>  (262) 
2.34231

>  <r_epik_Ionization_Penalty_Charging>  (262) 
0

>  <r_epik_Ionization_Penalty_Neutral>  (262) 
2.34231

>  <r_epik_State_Penalty>  (262) 
2.49602

>  <r_epik_Charging_Adjusted_Penalty>  (262) 
2.49602

>  <i_epik_Tot_Q>  (262) 
0

>  <i_epik_Tot_abs_Q>  (262) 
0

>  <s_epik_Chemistry_Notes>  (262) 
This compound has an ester and may undergo hydrolysis at high or low pH.

>  <s_lp_Force_Field>  (262) 
OPLS3e

>  <r_lp_Energy>  (262) 
131.065

>  <b_lp_Chiralities_Consistent>  (262) 
1

>  <s_lp_Variant>  (262) 
59:0-7

>  <s_i_glide_gridfile>  (262) 
pfpi4k_grid

>  <i_i_glide_lignum>  (262) 
13

>  <i_i_glide_rotatable_bonds>  (262) 
0

>  <r_i_docking_score>  (262) 
-2.09683

>  <r_i_glide_ligand_efficiency>  (262) 
-0.0748868

>  <r_i_glide_ligand_efficiency_sa>  (262) 
-0.2274

>  <r_i_glide_ligand_efficiency_ln>  (262) 
-0.48401

>  <r_i_glide_gscore>  (262) 
-2.09683

>  <r_i_glide_lipo>  (262) 
-0.647808

>  <r_i_glide_hbond>  (262) 
0

>  <r_i_glide_metal>  (262) 
-0

>  <r_i_glide_rewards>  (262) 
-0.793863

>  <r_i_glide_evdw>  (262) 
-13.8249

>  <r_i_glide_ecoul>  (262) 
0.240581

>  <r_i_glide_erotb>  (262) 
0

>  <r_i_glide_esite>  (262) 
0

>  <r_i_glide_emodel>  (262) 
-15.0145

>  <r_i_glide_energy>  (262) 
-13.5843

>  <r_i_glide_einternal>  (262) 
0

>  <r_i_glide_intrahb_reward>  (262) 
-0

>  <i_i_glide_confnum>  (262) 
2

>  <i_i_glide_posenum>  (262) 
11

>  <r_i_glide_eff_state_penalty>  (262) 
0

>  <ligand_id>  (262) 
59

>  <original_smiles>  (262) 
CC1CC2N3CC=C4C(=O)OCC4(C)CC1C1CC(C)C4CCC(C)C(C3)C412

>  <smiles>  (262) 
[H]C1=C2C(=O)OC([H])([H])C2(C([H])([H])[H])C([H])([H])C2([H])C([H])(C([H])([H])[H])C([H])([H])C3([H])N(C1([H])[H])C([H])([H])C1([H])C([H])(C([H])([H])[H])C([H])([H])C([H])([H])C4([H])C([H])(C([H])([H])[H])C([H])([H])C2([H])C314

$$$$
59:6:2
     RDKit          3D

 65 70  0  0  1  0  0  0  0  0999 V2000
    1.4936   -6.4939    1.7542 C   0  0  0  0  0  0  0  0  0  0  0  0
    2.3051   -5.4519    0.9823 C   0  0  2  0  0  0  0  0  0  0  0  0
    3.5142   -6.0494    0.2781 C   0  0  0  0  0  0  0  0  0  0  0  0
    4.8951   -5.4431    0.5514 C   0  0  2  0  0  0  0  0  0  0  0  0
    5.2669   -5.5001    1.9719 N   0  0  0  0  0  0  0  0  0  0  0  0
    5.1852   -6.7667    2.6660 C   0  0  0  0  0  0  0  0  0  0  0  0
    4.2610   -6.7429    3.8797 C   0  0  0  0  0  0  0  0  0  0  0  0
    3.5091   -5.7733    4.4516 C   0  0  0  0  0  0  0  0  0  0  0  0
    2.6176   -6.1896    5.5738 C   0  0  0  0  0  0  0  0  0  0  0  0
    2.4042   -7.3094    5.9551 O   0  0  0  0  0  0  0  0  0  0  0  0
    2.0417   -5.0954    6.0574 O   0  0  0  0  0  0  0  0  0  0  0  0
    2.5933   -3.8984    5.5756 C   0  0  0  0  0  0  0  0  0  0  0  0
    3.3141   -4.2657    4.2535 C   0  0  1  0  0  0  0  0  0  0  0  0
    4.5764   -3.3898    4.2404 C   0  0  0  0  0  0  0  0  0  0  0  0
    2.3476   -3.8597    3.1122 C   0  0  0  0  0  0  0  0  0  0  0  0
    2.6309   -4.0709    1.5954 C   0  0  1  0  0  0  0  0  0  0  0  0
    3.6979   -3.2265    0.7836 C   0  0  2  0  0  0  0  0  0  0  0  0
    3.0186   -2.7727   -0.5775 C   0  0  0  0  0  0  0  0  0  0  0  0
    3.9075   -3.1263   -1.7798 C   0  0  1  0  0  0  0  0  0  0  0  0
    3.7850   -2.1508   -2.9649 C   0  0  0  0  0  0  0  0  0  0  0  0
    5.2150   -3.1010   -1.0500 C   0  0  2  0  0  0  0  0  0  0  0  0
    6.5463   -3.1276   -1.7869 C   0  0  0  0  0  0  0  0  0  0  0  0
    7.6761   -2.6044   -0.8477 C   0  0  0  0  0  0  0  0  0  0  0  0
    7.3822   -2.7217    0.6755 C   0  0  1  0  0  0  0  0  0  0  0  0
    6.8818   -1.4058    1.2888 C   0  0  0  0  0  0  0  0  0  0  0  0
    6.4526   -3.9008    0.9086 C   0  0  1  0  0  0  0  0  0  0  0  0
    6.5318   -4.8216    2.1057 C   0  0  0  0  0  0  0  0  0  0  0  0
    5.0327   -3.9095    0.2902 C   0  0  2  0  0  0  0  0  0  0  0  0
    2.1054   -6.9342    2.5350 H   0  0  0  0  0  0  0  0  0  0  0  0
    1.2090   -7.3209    1.0967 H   0  0  0  0  0  0  0  0  0  0  0  0
    0.5854   -6.0817    2.1877 H   0  0  0  0  0  0  0  0  0  0  0  0
    1.6454   -5.2429    0.1340 H   0  0  0  0  0  0  0  0  0  0  0  0
    3.5489   -7.1444    0.2716 H   0  0  0  0  0  0  0  0  0  0  0  0
    3.2855   -5.7659   -0.7028 H   0  0  0  0  0  0  0  0  0  0  0  0
    5.6064   -6.0014   -0.0585 H   0  0  0  0  0  0  0  0  0  0  0  0
    4.8071   -7.5379    1.9915 H   0  0  0  0  0  0  0  0  0  0  0  0
    6.1804   -7.0950    2.9665 H   0  0  0  0  0  0  0  0  0  0  0  0
    4.1836   -7.7412    4.2872 H   0  0  0  0  0  0  0  0  0  0  0  0
    1.8446   -3.1181    5.4653 H   0  0  0  0  0  0  0  0  0  0  0  0
    3.3089   -3.5649    6.3252 H   0  0  0  0  0  0  0  0  0  0  0  0
    4.3826   -2.4161    4.6863 H   0  0  0  0  0  0  0  0  0  0  0  0
    4.8895   -3.1586    3.2298 H   0  0  0  0  0  0  0  0  0  0  0  0
    5.3915   -3.8493    4.7981 H   0  0  0  0  0  0  0  0  0  0  0  0
    1.3858   -4.3304    3.3177 H   0  0  0  0  0  0  0  0  0  0  0  0
    2.1482   -2.7959    3.2217 H   0  0  0  0  0  0  0  0  0  0  0  0
    1.7735   -3.4914    1.2924 H   0  0  0  0  0  0  0  0  0  0  0  0
    3.9294   -2.3204    1.3384 H   0  0  0  0  0  0  0  0  0  0  0  0
    2.0370   -3.1867   -0.7706 H   0  0  0  0  0  0  0  0  0  0  0  0
    2.8889   -1.6903   -0.5363 H   0  0  0  0  0  0  0  0  0  0  0  0
    3.7210   -4.1385   -2.1327 H   0  0  0  0  0  0  0  0  0  0  0  0
    4.0226   -1.1231   -2.6789 H   0  0  0  0  0  0  0  0  0  0  0  0
    2.7709   -2.1534   -3.3635 H   0  0  0  0  0  0  0  0  0  0  0  0
    4.4503   -2.4325   -3.7821 H   0  0  0  0  0  0  0  0  0  0  0  0
    5.2430   -2.0445   -0.7546 H   0  0  0  0  0  0  0  0  0  0  0  0
    6.6520   -4.1627   -2.0670 H   0  0  0  0  0  0  0  0  0  0  0  0
    6.5474   -2.5823   -2.7264 H   0  0  0  0  0  0  0  0  0  0  0  0
    8.6386   -3.0526   -1.0942 H   0  0  0  0  0  0  0  0  0  0  0  0
    7.8275   -1.5406   -1.0138 H   0  0  0  0  0  0  0  0  0  0  0  0
    8.3352   -2.9572    1.1477 H   0  0  0  0  0  0  0  0  0  0  0  0
    5.9404   -1.0098    0.8932 H   0  0  0  0  0  0  0  0  0  0  0  0
    7.6965   -0.6781    1.1667 H   0  0  0  0  0  0  0  0  0  0  0  0
    6.7094   -1.5052    2.3652 H   0  0  0  0  0  0  0  0  0  0  0  0
    7.0248   -4.5687    0.2550 H   0  0  0  0  0  0  0  0  0  0  0  0
    6.5898   -4.3168    3.0586 H   0  0  0  0  0  0  0  0  0  0  0  0
    7.3757   -5.5085    2.0139 H   0  0  0  0  0  0  0  0  0  0  0  0
  1  2  1  0
  1 29  1  0
  1 30  1  0
  1 31  1  0
  2 16  1  0
  2  3  1  0
  2 32  1  6
  3  4  1  0
  3 33  1  0
  3 34  1  0
 28  4  1  6
  4  5  1  0
  4 35  1  6
  5 27  1  0
  5  6  1  0
  6  7  1  0
  6 36  1  0
  6 37  1  0
  7  8  2  3
  7 38  1  0
  8 13  1  0
  8  9  1  0
  9 10  2  0
  9 11  1  0
 11 12  1  0
 12 13  1  0
 12 39  1  0
 12 40  1  0
 13 14  1  6
 13 15  1  0
 14 41  1  0
 14 42  1  0
 14 43  1  0
 15 16  1  0
 15 44  1  0
 15 45  1  0
 16 17  1  0
 16 46  1  6
 17 28  1  0
 17 18  1  0
 17 47  1  1
 18 19  1  0
 18 48  1  0
 18 49  1  0
 19 20  1  0
 19 21  1  0
 19 50  1  6
 20 51  1  0
 20 52  1  0
 20 53  1  0
 21 28  1  0
 21 22  1  0
 21 54  1  1
 22 23  1  0
 22 55  1  0
 22 56  1  0
 23 24  1  0
 23 57  1  0
 23 58  1  0
 24 25  1  0
 24 26  1  0
 24 59  1  1
 25 60  1  0
 25 61  1  0
 25 62  1  0
 26 27  1  0
 26 28  1  0
 26 63  1  6
 27 64  1  0
 27 65  1  0
M  END
>  <i_m_ct_stereo_status>  (263) 
1

>  <s_m_source_file>  (263) 
/var/tmp/pbs.5076255.sched01/tmpnby3vxlc/96d7dj3887.sdf

>  <i_m_source_file_index>  (263) 
13

>  <i_lp_mmshare_version>  (263) 
48012

>  <i_f3d_flags>  (263) 
0

>  <s_epik_input>  (263) 
QzEyM1tDQEhdNE41W0NIMl0vW0NIXT1DLzZbQ0BdKFtDSDNdKShbQ0gyXU9DNj1PKVtDSDJdW0NASF0oW0NASF0oW0NIM10pW0NIMl00KVtDQEBIXTFbQ0gyXVtDQEBIXShbQ0gzXSlbQ0BASF0yW0NIMl1bQ0gyXVtDQEBIXShbQ0gzXSlbQ0BIXTNbQ0gyXTU=

>  <s_epik_cmdline>  (263) 
J2VwaWtfcHl0aG9uJywgJy1waHQnLCAnMi4wJywgJy1waCcsICc3LjAnLCAnLXRuJywgJzgnLCAnLW1hJywgJzIwMCcsICctaW1hZScsICc8aW5maWxlLm1hZT4nLCAnLW9tYWUnLCAnPG91dGZpbGUubWFlPic=

>  <r_epik_Ionization_Penalty>  (263) 
2.34231

>  <r_epik_Ionization_Penalty_Charging>  (263) 
0

>  <r_epik_Ionization_Penalty_Neutral>  (263) 
2.34231

>  <r_epik_State_Penalty>  (263) 
2.49602

>  <r_epik_Charging_Adjusted_Penalty>  (263) 
2.49602

>  <i_epik_Tot_Q>  (263) 
0

>  <i_epik_Tot_abs_Q>  (263) 
0

>  <s_epik_Chemistry_Notes>  (263) 
This compound has an ester and may undergo hydrolysis at high or low pH.

>  <s_lp_Force_Field>  (263) 
OPLS3e

>  <r_lp_Energy>  (263) 
131.065

>  <b_lp_Chiralities_Consistent>  (263) 
1

>  <s_lp_Variant>  (263) 
59:0-7

>  <s_i_glide_gridfile>  (263) 
pfpi4k_grid

>  <i_i_glide_lignum>  (263) 
13

>  <i_i_glide_rotatable_bonds>  (263) 
0

>  <r_i_docking_score>  (263) 
-1.88634

>  <r_i_glide_ligand_efficiency>  (263) 
-0.0673692

>  <r_i_glide_ligand_efficiency_sa>  (263) 
-0.204572

>  <r_i_glide_ligand_efficiency_ln>  (263) 
-0.435422

>  <r_i_glide_gscore>  (263) 
-1.88634

>  <r_i_glide_lipo>  (263) 
-0.591099

>  <r_i_glide_hbond>  (263) 
0

>  <r_i_glide_metal>  (263) 
-0

>  <r_i_glide_rewards>  (263) 
-0.793863

>  <r_i_glide_evdw>  (263) 
-10.7373

>  <r_i_glide_ecoul>  (263) 
0.236591

>  <r_i_glide_erotb>  (263) 
0

>  <r_i_glide_esite>  (263) 
0

>  <r_i_glide_emodel>  (263) 
-11.1785

>  <r_i_glide_energy>  (263) 
-10.5007

>  <r_i_glide_einternal>  (263) 
0

>  <r_i_glide_intrahb_reward>  (263) 
-0

>  <i_i_glide_confnum>  (263) 
2

>  <i_i_glide_posenum>  (263) 
5

>  <r_i_glide_eff_state_penalty>  (263) 
0

>  <ligand_id>  (263) 
59

>  <original_smiles>  (263) 
CC1CC2N3CC=C4C(=O)OCC4(C)CC1C1CC(C)C4CCC(C)C(C3)C412

>  <smiles>  (263) 
[H]C1=C2C(=O)OC([H])([H])C2(C([H])([H])[H])C([H])([H])C2([H])C([H])(C([H])([H])[H])C([H])([H])C3([H])N(C1([H])[H])C([H])([H])C1([H])C([H])(C([H])([H])[H])C([H])([H])C([H])([H])C4([H])C([H])(C([H])([H])[H])C([H])([H])C2([H])C314

$$$$
59:7:0
     RDKit          3D

 65 70  0  0  1  0  0  0  0  0999 V2000
    4.8503   -7.4697    4.3473 C   0  0  0  0  0  0  0  0  0  0  0  0
    4.6973   -6.2336    3.4417 C   0  0  2  0  0  0  0  0  0  0  0  0
    4.5775   -4.8789    4.1545 C   0  0  0  0  0  0  0  0  0  0  0  0
    4.2929   -3.6480    3.2475 C   0  0  2  0  0  0  0  0  0  0  0  0
    2.9362   -3.0183    3.3849 N   0  0  0  0  0  0  0  0  0  0  0  0
    1.8631   -3.5722    4.2202 C   0  0  0  0  0  0  0  0  0  0  0  0
    1.3212   -4.8036    3.5499 C   0  0  0  0  0  0  0  0  0  0  0  0
    1.3365   -6.0755    3.9582 C   0  0  0  0  0  0  0  0  0  0  0  0
    1.5839   -6.6054    5.2923 C   0  0  0  0  0  0  0  0  0  0  0  0
    1.6305   -5.9683    6.3463 O   0  0  0  0  0  0  0  0  0  0  0  0
    1.7083   -7.9303    5.1798 O   0  0  0  0  0  0  0  0  0  0  0  0
    1.7537   -8.4081    3.8373 C   0  0  0  0  0  0  0  0  0  0  0  0
    1.3966   -7.1893    2.9682 C   0  0  1  0  0  0  0  0  0  0  0  0
   -0.0011   -7.4210    2.3475 C   0  0  0  0  0  0  0  0  0  0  0  0
    2.4436   -6.8276    1.8440 C   0  0  0  0  0  0  0  0  0  0  0  0
    3.9441   -6.3482    2.0790 C   0  0  1  0  0  0  0  0  0  0  0  0
    4.4782   -5.1936    1.1368 C   0  0  2  0  0  0  0  0  0  0  0  0
    5.9525   -5.6026    0.7368 C   0  0  0  0  0  0  0  0  0  0  0  0
    6.9237   -4.5277    1.2713 C   0  0  1  0  0  0  0  0  0  0  0  0
    8.2683   -4.4787    0.5221 C   0  0  0  0  0  0  0  0  0  0  0  0
    6.0164   -3.3428    1.0651 C   0  0  2  0  0  0  0  0  0  0  0  0
    6.4747   -1.8722    1.0397 C   0  0  0  0  0  0  0  0  0  0  0  0
    5.4952   -1.0655    0.1193 C   0  0  0  0  0  0  0  0  0  0  0  0
    4.0323   -1.6341    0.0641 C   0  0  1  0  0  0  0  0  0  0  0  0
    3.6769   -2.3771   -1.2394 C   0  0  0  0  0  0  0  0  0  0  0  0
    3.7945   -2.4417    1.3579 C   0  0  1  0  0  0  0  0  0  0  0  0
    2.4797   -2.5523    2.0619 C   0  0  0  0  0  0  0  0  0  0  0  0
    4.6345   -3.7025    1.7054 C   0  0  2  0  0  0  0  0  0  0  0  0
    4.1029   -7.5402    5.1262 H   0  0  0  0  0  0  0  0  0  0  0  0
    5.8032   -7.4262    4.8755 H   0  0  0  0  0  0  0  0  0  0  0  0
    4.8598   -8.3930    3.7700 H   0  0  0  0  0  0  0  0  0  0  0  0
    5.7361   -6.1996    3.1330 H   0  0  0  0  0  0  0  0  0  0  0  0
    3.9133   -4.9469    5.0080 H   0  0  0  0  0  0  0  0  0  0  0  0
    5.5475   -4.7019    4.6213 H   0  0  0  0  0  0  0  0  0  0  0  0
    4.9397   -2.8691    3.6577 H   0  0  0  0  0  0  0  0  0  0  0  0
    2.2058   -3.7562    5.2376 H   0  0  0  0  0  0  0  0  0  0  0  0
    1.0642   -2.8326    4.2913 H   0  0  0  0  0  0  0  0  0  0  0  0
    1.0635   -4.6677    2.5196 H   0  0  0  0  0  0  0  0  0  0  0  0
    2.7357   -8.8070    3.5968 H   0  0  0  0  0  0  0  0  0  0  0  0
    1.0464   -9.2296    3.7146 H   0  0  0  0  0  0  0  0  0  0  0  0
    0.0015   -8.2863    1.6815 H   0  0  0  0  0  0  0  0  0  0  0  0
   -0.3398   -6.5670    1.7648 H   0  0  0  0  0  0  0  0  0  0  0  0
   -0.7506   -7.6126    3.1196 H   0  0  0  0  0  0  0  0  0  0  0  0
    2.4872   -7.7097    1.2029 H   0  0  0  0  0  0  0  0  0  0  0  0
    1.9832   -6.0918    1.1835 H   0  0  0  0  0  0  0  0  0  0  0  0
    4.4079   -7.2497    1.6823 H   0  0  0  0  0  0  0  0  0  0  0  0
    3.8855   -5.1682    0.2221 H   0  0  0  0  0  0  0  0  0  0  0  0
    6.2839   -6.5890    1.0633 H   0  0  0  0  0  0  0  0  0  0  0  0
    6.0041   -5.6443   -0.3477 H   0  0  0  0  0  0  0  0  0  0  0  0
    7.1119   -4.6609    2.3356 H   0  0  0  0  0  0  0  0  0  0  0  0
    8.1430   -4.2903   -0.5453 H   0  0  0  0  0  0  0  0  0  0  0  0
    8.8065   -5.4207    0.6367 H   0  0  0  0  0  0  0  0  0  0  0  0
    8.9096   -3.6911    0.9189 H   0  0  0  0  0  0  0  0  0  0  0  0
    5.8678   -3.4338   -0.0122 H   0  0  0  0  0  0  0  0  0  0  0  0
    6.4871   -1.4662    2.0510 H   0  0  0  0  0  0  0  0  0  0  0  0
    7.4902   -1.7778    0.6531 H   0  0  0  0  0  0  0  0  0  0  0  0
    5.4678   -0.0343    0.4783 H   0  0  0  0  0  0  0  0  0  0  0  0
    5.8901   -1.0097   -0.8933 H   0  0  0  0  0  0  0  0  0  0  0  0
    3.3651   -0.7694    0.0901 H   0  0  0  0  0  0  0  0  0  0  0  0
    4.2546   -3.2845   -1.4008 H   0  0  0  0  0  0  0  0  0  0  0  0
    3.8315   -1.7321   -2.1042 H   0  0  0  0  0  0  0  0  0  0  0  0
    2.6235   -2.6591   -1.2417 H   0  0  0  0  0  0  0  0  0  0  0  0
    4.1950   -1.6518    2.0045 H   0  0  0  0  0  0  0  0  0  0  0  0
    1.8575   -3.2323    1.4912 H   0  0  0  0  0  0  0  0  0  0  0  0
    1.9616   -1.5965    2.1454 H   0  0  0  0  0  0  0  0  0  0  0  0
  1  2  1  0
  1 29  1  0
  1 30  1  0
  1 31  1  0
  2 16  1  0
  2  3  1  0
  2 32  1  6
  3  4  1  0
  3 33  1  0
  3 34  1  0
 28  4  1  1
  4  5  1  0
  4 35  1  1
  5 27  1  0
  5  6  1  0
  6  7  1  0
  6 36  1  0
  6 37  1  0
  7  8  2  3
  7 38  1  0
  8 13  1  0
  8  9  1  0
  9 10  2  0
  9 11  1  0
 11 12  1  0
 12 13  1  0
 12 39  1  0
 12 40  1  0
 13 14  1  6
 13 15  1  0
 14 41  1  0
 14 42  1  0
 14 43  1  0
 15 16  1  0
 15 44  1  0
 15 45  1  0
 16 17  1  0
 16 46  1  6
 17 28  1  0
 17 18  1  0
 17 47  1  6
 18 19  1  0
 18 48  1  0
 18 49  1  0
 19 20  1  0
 19 21  1  0
 19 50  1  1
 20 51  1  0
 20 52  1  0
 20 53  1  0
 21 28  1  0
 21 22  1  0
 21 54  1  6
 22 23  1  0
 22 55  1  0
 22 56  1  0
 23 24  1  0
 23 57  1  0
 23 58  1  0
 24 25  1  0
 24 26  1  0
 24 59  1  1
 25 60  1  0
 25 61  1  0
 25 62  1  0
 26 27  1  0
 26 28  1  0
 26 63  1  1
 27 64  1  0
 27 65  1  0
M  END
>  <i_m_ct_stereo_status>  (264) 
1

>  <s_m_source_file>  (264) 
/var/tmp/pbs.5076255.sched01/tmpnby3vxlc/96d7dj3887.sdf

>  <i_m_source_file_index>  (264) 
14

>  <i_lp_mmshare_version>  (264) 
48012

>  <i_f3d_flags>  (264) 
0

>  <s_epik_input>  (264) 
QzEyM1tDQEhdNE41W0NIMl0vW0NIXT1DLzZbQ0BdKFtDSDNdKShbQ0gyXU9DNj1PKVtDSDJdW0NASF0oW0NASF0oW0NIM10pW0NIMl00KVtDQEBIXTFbQ0gyXVtDQEBIXShbQ0gzXSlbQ0BASF0yW0NIMl1bQ0gyXVtDQEBIXShbQ0gzXSlbQ0BIXTNbQ0gyXTU=

>  <s_epik_cmdline>  (264) 
J2VwaWtfcHl0aG9uJywgJy1waHQnLCAnMi4wJywgJy1waCcsICc3LjAnLCAnLXRuJywgJzgnLCAnLW1hJywgJzIwMCcsICctaW1hZScsICc8aW5maWxlLm1hZT4nLCAnLW9tYWUnLCAnPG91dGZpbGUubWFlPic=

>  <r_epik_Ionization_Penalty>  (264) 
2.34231

>  <r_epik_Ionization_Penalty_Charging>  (264) 
0

>  <r_epik_Ionization_Penalty_Neutral>  (264) 
2.34231

>  <r_epik_State_Penalty>  (264) 
2.49602

>  <r_epik_Charging_Adjusted_Penalty>  (264) 
2.49602

>  <i_epik_Tot_Q>  (264) 
0

>  <i_epik_Tot_abs_Q>  (264) 
0

>  <s_epik_Chemistry_Notes>  (264) 
This compound has an ester and may undergo hydrolysis at high or low pH.

>  <s_lp_Force_Field>  (264) 
OPLS3e

>  <r_lp_Energy>  (264) 
151.625

>  <b_lp_Chiralities_Consistent>  (264) 
1

>  <s_lp_Variant>  (264) 
59:0-8

>  <s_i_glide_gridfile>  (264) 
pfpi4k_grid

>  <i_i_glide_lignum>  (264) 
14

>  <i_i_glide_rotatable_bonds>  (264) 
0

>  <r_i_docking_score>  (264) 
-2.83311

>  <r_i_glide_ligand_efficiency>  (264) 
-0.101183

>  <r_i_glide_ligand_efficiency_sa>  (264) 
-0.30725

>  <r_i_glide_ligand_efficiency_ln>  (264) 
-0.653966

>  <r_i_glide_gscore>  (264) 
-2.83311

>  <r_i_glide_lipo>  (264) 
-0.619339

>  <r_i_glide_hbond>  (264) 
0

>  <r_i_glide_metal>  (264) 
-0

>  <r_i_glide_rewards>  (264) 
-0.793863

>  <r_i_glide_evdw>  (264) 
-26.4091

>  <r_i_glide_ecoul>  (264) 
-0.653556

>  <r_i_glide_erotb>  (264) 
0

>  <r_i_glide_esite>  (264) 
-0.0014203

>  <r_i_glide_emodel>  (264) 
-31.4929

>  <r_i_glide_energy>  (264) 
-27.0627

>  <r_i_glide_einternal>  (264) 
0

>  <r_i_glide_intrahb_reward>  (264) 
-0

>  <i_i_glide_confnum>  (264) 
2

>  <i_i_glide_posenum>  (264) 
6

>  <r_i_glide_eff_state_penalty>  (264) 
0

>  <ligand_id>  (264) 
59

>  <original_smiles>  (264) 
CC1CC2N3CC=C4C(=O)OCC4(C)CC1C1CC(C)C4CCC(C)C(C3)C412

>  <smiles>  (264) 
[H]C1=C2C(=O)OC([H])([H])C2(C([H])([H])[H])C([H])([H])C2([H])C([H])(C([H])([H])[H])C([H])([H])C3([H])N(C1([H])[H])C([H])([H])C1([H])C([H])(C([H])([H])[H])C([H])([H])C([H])([H])C4([H])C([H])(C([H])([H])[H])C([H])([H])C2([H])C314

$$$$
59:7:1
     RDKit          3D

 65 70  0  0  1  0  0  0  0  0999 V2000
    7.3005   -3.9442    0.8282 C   0  0  0  0  0  0  0  0  0  0  0  0
    6.1233   -4.8139    1.3047 C   0  0  2  0  0  0  0  0  0  0  0  0
    5.2693   -5.4536    0.2064 C   0  0  0  0  0  0  0  0  0  0  0  0
    4.0127   -6.2312    0.6796 C   0  0  2  0  0  0  0  0  0  0  0  0
    2.6910   -5.6034    0.3533 N   0  0  0  0  0  0  0  0  0  0  0  0
    2.5532   -4.3001   -0.3150 C   0  0  0  0  0  0  0  0  0  0  0  0
    2.8587   -3.2286    0.6908 C   0  0  0  0  0  0  0  0  0  0  0  0
    3.8559   -2.3392    0.6973 C   0  0  0  0  0  0  0  0  0  0  0  0
    4.7197   -1.9129   -0.3980 C   0  0  0  0  0  0  0  0  0  0  0  0
    4.5816   -2.1546   -1.5982 O   0  0  0  0  0  0  0  0  0  0  0  0
    5.6966   -1.1666    0.1295 O   0  0  0  0  0  0  0  0  0  0  0  0
    5.7263   -1.1629    1.5547 C   0  0  0  0  0  0  0  0  0  0  0  0
    4.4309   -1.8665    1.9904 C   0  0  1  0  0  0  0  0  0  0  0  0
    3.4889   -0.8185    2.6257 C   0  0  0  0  0  0  0  0  0  0  0  0
    4.6179   -3.0975    2.9636 C   0  0  0  0  0  0  0  0  0  0  0  0
    5.3628   -4.4634    2.6197 C   0  0  1  0  0  0  0  0  0  0  0  0
    4.7007   -5.7951    3.1676 C   0  0  2  0  0  0  0  0  0  0  0  0
    5.8881   -6.6919    3.7085 C   0  0  0  0  0  0  0  0  0  0  0  0
    5.9377   -7.9903    2.8693 C   0  0  1  0  0  0  0  0  0  0  0  0
    6.6370   -9.1552    3.5901 C   0  0  0  0  0  0  0  0  0  0  0  0
    4.4514   -8.1399    2.6734 C   0  0  2  0  0  0  0  0  0  0  0  0
    3.7392   -9.4354    2.2394 C   0  0  0  0  0  0  0  0  0  0  0  0
    2.2937   -9.4295    2.8483 C   0  0  0  0  0  0  0  0  0  0  0  0
    1.6755   -7.9991    3.0546 C   0  0  1  0  0  0  0  0  0  0  0  0
    1.6270   -7.5144    4.5178 C   0  0  0  0  0  0  0  0  0  0  0  0
    2.3877   -7.0386    2.0822 C   0  0  1  0  0  0  0  0  0  0  0  0
    1.7413   -5.8568    1.4445 C   0  0  0  0  0  0  0  0  0  0  0  0
    3.9147   -6.7638    2.1617 C   0  0  2  0  0  0  0  0  0  0  0  0
    7.0286   -3.1935    0.0989 H   0  0  0  0  0  0  0  0  0  0  0  0
    8.0461   -4.5649    0.3316 H   0  0  0  0  0  0  0  0  0  0  0  0
    7.8045   -3.4698    1.6663 H   0  0  0  0  0  0  0  0  0  0  0  0
    6.7292   -5.6618    1.6046 H   0  0  0  0  0  0  0  0  0  0  0  0
    5.0756   -4.7564   -0.6011 H   0  0  0  0  0  0  0  0  0  0  0  0
    5.9120   -6.1886   -0.2708 H   0  0  0  0  0  0  0  0  0  0  0  0
    4.0113   -7.1242    0.0515 H   0  0  0  0  0  0  0  0  0  0  0  0
    3.1685   -4.2388   -1.2089 H   0  0  0  0  0  0  0  0  0  0  0  0
    1.5238   -4.1912   -0.6535 H   0  0  0  0  0  0  0  0  0  0  0  0
    2.3361   -3.3318    1.6221 H   0  0  0  0  0  0  0  0  0  0  0  0
    6.6105   -1.6726    1.9276 H   0  0  0  0  0  0  0  0  0  0  0  0
    5.7813   -0.1364    1.9182 H   0  0  0  0  0  0  0  0  0  0  0  0
    3.9236   -0.3911    3.5306 H   0  0  0  0  0  0  0  0  0  0  0  0
    2.5230   -1.2453    2.8965 H   0  0  0  0  0  0  0  0  0  0  0  0
    3.2929    0.0084    1.9380 H   0  0  0  0  0  0  0  0  0  0  0  0
    5.0983   -2.6900    3.8549 H   0  0  0  0  0  0  0  0  0  0  0  0
    3.6335   -3.3698    3.3462 H   0  0  0  0  0  0  0  0  0  0  0  0
    6.2051   -4.3009    3.2870 H   0  0  0  0  0  0  0  0  0  0  0  0
    4.0539   -5.5581    4.0118 H   0  0  0  0  0  0  0  0  0  0  0  0
    6.8742   -6.2265    3.7107 H   0  0  0  0  0  0  0  0  0  0  0  0
    5.6936   -6.9287    4.7565 H   0  0  0  0  0  0  0  0  0  0  0  0
    6.4144   -7.8314    1.9018 H   0  0  0  0  0  0  0  0  0  0  0  0
    6.1684   -9.3843    4.5489 H   0  0  0  0  0  0  0  0  0  0  0  0
    7.6842   -8.9180    3.7809 H   0  0  0  0  0  0  0  0  0  0  0  0
    6.6170  -10.0617    2.9842 H   0  0  0  0  0  0  0  0  0  0  0  0
    4.1507   -8.1913    3.7212 H   0  0  0  0  0  0  0  0  0  0  0  0
    3.7099   -9.5093    1.1525 H   0  0  0  0  0  0  0  0  0  0  0  0
    4.2680  -10.3205    2.5969 H   0  0  0  0  0  0  0  0  0  0  0  0
    1.6480  -10.0062    2.1823 H   0  0  0  0  0  0  0  0  0  0  0  0
    2.2837   -9.9664    3.7964 H   0  0  0  0  0  0  0  0  0  0  0  0
    0.6318   -8.0742    2.7416 H   0  0  0  0  0  0  0  0  0  0  0  0
    2.6100   -7.3839    4.9639 H   0  0  0  0  0  0  0  0  0  0  0  0
    1.0800   -8.2225    5.1400 H   0  0  0  0  0  0  0  0  0  0  0  0
    1.1101   -6.5574    4.5909 H   0  0  0  0  0  0  0  0  0  0  0  0
    2.2697   -7.7115    1.2250 H   0  0  0  0  0  0  0  0  0  0  0  0
    1.6409   -5.0715    2.1905 H   0  0  0  0  0  0  0  0  0  0  0  0
    0.7594   -6.0997    1.0408 H   0  0  0  0  0  0  0  0  0  0  0  0
  1  2  1  0
  1 29  1  0
  1 30  1  0
  1 31  1  0
  2 16  1  0
  2  3  1  0
  2 32  1  1
  3  4  1  0
  3 33  1  0
  3 34  1  0
 28  4  1  6
  4  5  1  0
  4 35  1  6
  5 27  1  0
  5  6  1  0
  6  7  1  0
  6 36  1  0
  6 37  1  0
  7  8  2  3
  7 38  1  0
  8 13  1  0
  8  9  1  0
  9 10  2  0
  9 11  1  0
 11 12  1  0
 12 13  1  0
 12 39  1  0
 12 40  1  0
 13 14  1  1
 13 15  1  0
 14 41  1  0
 14 42  1  0
 14 43  1  0
 15 16  1  0
 15 44  1  0
 15 45  1  0
 16 17  1  0
 16 46  1  1
 17 28  1  0
 17 18  1  0
 17 47  1  1
 18 19  1  0
 18 48  1  0
 18 49  1  0
 19 20  1  0
 19 21  1  0
 19 50  1  6
 20 51  1  0
 20 52  1  0
 20 53  1  0
 21 28  1  0
 21 22  1  0
 21 54  1  1
 22 23  1  0
 22 55  1  0
 22 56  1  0
 23 24  1  0
 23 57  1  0
 23 58  1  0
 24 25  1  0
 24 26  1  0
 24 59  1  6
 25 60  1  0
 25 61  1  0
 25 62  1  0
 26 27  1  0
 26 28  1  0
 26 63  1  6
 27 64  1  0
 27 65  1  0
M  END
>  <i_m_ct_stereo_status>  (265) 
1

>  <s_m_source_file>  (265) 
/var/tmp/pbs.5076255.sched01/tmpnby3vxlc/96d7dj3887.sdf

>  <i_m_source_file_index>  (265) 
14

>  <i_lp_mmshare_version>  (265) 
48012

>  <i_f3d_flags>  (265) 
0

>  <s_epik_input>  (265) 
QzEyM1tDQEhdNE41W0NIMl0vW0NIXT1DLzZbQ0BdKFtDSDNdKShbQ0gyXU9DNj1PKVtDSDJdW0NASF0oW0NASF0oW0NIM10pW0NIMl00KVtDQEBIXTFbQ0gyXVtDQEBIXShbQ0gzXSlbQ0BASF0yW0NIMl1bQ0gyXVtDQEBIXShbQ0gzXSlbQ0BIXTNbQ0gyXTU=

>  <s_epik_cmdline>  (265) 
J2VwaWtfcHl0aG9uJywgJy1waHQnLCAnMi4wJywgJy1waCcsICc3LjAnLCAnLXRuJywgJzgnLCAnLW1hJywgJzIwMCcsICctaW1hZScsICc8aW5maWxlLm1hZT4nLCAnLW9tYWUnLCAnPG91dGZpbGUubWFlPic=

>  <r_epik_Ionization_Penalty>  (265) 
2.34231

>  <r_epik_Ionization_Penalty_Charging>  (265) 
0

>  <r_epik_Ionization_Penalty_Neutral>  (265) 
2.34231

>  <r_epik_State_Penalty>  (265) 
2.49602

>  <r_epik_Charging_Adjusted_Penalty>  (265) 
2.49602

>  <i_epik_Tot_Q>  (265) 
0

>  <i_epik_Tot_abs_Q>  (265) 
0

>  <s_epik_Chemistry_Notes>  (265) 
This compound has an ester and may undergo hydrolysis at high or low pH.

>  <s_lp_Force_Field>  (265) 
OPLS3e

>  <r_lp_Energy>  (265) 
151.625

>  <b_lp_Chiralities_Consistent>  (265) 
1

>  <s_lp_Variant>  (265) 
59:0-8

>  <s_i_glide_gridfile>  (265) 
pfpi4k_grid

>  <i_i_glide_lignum>  (265) 
14

>  <i_i_glide_rotatable_bonds>  (265) 
0

>  <r_i_docking_score>  (265) 
-2.78016

>  <r_i_glide_ligand_efficiency>  (265) 
-0.0992915

>  <r_i_glide_ligand_efficiency_sa>  (265) 
-0.301507

>  <r_i_glide_ligand_efficiency_ln>  (265) 
-0.641743

>  <r_i_glide_gscore>  (265) 
-2.78016

>  <r_i_glide_lipo>  (265) 
-0.646897

>  <r_i_glide_hbond>  (265) 
0

>  <r_i_glide_metal>  (265) 
-0

>  <r_i_glide_rewards>  (265) 
-0.793863

>  <r_i_glide_evdw>  (265) 
-27.1913

>  <r_i_glide_ecoul>  (265) 
0.263189

>  <r_i_glide_erotb>  (265) 
0

>  <r_i_glide_esite>  (265) 
-0.0193174

>  <r_i_glide_emodel>  (265) 
-31.2506

>  <r_i_glide_energy>  (265) 
-26.9281

>  <r_i_glide_einternal>  (265) 
0

>  <r_i_glide_intrahb_reward>  (265) 
-0

>  <i_i_glide_confnum>  (265) 
2

>  <i_i_glide_posenum>  (265) 
15

>  <r_i_glide_eff_state_penalty>  (265) 
0

>  <ligand_id>  (265) 
59

>  <original_smiles>  (265) 
CC1CC2N3CC=C4C(=O)OCC4(C)CC1C1CC(C)C4CCC(C)C(C3)C412

>  <smiles>  (265) 
[H]C1=C2C(=O)OC([H])([H])C2(C([H])([H])[H])C([H])([H])C2([H])C([H])(C([H])([H])[H])C([H])([H])C3([H])N(C1([H])[H])C([H])([H])C1([H])C([H])(C([H])([H])[H])C([H])([H])C([H])([H])C4([H])C([H])(C([H])([H])[H])C([H])([H])C2([H])C314

$$$$
60:0:0
     RDKit          3D

 44 47  0  0  1  0  0  0  0  0999 V2000
    3.7802   -0.3596   -5.1159 C   0  0  0  0  0  0  0  0  0  0  0  0
    3.6593   -1.2639   -3.8805 C   0  0  2  0  0  0  0  0  0  0  0  0
    3.3091   -0.3584   -2.7301 C   0  0  0  0  0  0  0  0  0  0  0  0
    3.4372   -1.0699   -1.4231 C   0  0  0  0  0  0  0  0  0  0  0  0
    4.2932   -2.0461   -1.2324 C   0  0  0  0  0  0  0  0  0  0  0  0
    5.1231   -2.4125   -2.3712 C   0  0  0  0  0  0  0  0  0  0  0  0
    6.1698   -3.2424   -2.1847 C   0  0  0  0  0  0  0  0  0  0  0  0
    6.5209   -3.8135   -0.8234 C   0  0  0  0  0  0  0  0  0  0  0  0
    5.9388   -3.0333    0.3543 C   0  0  2  0  0  0  0  0  0  0  0  0
    6.1644   -3.7904    1.6521 C   0  0  0  0  0  0  0  0  0  0  0  0
    5.2735   -3.8028    2.6615 C   0  0  0  0  0  0  0  0  0  0  0  0
    3.9321   -3.0631    2.6477 C   0  0  1  0  0  0  0  0  0  0  0  0
    2.8111   -4.1187    2.7075 C   0  0  0  0  0  0  0  0  0  0  0  0
    3.7926   -2.0668    3.8413 C   0  0  1  0  0  0  0  0  0  0  0  0
    4.8135   -2.1860    4.8162 O   0  0  0  0  0  0  0  0  0  0  0  0
    3.7840   -0.6431    3.2611 C   0  0  0  0  0  0  0  0  0  0  0  0
    4.3108   -0.7827    1.8408 C   0  0  0  0  0  0  0  0  0  0  0  0
    3.7835   -2.1548    1.3817 C   0  0  1  0  0  0  0  0  0  0  0  0
    4.4548   -2.7721    0.1121 C   0  0  1  0  0  0  0  0  0  0  0  0
    4.8919   -1.9642   -3.6515 O   0  0  0  0  0  0  0  0  0  0  0  0
    2.8331    0.1537   -5.3696 H   0  0  0  0  0  0  0  0  0  0  0  0
    3.9873   -1.0453   -5.9277 H   0  0  0  0  0  0  0  0  0  0  0  0
    4.5653    0.3944   -5.0328 H   0  0  0  0  0  0  0  0  0  0  0  0
    2.8601   -2.0127   -4.0383 H   0  0  0  0  0  0  0  0  0  0  0  0
    3.9844    0.5077   -2.7177 H   0  0  0  0  0  0  0  0  0  0  0  0
    2.2775   -0.0423   -2.8393 H   0  0  0  0  0  0  0  0  0  0  0  0
    2.8184   -0.7104   -0.6091 H   0  0  0  0  0  0  0  0  0  0  0  0
    6.7598   -3.5186   -3.0283 H   0  0  0  0  0  0  0  0  0  0  0  0
    6.1136   -4.8192   -0.7458 H   0  0  0  0  0  0  0  0  0  0  0  0
    7.6201   -3.8452   -0.7671 H   0  0  0  0  0  0  0  0  0  0  0  0
    6.4972   -2.0914    0.4421 H   0  0  0  0  0  0  0  0  0  0  0  0
    7.0947   -4.3515    1.7342 H   0  0  0  0  0  0  0  0  0  0  0  0
    5.4865   -4.3552    3.5661 H   0  0  0  0  0  0  0  0  0  0  0  0
    1.8200   -3.6615    2.7002 H   0  0  0  0  0  0  0  0  0  0  0  0
    2.8915   -4.7116    3.6172 H   0  0  0  0  0  0  0  0  0  0  0  0
    2.8728   -4.8059    1.8654 H   0  0  0  0  0  0  0  0  0  0  0  0
    2.8465   -2.2328    4.3634 H   0  0  0  0  0  0  0  0  0  0  0  0
    4.6532   -1.5380    5.4840 H   0  0  0  0  0  0  0  0  0  0  0  0
    2.7549   -0.2832    3.2344 H   0  0  0  0  0  0  0  0  0  0  0  0
    4.3523    0.0695    3.8587 H   0  0  0  0  0  0  0  0  0  0  0  0
    3.9863    0.0398    1.2073 H   0  0  0  0  0  0  0  0  0  0  0  0
    5.3989   -0.7721    1.8736 H   0  0  0  0  0  0  0  0  0  0  0  0
    2.7178   -2.0362    1.1843 H   0  0  0  0  0  0  0  0  0  0  0  0
    3.9627   -3.7281   -0.0536 H   0  0  0  0  0  0  0  0  0  0  0  0
  1  2  1  0
  1 21  1  0
  1 22  1  0
  1 23  1  0
  2 20  1  0
  2  3  1  0
  2 24  1  6
  3  4  1  0
  3 25  1  0
  3 26  1  0
  4  5  2  0
  4 27  1  0
  5 19  1  0
  5  6  1  0
  6  7  2  0
  6 20  1  0
  7  8  1  0
  7 28  1  0
  8  9  1  0
  8 29  1  0
  8 30  1  0
  9 19  1  0
  9 10  1  0
  9 31  1  1
 10 11  2  0
 10 32  1  0
 11 12  1  0
 11 33  1  0
 12 18  1  0
 12 13  1  1
 12 14  1  0
 13 34  1  0
 13 35  1  0
 13 36  1  0
 14 15  1  0
 14 16  1  0
 14 37  1  1
 15 38  1  0
 16 17  1  0
 16 39  1  0
 16 40  1  0
 17 18  1  0
 17 41  1  0
 17 42  1  0
 18 19  1  0
 18 43  1  6
 19 44  1  6
M  END
>  <i_m_ct_stereo_status>  (266) 
1

>  <s_m_source_file>  (266) 
/var/tmp/pbs.5076255.sched01/tmpnby3vxlc/96d7dj3887.sdf

>  <i_m_source_file_index>  (266) 
15

>  <i_lp_mmshare_version>  (266) 
48012

>  <i_f3d_flags>  (266) 
0

>  <s_epik_input>  (266) 
W0NIXTE9W0NIXVtDQEhdMltDSDJdW0NIXT1DKE9bQ0BIXShbQ0gzXSlbQ0gyXVtDSF09MylDM1tDQEBIXTJbQ0BASF0oW0NAQF0xNFtDSDNdKVtDSDJdW0NIMl1bQ0BASF00W09IXQ==

>  <s_epik_cmdline>  (266) 
J2VwaWtfcHl0aG9uJywgJy1waHQnLCAnMi4wJywgJy1waCcsICc3LjAnLCAnLXRuJywgJzgnLCAnLW1hJywgJzIwMCcsICctaW1hZScsICc8aW5maWxlLm1hZT4nLCAnLW9tYWUnLCAnPG91dGZpbGUubWFlPic=

>  <r_lp_tautomer_probability>  (266) 
1

>  <r_epik_Ionization_Penalty>  (266) 
4.96594e-07

>  <r_epik_Ionization_Penalty_Charging>  (266) 
0

>  <r_epik_Ionization_Penalty_Neutral>  (266) 
4.96594e-07

>  <r_epik_State_Penalty>  (266) 
-0

>  <r_epik_Charging_Adjusted_Penalty>  (266) 
0

>  <i_epik_Tot_Q>  (266) 
0

>  <i_epik_Tot_abs_Q>  (266) 
0

>  <s_lp_Force_Field>  (266) 
OPLS3e

>  <r_lp_Energy>  (266) 
20.8291

>  <b_lp_Chiralities_Consistent>  (266) 
1

>  <s_lp_Variant>  (266) 
60:0-1

>  <s_i_glide_gridfile>  (266) 
pfpi4k_grid

>  <i_i_glide_lignum>  (266) 
15

>  <i_i_glide_rotatable_bonds>  (266) 
1

>  <r_i_docking_score>  (266) 
-3.29815

>  <r_i_glide_ligand_efficiency>  (266) 
-0.164908

>  <r_i_glide_ligand_efficiency_sa>  (266) 
-0.447628

>  <r_i_glide_ligand_efficiency_ln>  (266) 
-0.825419

>  <r_i_glide_gscore>  (266) 
-3.29815

>  <r_i_glide_lipo>  (266) 
-0.916517

>  <r_i_glide_hbond>  (266) 
0

>  <r_i_glide_metal>  (266) 
-0

>  <r_i_glide_rewards>  (266) 
-1.59361

>  <r_i_glide_evdw>  (266) 
-10.009

>  <r_i_glide_ecoul>  (266) 
-1.91719

>  <r_i_glide_erotb>  (266) 
0

>  <r_i_glide_esite>  (266) 
0

>  <r_i_glide_emodel>  (266) 
-11.6402

>  <r_i_glide_energy>  (266) 
-11.9262

>  <r_i_glide_einternal>  (266) 
0.330755

>  <r_i_glide_intrahb_reward>  (266) 
-0

>  <i_i_glide_confnum>  (266) 
2

>  <i_i_glide_posenum>  (266) 
15

>  <r_i_glide_eff_state_penalty>  (266) 
0

>  <ligand_id>  (266) 
60

>  <original_smiles>  (266) 
CC1CC=C2C(=CCC3C=CC4(C)C(O)CCC4C23)O1

>  <smiles>  (266) 
[H]OC1([H])C([H])([H])C([H])([H])C2([H])C3([H])C4=C([H])C([H])([H])C([H])(C([H])([H])[H])OC4=C([H])C([H])([H])C3([H])C([H])=C([H])C12C([H])([H])[H]

$$$$
60:0:1
     RDKit          3D

 44 47  0  0  1  0  0  0  0  0999 V2000
    3.8017   -0.4496   -5.0778 C   0  0  0  0  0  0  0  0  0  0  0  0
    3.7148   -1.3871   -3.8606 C   0  0  2  0  0  0  0  0  0  0  0  0
    3.3334   -0.4721   -2.7442 C   0  0  0  0  0  0  0  0  0  0  0  0
    3.4677   -1.0798   -1.3868 C   0  0  0  0  0  0  0  0  0  0  0  0
    4.3400   -2.0647   -1.1399 C   0  0  0  0  0  0  0  0  0  0  0  0
    5.1811   -2.4509   -2.2531 C   0  0  0  0  0  0  0  0  0  0  0  0
    6.2244   -3.2727   -2.0344 C   0  0  0  0  0  0  0  0  0  0  0  0
    6.5727   -3.8363   -0.6747 C   0  0  0  0  0  0  0  0  0  0  0  0
    5.9717   -3.0493    0.4969 C   0  0  2  0  0  0  0  0  0  0  0  0
    6.1712   -3.7917    1.8001 C   0  0  0  0  0  0  0  0  0  0  0  0
    5.2752   -3.7832    2.8035 C   0  0  0  0  0  0  0  0  0  0  0  0
    3.9335   -3.0433    2.7652 C   0  0  1  0  0  0  0  0  0  0  0  0
    2.8219   -4.1074    2.8440 C   0  0  0  0  0  0  0  0  0  0  0  0
    3.7765   -2.0285    3.9396 C   0  0  1  0  0  0  0  0  0  0  0  0
    4.7837   -2.1142    4.9307 O   0  0  0  0  0  0  0  0  0  0  0  0
    3.7665   -0.6189    3.3339 C   0  0  0  0  0  0  0  0  0  0  0  0
    4.3119   -0.7827    1.9226 C   0  0  0  0  0  0  0  0  0  0  0  0
    3.7930   -2.1609    1.4793 C   0  0  1  0  0  0  0  0  0  0  0  0
    4.4861   -2.7707    0.2238 C   0  0  1  0  0  0  0  0  0  0  0  0
    4.9677   -2.0391   -3.5532 O   0  0  0  0  0  0  0  0  0  0  0  0
    2.8582    0.0531   -5.3373 H   0  0  0  0  0  0  0  0  0  0  0  0
    4.1182   -1.0054   -5.9495 H   0  0  0  0  0  0  0  0  0  0  0  0
    4.5720    0.3095   -4.9513 H   0  0  0  0  0  0  0  0  0  0  0  0
    2.9501   -2.1598   -3.9830 H   0  0  0  0  0  0  0  0  0  0  0  0
    3.9661    0.4147   -2.7844 H   0  0  0  0  0  0  0  0  0  0  0  0
    2.2920   -0.1807   -2.8614 H   0  0  0  0  0  0  0  0  0  0  0  0
    2.8404   -0.7024   -0.5995 H   0  0  0  0  0  0  0  0  0  0  0  0
    6.8304   -3.5972   -2.8595 H   0  0  0  0  0  0  0  0  0  0  0  0
    6.1519   -4.8394   -0.6468 H   0  0  0  0  0  0  0  0  0  0  0  0
    7.6581   -3.8621   -0.5945 H   0  0  0  0  0  0  0  0  0  0  0  0
    6.5153   -2.1096    0.5803 H   0  0  0  0  0  0  0  0  0  0  0  0
    7.1019   -4.3343    1.9041 H   0  0  0  0  0  0  0  0  0  0  0  0
    5.4947   -4.3115    3.7216 H   0  0  0  0  0  0  0  0  0  0  0  0
    1.8291   -3.6569    2.8151 H   0  0  0  0  0  0  0  0  0  0  0  0
    2.8931   -4.6813    3.7706 H   0  0  0  0  0  0  0  0  0  0  0  0
    2.8994   -4.8161    2.0212 H   0  0  0  0  0  0  0  0  0  0  0  0
    2.8272   -2.1846    4.4534 H   0  0  0  0  0  0  0  0  0  0  0  0
    4.7232   -2.9688    5.3392 H   0  0  0  0  0  0  0  0  0  0  0  0
    2.7378   -0.2618    3.2856 H   0  0  0  0  0  0  0  0  0  0  0  0
    4.3231    0.1088    3.9268 H   0  0  0  0  0  0  0  0  0  0  0  0
    3.9913    0.0279    1.2660 H   0  0  0  0  0  0  0  0  0  0  0  0
    5.4004   -0.7650    1.9704 H   0  0  0  0  0  0  0  0  0  0  0  0
    2.7263   -2.0531    1.2783 H   0  0  0  0  0  0  0  0  0  0  0  0
    3.9972   -3.7342    0.0664 H   0  0  0  0  0  0  0  0  0  0  0  0
  1  2  1  0
  1 21  1  0
  1 22  1  0
  1 23  1  0
  2 20  1  0
  2  3  1  0
  2 24  1  6
  3  4  1  0
  3 25  1  0
  3 26  1  0
  4  5  2  0
  4 27  1  0
  5 19  1  0
  5  6  1  0
  6  7  2  0
  6 20  1  0
  7  8  1  0
  7 28  1  0
  8  9  1  0
  8 29  1  0
  8 30  1  0
  9 19  1  0
  9 10  1  0
  9 31  1  1
 10 11  2  0
 10 32  1  0
 11 12  1  0
 11 33  1  0
 12 18  1  0
 12 13  1  1
 12 14  1  0
 13 34  1  0
 13 35  1  0
 13 36  1  0
 14 15  1  0
 14 16  1  0
 14 37  1  1
 15 38  1  0
 16 17  1  0
 16 39  1  0
 16 40  1  0
 17 18  1  0
 17 41  1  0
 17 42  1  0
 18 19  1  0
 18 43  1  6
 19 44  1  6
M  END
>  <i_m_ct_stereo_status>  (267) 
1

>  <s_m_source_file>  (267) 
/var/tmp/pbs.5076255.sched01/tmpnby3vxlc/96d7dj3887.sdf

>  <i_m_source_file_index>  (267) 
15

>  <i_lp_mmshare_version>  (267) 
48012

>  <i_f3d_flags>  (267) 
0

>  <s_epik_input>  (267) 
W0NIXTE9W0NIXVtDQEhdMltDSDJdW0NIXT1DKE9bQ0BIXShbQ0gzXSlbQ0gyXVtDSF09MylDM1tDQEBIXTJbQ0BASF0oW0NAQF0xNFtDSDNdKVtDSDJdW0NIMl1bQ0BASF00W09IXQ==

>  <s_epik_cmdline>  (267) 
J2VwaWtfcHl0aG9uJywgJy1waHQnLCAnMi4wJywgJy1waCcsICc3LjAnLCAnLXRuJywgJzgnLCAnLW1hJywgJzIwMCcsICctaW1hZScsICc8aW5maWxlLm1hZT4nLCAnLW9tYWUnLCAnPG91dGZpbGUubWFlPic=

>  <r_lp_tautomer_probability>  (267) 
1

>  <r_epik_Ionization_Penalty>  (267) 
4.96594e-07

>  <r_epik_Ionization_Penalty_Charging>  (267) 
0

>  <r_epik_Ionization_Penalty_Neutral>  (267) 
4.96594e-07

>  <r_epik_State_Penalty>  (267) 
-0

>  <r_epik_Charging_Adjusted_Penalty>  (267) 
0

>  <i_epik_Tot_Q>  (267) 
0

>  <i_epik_Tot_abs_Q>  (267) 
0

>  <s_lp_Force_Field>  (267) 
OPLS3e

>  <r_lp_Energy>  (267) 
20.8291

>  <b_lp_Chiralities_Consistent>  (267) 
1

>  <s_lp_Variant>  (267) 
60:0-1

>  <s_i_glide_gridfile>  (267) 
pfpi4k_grid

>  <i_i_glide_lignum>  (267) 
15

>  <i_i_glide_rotatable_bonds>  (267) 
1

>  <r_i_docking_score>  (267) 
-3.2707

>  <r_i_glide_ligand_efficiency>  (267) 
-0.163535

>  <r_i_glide_ligand_efficiency_sa>  (267) 
-0.443902

>  <r_i_glide_ligand_efficiency_ln>  (267) 
-0.818547

>  <r_i_glide_gscore>  (267) 
-3.2707

>  <r_i_glide_lipo>  (267) 
-0.826201

>  <r_i_glide_hbond>  (267) 
0

>  <r_i_glide_metal>  (267) 
-0

>  <r_i_glide_rewards>  (267) 
-1.59361

>  <r_i_glide_evdw>  (267) 
-11.8516

>  <r_i_glide_ecoul>  (267) 
-1.72206

>  <r_i_glide_erotb>  (267) 
0

>  <r_i_glide_esite>  (267) 
0

>  <r_i_glide_emodel>  (267) 
-12.6718

>  <r_i_glide_energy>  (267) 
-13.5736

>  <r_i_glide_einternal>  (267) 
0.317377

>  <r_i_glide_intrahb_reward>  (267) 
-0

>  <i_i_glide_confnum>  (267) 
2

>  <i_i_glide_posenum>  (267) 
36

>  <r_i_glide_eff_state_penalty>  (267) 
0

>  <ligand_id>  (267) 
60

>  <original_smiles>  (267) 
CC1CC=C2C(=CCC3C=CC4(C)C(O)CCC4C23)O1

>  <smiles>  (267) 
[H]OC1([H])C([H])([H])C([H])([H])C2([H])C3([H])C4=C([H])C([H])([H])C([H])(C([H])([H])[H])OC4=C([H])C([H])([H])C3([H])C([H])=C([H])C12C([H])([H])[H]

$$$$
60:0:2
     RDKit          3D

 44 47  0  0  1  0  0  0  0  0999 V2000
    3.7961   -1.0264   -4.6204 C   0  0  0  0  0  0  0  0  0  0  0  0
    3.5235   -1.7537   -3.3075 C   0  0  2  0  0  0  0  0  0  0  0  0
    3.4177   -0.7210   -2.2379 C   0  0  0  0  0  0  0  0  0  0  0  0
    3.4396   -1.3128   -0.8435 C   0  0  0  0  0  0  0  0  0  0  0  0
    4.0321   -2.4884   -0.5995 C   0  0  0  0  0  0  0  0  0  0  0  0
    4.6566   -3.1451   -1.7374 C   0  0  0  0  0  0  0  0  0  0  0  0
    5.3719   -4.2399   -1.5501 C   0  0  0  0  0  0  0  0  0  0  0  0
    5.6734   -4.8667   -0.2094 C   0  0  0  0  0  0  0  0  0  0  0  0
    5.4239   -3.9023    0.9497 C   0  0  2  0  0  0  0  0  0  0  0  0
    5.5379   -4.5958    2.2921 C   0  0  0  0  0  0  0  0  0  0  0  0
    4.7575   -4.2962    3.3403 C   0  0  0  0  0  0  0  0  0  0  0  0
    3.6634   -3.2211    3.3408 C   0  0  1  0  0  0  0  0  0  0  0  0
    2.3099   -3.9318    3.5352 C   0  0  0  0  0  0  0  0  0  0  0  0
    3.8733   -2.1569    4.4653 C   0  0  1  0  0  0  0  0  0  0  0  0
    4.8859   -2.4864    5.3963 O   0  0  0  0  0  0  0  0  0  0  0  0
    4.2083   -0.8220    3.7844 C   0  0  0  0  0  0  0  0  0  0  0  0
    4.5849   -1.1812    2.3505 C   0  0  0  0  0  0  0  0  0  0  0  0
    3.6763   -2.3789    2.0276 C   0  0  1  0  0  0  0  0  0  0  0  0
    4.0697   -3.1990    0.7702 C   0  0  1  0  0  0  0  0  0  0  0  0
    4.5347   -2.7012   -3.0413 O   0  0  0  0  0  0  0  0  0  0  0  0
    3.0553   -0.2629   -4.8432 H   0  0  0  0  0  0  0  0  0  0  0  0
    3.6999   -1.7546   -5.3904 H   0  0  0  0  0  0  0  0  0  0  0  0
    4.7891   -0.5960   -4.6527 H   0  0  0  0  0  0  0  0  0  0  0  0
    2.5712   -2.2903   -3.3744 H   0  0  0  0  0  0  0  0  0  0  0  0
    4.2004    0.0358   -2.3190 H   0  0  0  0  0  0  0  0  0  0  0  0
    2.4453   -0.2481   -2.4361 H   0  0  0  0  0  0  0  0  0  0  0  0
    2.9519   -0.7488   -0.0660 H   0  0  0  0  0  0  0  0  0  0  0  0
    5.7080   -4.6678   -2.4614 H   0  0  0  0  0  0  0  0  0  0  0  0
    5.0855   -5.7796   -0.1301 H   0  0  0  0  0  0  0  0  0  0  0  0
    6.7253   -5.1561   -0.1972 H   0  0  0  0  0  0  0  0  0  0  0  0
    6.2216   -3.1559    0.9284 H   0  0  0  0  0  0  0  0  0  0  0  0
    6.2947   -5.3627    2.3775 H   0  0  0  0  0  0  0  0  0  0  0  0
    4.8881   -4.8371    4.2719 H   0  0  0  0  0  0  0  0  0  0  0  0
    1.4783   -3.2239    3.5359 H   0  0  0  0  0  0  0  0  0  0  0  0
    2.2841   -4.4676    4.4834 H   0  0  0  0  0  0  0  0  0  0  0  0
    2.1289   -4.6598    2.7439 H   0  0  0  0  0  0  0  0  0  0  0  0
    2.9530   -2.0243    5.0372 H   0  0  0  0  0  0  0  0  0  0  0  0
    4.6267   -3.2717    5.8463 H   0  0  0  0  0  0  0  0  0  0  0  0
    3.3148   -0.1960    3.7704 H   0  0  0  0  0  0  0  0  0  0  0  0
    4.9856   -0.2594    4.2970 H   0  0  0  0  0  0  0  0  0  0  0  0
    4.4522   -0.3420    1.6721 H   0  0  0  0  0  0  0  0  0  0  0  0
    5.6372   -1.4679    2.3287 H   0  0  0  0  0  0  0  0  0  0  0  0
    2.6679   -1.9850    1.8744 H   0  0  0  0  0  0  0  0  0  0  0  0
    3.3189   -3.9887    0.6786 H   0  0  0  0  0  0  0  0  0  0  0  0
  1  2  1  0
  1 21  1  0
  1 22  1  0
  1 23  1  0
  2 20  1  0
  2  3  1  0
  2 24  1  6
  3  4  1  0
  3 25  1  0
  3 26  1  0
  4  5  2  0
  4 27  1  0
  5 19  1  0
  5  6  1  0
  6  7  2  0
  6 20  1  0
  7  8  1  0
  7 28  1  0
  8  9  1  0
  8 29  1  0
  8 30  1  0
  9 19  1  0
  9 10  1  0
  9 31  1  1
 10 11  2  0
 10 32  1  0
 11 12  1  0
 11 33  1  0
 12 18  1  0
 12 13  1  1
 12 14  1  0
 13 34  1  0
 13 35  1  0
 13 36  1  0
 14 15  1  0
 14 16  1  0
 14 37  1  1
 15 38  1  0
 16 17  1  0
 16 39  1  0
 16 40  1  0
 17 18  1  0
 17 41  1  0
 17 42  1  0
 18 19  1  0
 18 43  1  6
 19 44  1  6
M  END
>  <i_m_ct_stereo_status>  (268) 
1

>  <s_m_source_file>  (268) 
/var/tmp/pbs.5076255.sched01/tmpnby3vxlc/96d7dj3887.sdf

>  <i_m_source_file_index>  (268) 
15

>  <i_lp_mmshare_version>  (268) 
48012

>  <i_f3d_flags>  (268) 
0

>  <s_epik_input>  (268) 
W0NIXTE9W0NIXVtDQEhdMltDSDJdW0NIXT1DKE9bQ0BIXShbQ0gzXSlbQ0gyXVtDSF09MylDM1tDQEBIXTJbQ0BASF0oW0NAQF0xNFtDSDNdKVtDSDJdW0NIMl1bQ0BASF00W09IXQ==

>  <s_epik_cmdline>  (268) 
J2VwaWtfcHl0aG9uJywgJy1waHQnLCAnMi4wJywgJy1waCcsICc3LjAnLCAnLXRuJywgJzgnLCAnLW1hJywgJzIwMCcsICctaW1hZScsICc8aW5maWxlLm1hZT4nLCAnLW9tYWUnLCAnPG91dGZpbGUubWFlPic=

>  <r_lp_tautomer_probability>  (268) 
1

>  <r_epik_Ionization_Penalty>  (268) 
4.96594e-07

>  <r_epik_Ionization_Penalty_Charging>  (268) 
0

>  <r_epik_Ionization_Penalty_Neutral>  (268) 
4.96594e-07

>  <r_epik_State_Penalty>  (268) 
-0

>  <r_epik_Charging_Adjusted_Penalty>  (268) 
0

>  <i_epik_Tot_Q>  (268) 
0

>  <i_epik_Tot_abs_Q>  (268) 
0

>  <s_lp_Force_Field>  (268) 
OPLS3e

>  <r_lp_Energy>  (268) 
20.8291

>  <b_lp_Chiralities_Consistent>  (268) 
1

>  <s_lp_Variant>  (268) 
60:0-1

>  <s_i_glide_gridfile>  (268) 
pfpi4k_grid

>  <i_i_glide_lignum>  (268) 
15

>  <i_i_glide_rotatable_bonds>  (268) 
1

>  <r_i_docking_score>  (268) 
-2.43336

>  <r_i_glide_ligand_efficiency>  (268) 
-0.121668

>  <r_i_glide_ligand_efficiency_sa>  (268) 
-0.330257

>  <r_i_glide_ligand_efficiency_ln>  (268) 
-0.608989

>  <r_i_glide_gscore>  (268) 
-2.43336

>  <r_i_glide_lipo>  (268) 
-0.342797

>  <r_i_glide_hbond>  (268) 
0

>  <r_i_glide_metal>  (268) 
-0

>  <r_i_glide_rewards>  (268) 
-1.55194

>  <r_i_glide_evdw>  (268) 
-10.1929

>  <r_i_glide_ecoul>  (268) 
-0.193136

>  <r_i_glide_erotb>  (268) 
0

>  <r_i_glide_esite>  (268) 
0

>  <r_i_glide_emodel>  (268) 
-9.65228

>  <r_i_glide_energy>  (268) 
-10.3861

>  <r_i_glide_einternal>  (268) 
0.317219

>  <r_i_glide_intrahb_reward>  (268) 
-0

>  <i_i_glide_confnum>  (268) 
2

>  <i_i_glide_posenum>  (268) 
34

>  <r_i_glide_eff_state_penalty>  (268) 
0

>  <ligand_id>  (268) 
60

>  <original_smiles>  (268) 
CC1CC=C2C(=CCC3C=CC4(C)C(O)CCC4C23)O1

>  <smiles>  (268) 
[H]OC1([H])C([H])([H])C([H])([H])C2([H])C3([H])C4=C([H])C([H])([H])C([H])(C([H])([H])[H])OC4=C([H])C([H])([H])C3([H])C([H])=C([H])C12C([H])([H])[H]

$$$$
61:0:0
     RDKit          3D

 56 61  0  0  1  0  0  0  0  0999 V2000
    5.3703   -0.4063    0.8802 C   0  0  0  0  0  0  0  0  0  0  0  0
    4.7847   -1.8029    0.8648 C   0  0  0  0  0  0  0  0  0  0  0  0
    3.4967   -2.1354    0.9173 C   0  0  0  0  0  0  0  0  0  0  0  0
    3.2714   -3.6281    0.8830 C   0  0  2  0  0  0  0  0  0  0  0  0
    2.3790   -4.1334    2.0438 C   0  0  0  0  0  0  0  0  0  0  0  0
    2.8466   -3.9297    3.4820 C   0  0  0  0  0  0  0  0  0  0  0  0
    2.0138   -3.7417    4.3652 O   0  0  0  0  0  0  0  0  0  0  0  0
    4.3331   -3.9655    3.8295 C   0  0  0  0  0  0  0  0  0  0  0  0
    5.2640   -5.0289    3.1726 C   0  0  1  0  0  0  0  0  0  0  0  0
    5.5409   -6.4132    3.7785 C   0  0  1  0  0  0  0  0  0  0  0  0
    6.1534   -6.8886    5.1139 C   0  0  0  0  0  0  0  0  0  0  0  0
    6.2540   -5.9630    6.1919 C   0  0  0  0  0  0  0  0  0  0  0  0
    6.3284   -5.1927    7.0512 N   0  0  0  0  0  0  0  0  0  0  0  0
    5.9061   -8.1950    5.1774 C   0  0  0  0  0  0  0  0  0  0  0  0
    5.1646   -8.9113    4.4987 N   0  0  0  0  0  0  0  0  0  0  0  0
    4.1327   -8.4143    3.5282 C   0  0  1  0  0  0  0  0  0  0  0  0
    4.0181   -6.9543    3.8532 C   0  0  1  0  0  0  0  0  0  0  0  0
    3.3587   -6.7169    5.0980 O   0  0  0  0  0  0  0  0  0  0  0  0
    4.4682   -8.3250    1.9542 C   0  0  2  0  0  0  0  0  0  0  0  0
    3.4240   -9.2421    1.2811 C   0  0  0  0  0  0  0  0  0  0  0  0
    5.8448   -8.9469    1.6089 C   0  0  0  0  0  0  0  0  0  0  0  0
    7.0320   -8.2469    2.2799 C   0  0  0  0  0  0  0  0  0  0  0  0
    6.7263   -6.7952    2.7255 C   0  0  1  0  0  0  0  0  0  0  0  0
    6.4860   -5.9604    1.4980 C   0  0  0  0  0  0  0  0  0  0  0  0
    7.3076   -5.7094    0.6220 O   0  0  0  0  0  0  0  0  0  0  0  0
    5.0776   -5.4674    1.6252 C   0  0  1  0  0  0  0  0  0  0  0  0
    4.3008   -6.8592    1.2090 C   0  0  0  0  0  0  0  0  0  0  0  0
    4.7118   -4.2368    0.7024 C   0  0  1  0  0  0  0  0  0  0  0  0
    4.7647   -4.6391   -0.6605 O   0  0  0  0  0  0  0  0  0  0  0  0
    5.6813   -3.0085    0.7955 C   0  0  0  0  0  0  0  0  0  0  0  0
    5.9566   -0.2319   -0.0205 H   0  0  0  0  0  0  0  0  0  0  0  0
    6.0333   -0.2808    1.7357 H   0  0  0  0  0  0  0  0  0  0  0  0
    4.5978    0.3618    0.9340 H   0  0  0  0  0  0  0  0  0  0  0  0
    2.6767   -1.4349    0.9571 H   0  0  0  0  0  0  0  0  0  0  0  0
    2.6846   -3.8031   -0.0213 H   0  0  0  0  0  0  0  0  0  0  0  0
    1.4305   -3.6014    1.9845 H   0  0  0  0  0  0  0  0  0  0  0  0
    2.1133   -5.1768    1.9086 H   0  0  0  0  0  0  0  0  0  0  0  0
    4.7069   -2.9760    3.5653 H   0  0  0  0  0  0  0  0  0  0  0  0
    4.4313   -4.0235    4.9137 H   0  0  0  0  0  0  0  0  0  0  0  0
    6.2066   -4.4878    3.3146 H   0  0  0  0  0  0  0  0  0  0  0  0
    3.1799   -8.9186    3.7087 H   0  0  0  0  0  0  0  0  0  0  0  0
    3.2631   -6.4970    3.2311 H   0  0  0  0  0  0  0  0  0  0  0  0
    3.7951   -7.2056    5.7764 H   0  0  0  0  0  0  0  0  0  0  0  0
    3.5805   -9.3304    0.2022 H   0  0  0  0  0  0  0  0  0  0  0  0
    2.4064   -8.8828    1.4415 H   0  0  0  0  0  0  0  0  0  0  0  0
    3.4695  -10.2538    1.6849 H   0  0  0  0  0  0  0  0  0  0  0  0
    5.8685  -10.0055    1.8725 H   0  0  0  0  0  0  0  0  0  0  0  0
    5.9918   -8.9287    0.5275 H   0  0  0  0  0  0  0  0  0  0  0  0
    7.4088   -8.8413    3.1110 H   0  0  0  0  0  0  0  0  0  0  0  0
    7.8752   -8.2437    1.5844 H   0  0  0  0  0  0  0  0  0  0  0  0
    7.6572   -6.4071    3.1447 H   0  0  0  0  0  0  0  0  0  0  0  0
    4.5542   -7.0512    0.1638 H   0  0  0  0  0  0  0  0  0  0  0  0
    3.2385   -6.6503    1.1221 H   0  0  0  0  0  0  0  0  0  0  0  0
    4.0605   -5.2439   -0.8480 H   0  0  0  0  0  0  0  0  0  0  0  0
    6.3526   -2.9325   -0.0630 H   0  0  0  0  0  0  0  0  0  0  0  0
    6.3030   -3.0083    1.6883 H   0  0  0  0  0  0  0  0  0  0  0  0
  1  2  1  0
  1 31  1  0
  1 32  1  0
  1 33  1  0
  2 30  1  0
  2  3  2  0
  3  4  1  0
  3 34  1  0
  4 28  1  0
  4  5  1  0
  4 35  1  6
  5  6  1  0
  5 36  1  0
  5 37  1  0
  6  7  2  0
  6  8  1  0
  8  9  1  0
  8 38  1  0
  8 39  1  0
  9 26  1  0
  9 10  1  0
  9 40  1  6
 10 17  1  0
 10 23  1  0
 10 11  1  1
 11 12  1  0
 11 14  2  0
 12 13  3  0
 14 15  2  0
 15 16  1  0
 16 17  1  0
 16 19  1  0
 16 41  1  6
 17 18  1  0
 17 42  1  6
 18 43  1  0
 19 27  1  0
 19 20  1  6
 19 21  1  0
 20 44  1  0
 20 45  1  0
 20 46  1  0
 21 22  1  0
 21 47  1  0
 21 48  1  0
 22 23  1  0
 22 49  1  0
 22 50  1  0
 23 24  1  0
 23 51  1  1
 24 25  2  0
 24 26  1  0
 26 27  1  1
 26 28  1  0
 27 52  1  0
 27 53  1  0
 28 29  1  6
 28 30  1  0
 29 54  1  0
 30 55  1  0
 30 56  1  0
M  END
>  <i_m_ct_stereo_status>  (269) 
1

>  <s_m_source_file>  (269) 
/var/tmp/pbs.5076255.sched01/tmpnby3vxlc/96d7dj3887.sdf

>  <i_m_source_file_index>  (269) 
16

>  <i_lp_mmshare_version>  (269) 
48012

>  <i_f3d_flags>  (269) 
0

>  <s_epik_input>  (269) 
W0NIM11DKFtDSDJdMSk9W0NIXVtDQEhdKFtDSDJdQyg9TylbQ0gyXTIpW0NAXTEoW09IXSlbQ0BdMyhbQ0BASF0yW0NAQF00NTYpQyg9TylbQ0BASF02W0NIMl1bQ0gyXVtDQF0oW0NIM10pKFtDSDJdMylbQ0BIXShbQ0BIXTVbT0hdKU49Qz1DNEMjTg==

>  <s_epik_cmdline>  (269) 
J2VwaWtfcHl0aG9uJywgJy1waHQnLCAnMi4wJywgJy1waCcsICc3LjAnLCAnLXRuJywgJzgnLCAnLW1hJywgJzIwMCcsICctaW1hZScsICc8aW5maWxlLm1hZT4nLCAnLW9tYWUnLCAnPG91dGZpbGUubWFlPic=

>  <r_lp_tautomer_probability>  (269) 
1

>  <r_epik_Ionization_Penalty>  (269) 
7.94033e-08

>  <r_epik_Ionization_Penalty_Charging>  (269) 
0

>  <r_epik_Ionization_Penalty_Neutral>  (269) 
7.94033e-08

>  <r_epik_State_Penalty>  (269) 
-0

>  <r_epik_Charging_Adjusted_Penalty>  (269) 
0

>  <i_epik_Tot_Q>  (269) 
0

>  <i_epik_Tot_abs_Q>  (269) 
0

>  <s_epik_Chemistry_Notes>  (269) 
This compound has an imine and may undergo hydrolysis.

>  <s_lp_Force_Field>  (269) 
OPLS3e

>  <r_lp_Energy>  (269) 
126.171

>  <b_lp_Chiralities_Consistent>  (269) 
1

>  <s_lp_Variant>  (269) 
61:0-1

>  <s_i_glide_gridfile>  (269) 
pfpi4k_grid

>  <i_i_glide_lignum>  (269) 
16

>  <i_i_glide_rotatable_bonds>  (269) 
3

>  <r_i_docking_score>  (269) 
-2.92121

>  <r_i_glide_ligand_efficiency>  (269) 
-0.0973737

>  <r_i_glide_ligand_efficiency_sa>  (269) 
-0.302563

>  <r_i_glide_ligand_efficiency_ln>  (269) 
-0.663731

>  <r_i_glide_gscore>  (269) 
-2.92121

>  <r_i_glide_lipo>  (269) 
-0.562022

>  <r_i_glide_hbond>  (269) 
0

>  <r_i_glide_metal>  (269) 
-0

>  <r_i_glide_rewards>  (269) 
-0.755145

>  <r_i_glide_evdw>  (269) 
-24.6418

>  <r_i_glide_ecoul>  (269) 
-2.47969

>  <r_i_glide_erotb>  (269) 
0

>  <r_i_glide_esite>  (269) 
0

>  <r_i_glide_emodel>  (269) 
-32.2524

>  <r_i_glide_energy>  (269) 
-27.1215

>  <r_i_glide_einternal>  (269) 
-0.565169

>  <r_i_glide_intrahb_reward>  (269) 
-0

>  <i_i_glide_confnum>  (269) 
2

>  <i_i_glide_posenum>  (269) 
39

>  <r_i_glide_eff_state_penalty>  (269) 
0

>  <ligand_id>  (269) 
61

>  <original_smiles>  (269) 
CC1=CC2CC(=O)CC3C45C(C#N)=C=NC(C4O)C4(C)CCC5C(=O)C3(C4)C2(O)C1

>  <smiles>  (269) 
[H]OC1([H])C2([H])N=C=C(C#N)C13C1([H])C(=O)C4(C([H])([H])C2(C([H])([H])[H])C([H])([H])C1([H])[H])C3([H])C([H])([H])C(=O)C([H])([H])C1([H])C([H])=C(C([H])([H])[H])C([H])([H])C14O[H]

$$$$
61:0:1
     RDKit          3D

 56 61  0  0  1  0  0  0  0  0999 V2000
    5.0947   -0.5034    0.5199 C   0  0  0  0  0  0  0  0  0  0  0  0
    4.6529   -1.9502    0.5899 C   0  0  0  0  0  0  0  0  0  0  0  0
    3.4032   -2.4083    0.6163 C   0  0  0  0  0  0  0  0  0  0  0  0
    3.3275   -3.9144    0.6919 C   0  0  2  0  0  0  0  0  0  0  0  0
    2.4362   -4.4190    1.8526 C   0  0  0  0  0  0  0  0  0  0  0  0
    2.8105   -4.0542    3.2867 C   0  0  0  0  0  0  0  0  0  0  0  0
    1.9269   -3.9069    4.1267 O   0  0  0  0  0  0  0  0  0  0  0  0
    4.2729   -3.9107    3.6976 C   0  0  0  0  0  0  0  0  0  0  0  0
    5.3324   -4.9223    3.1685 C   0  0  1  0  0  0  0  0  0  0  0  0
    5.7134   -6.2197    3.8979 C   0  0  1  0  0  0  0  0  0  0  0  0
    6.3016   -6.5339    5.2934 C   0  0  0  0  0  0  0  0  0  0  0  0
    6.2503   -5.5377    6.3097 C   0  0  0  0  0  0  0  0  0  0  0  0
    6.2138   -4.7068    7.1138 N   0  0  0  0  0  0  0  0  0  0  0  0
    6.1830   -7.8495    5.4453 C   0  0  0  0  0  0  0  0  0  0  0  0
    5.5569   -8.6862    4.7904 N   0  0  0  0  0  0  0  0  0  0  0  0
    4.5253   -8.3635    3.7506 C   0  0  1  0  0  0  0  0  0  0  0  0
    4.2488   -6.9018    3.9533 C   0  0  1  0  0  0  0  0  0  0  0  0
    3.5266   -6.6491    5.1614 O   0  0  0  0  0  0  0  0  0  0  0  0
    4.9234   -8.3660    2.1903 C   0  0  2  0  0  0  0  0  0  0  0  0
    4.0090   -9.4374    1.5536 C   0  0  0  0  0  0  0  0  0  0  0  0
    6.3707   -8.8678    1.9531 C   0  0  0  0  0  0  0  0  0  0  0  0
    7.4492   -8.0017    2.6128 C   0  0  0  0  0  0  0  0  0  0  0  0
    6.9802   -6.5589    2.9259 C   0  0  1  0  0  0  0  0  0  0  0  0
    6.7215   -5.8516    1.6239 C   0  0  0  0  0  0  0  0  0  0  0  0
    7.5563   -5.5874    0.7636 O   0  0  0  0  0  0  0  0  0  0  0  0
    5.2661   -5.4962    1.6544 C   0  0  1  0  0  0  0  0  0  0  0  0
    4.6492   -6.9873    1.3221 C   0  0  0  0  0  0  0  0  0  0  0  0
    4.8282   -4.3829    0.6211 C   0  0  1  0  0  0  0  0  0  0  0  0
    4.9880   -4.8756   -0.7019 O   0  0  0  0  0  0  0  0  0  0  0  0
    5.6659   -3.0590    0.6562 C   0  0  0  0  0  0  0  0  0  0  0  0
    5.7002   -0.3305   -0.3690 H   0  0  0  0  0  0  0  0  0  0  0  0
    5.6997   -0.2465    1.3889 H   0  0  0  0  0  0  0  0  0  0  0  0
    4.2478    0.1837    0.4816 H   0  0  0  0  0  0  0  0  0  0  0  0
    2.5182   -1.7918    0.5676 H   0  0  0  0  0  0  0  0  0  0  0  0
    2.8031   -4.2187   -0.2169 H   0  0  0  0  0  0  0  0  0  0  0  0
    1.4439   -3.9998    1.7073 H   0  0  0  0  0  0  0  0  0  0  0  0
    2.2784   -5.4904    1.7934 H   0  0  0  0  0  0  0  0  0  0  0  0
    4.5589   -2.9108    3.3696 H   0  0  0  0  0  0  0  0  0  0  0  0
    4.3247   -3.8726    4.7861 H   0  0  0  0  0  0  0  0  0  0  0  0
    6.2082   -4.2772    3.3015 H   0  0  0  0  0  0  0  0  0  0  0  0
    3.6228   -8.9489    3.9397 H   0  0  0  0  0  0  0  0  0  0  0  0
    3.4801   -6.5765    3.2652 H   0  0  0  0  0  0  0  0  0  0  0  0
    3.3052   -5.7321    5.2066 H   0  0  0  0  0  0  0  0  0  0  0  0
    4.2130   -9.5793    0.4903 H   0  0  0  0  0  0  0  0  0  0  0  0
    2.9546   -9.1742    1.6476 H   0  0  0  0  0  0  0  0  0  0  0  0
    4.1359  -10.4072    2.0390 H   0  0  0  0  0  0  0  0  0  0  0  0
    6.4860   -9.8953    2.3017 H   0  0  0  0  0  0  0  0  0  0  0  0
    6.5698   -8.9129    0.8801 H   0  0  0  0  0  0  0  0  0  0  0  0
    7.8433   -8.4905    3.5023 H   0  0  0  0  0  0  0  0  0  0  0  0
    8.3201   -7.9682    1.9534 H   0  0  0  0  0  0  0  0  0  0  0  0
    7.8477   -6.0490    3.3491 H   0  0  0  0  0  0  0  0  0  0  0  0
    4.9685   -7.2315    0.3069 H   0  0  0  0  0  0  0  0  0  0  0  0
    3.5770   -6.8959    1.1760 H   0  0  0  0  0  0  0  0  0  0  0  0
    4.2652   -5.4472   -0.9209 H   0  0  0  0  0  0  0  0  0  0  0  0
    6.3668   -2.9800   -0.1774 H   0  0  0  0  0  0  0  0  0  0  0  0
    6.2382   -2.9263    1.5716 H   0  0  0  0  0  0  0  0  0  0  0  0
  1  2  1  0
  1 31  1  0
  1 32  1  0
  1 33  1  0
  2 30  1  0
  2  3  2  0
  3  4  1  0
  3 34  1  0
  4 28  1  0
  4  5  1  0
  4 35  1  6
  5  6  1  0
  5 36  1  0
  5 37  1  0
  6  7  2  0
  6  8  1  0
  8  9  1  0
  8 38  1  0
  8 39  1  0
  9 26  1  0
  9 10  1  0
  9 40  1  6
 10 17  1  0
 10 23  1  0
 10 11  1  1
 11 12  1  0
 11 14  2  0
 12 13  3  0
 14 15  2  0
 15 16  1  0
 16 17  1  0
 16 19  1  0
 16 41  1  6
 17 18  1  0
 17 42  1  6
 18 43  1  0
 19 27  1  0
 19 20  1  6
 19 21  1  0
 20 44  1  0
 20 45  1  0
 20 46  1  0
 21 22  1  0
 21 47  1  0
 21 48  1  0
 22 23  1  0
 22 49  1  0
 22 50  1  0
 23 24  1  0
 23 51  1  1
 24 25  2  0
 24 26  1  0
 26 27  1  1
 26 28  1  0
 27 52  1  0
 27 53  1  0
 28 29  1  6
 28 30  1  0
 29 54  1  0
 30 55  1  0
 30 56  1  0
M  END
>  <i_m_ct_stereo_status>  (270) 
1

>  <s_m_source_file>  (270) 
/var/tmp/pbs.5076255.sched01/tmpnby3vxlc/96d7dj3887.sdf

>  <i_m_source_file_index>  (270) 
16

>  <i_lp_mmshare_version>  (270) 
48012

>  <i_f3d_flags>  (270) 
0

>  <s_epik_input>  (270) 
W0NIM11DKFtDSDJdMSk9W0NIXVtDQEhdKFtDSDJdQyg9TylbQ0gyXTIpW0NAXTEoW09IXSlbQ0BdMyhbQ0BASF0yW0NAQF00NTYpQyg9TylbQ0BASF02W0NIMl1bQ0gyXVtDQF0oW0NIM10pKFtDSDJdMylbQ0BIXShbQ0BIXTVbT0hdKU49Qz1DNEMjTg==

>  <s_epik_cmdline>  (270) 
J2VwaWtfcHl0aG9uJywgJy1waHQnLCAnMi4wJywgJy1waCcsICc3LjAnLCAnLXRuJywgJzgnLCAnLW1hJywgJzIwMCcsICctaW1hZScsICc8aW5maWxlLm1hZT4nLCAnLW9tYWUnLCAnPG91dGZpbGUubWFlPic=

>  <r_lp_tautomer_probability>  (270) 
1

>  <r_epik_Ionization_Penalty>  (270) 
7.94033e-08

>  <r_epik_Ionization_Penalty_Charging>  (270) 
0

>  <r_epik_Ionization_Penalty_Neutral>  (270) 
7.94033e-08

>  <r_epik_State_Penalty>  (270) 
-0

>  <r_epik_Charging_Adjusted_Penalty>  (270) 
0

>  <i_epik_Tot_Q>  (270) 
0

>  <i_epik_Tot_abs_Q>  (270) 
0

>  <s_epik_Chemistry_Notes>  (270) 
This compound has an imine and may undergo hydrolysis.

>  <s_lp_Force_Field>  (270) 
OPLS3e

>  <r_lp_Energy>  (270) 
126.171

>  <b_lp_Chiralities_Consistent>  (270) 
1

>  <s_lp_Variant>  (270) 
61:0-1

>  <s_i_glide_gridfile>  (270) 
pfpi4k_grid

>  <i_i_glide_lignum>  (270) 
16

>  <i_i_glide_rotatable_bonds>  (270) 
3

>  <r_i_docking_score>  (270) 
-2.81989

>  <r_i_glide_ligand_efficiency>  (270) 
-0.0939962

>  <r_i_glide_ligand_efficiency_sa>  (270) 
-0.292068

>  <r_i_glide_ligand_efficiency_ln>  (270) 
-0.640709

>  <r_i_glide_gscore>  (270) 
-2.81989

>  <r_i_glide_lipo>  (270) 
-0.490342

>  <r_i_glide_hbond>  (270) 
0

>  <r_i_glide_metal>  (270) 
-0

>  <r_i_glide_rewards>  (270) 
-0.743809

>  <r_i_glide_evdw>  (270) 
-23.8478

>  <r_i_glide_ecoul>  (270) 
-2.62122

>  <r_i_glide_erotb>  (270) 
0

>  <r_i_glide_esite>  (270) 
-0.000161369

>  <r_i_glide_emodel>  (270) 
-31.1008

>  <r_i_glide_energy>  (270) 
-26.469

>  <r_i_glide_einternal>  (270) 
0.0165024

>  <r_i_glide_intrahb_reward>  (270) 
-0

>  <i_i_glide_confnum>  (270) 
1

>  <i_i_glide_posenum>  (270) 
9

>  <r_i_glide_eff_state_penalty>  (270) 
0

>  <ligand_id>  (270) 
61

>  <original_smiles>  (270) 
CC1=CC2CC(=O)CC3C45C(C#N)=C=NC(C4O)C4(C)CCC5C(=O)C3(C4)C2(O)C1

>  <smiles>  (270) 
[H]OC1([H])C2([H])N=C=C(C#N)C13C1([H])C(=O)C4(C([H])([H])C2(C([H])([H])[H])C([H])([H])C1([H])[H])C3([H])C([H])([H])C(=O)C([H])([H])C1([H])C([H])=C(C([H])([H])[H])C([H])([H])C14O[H]

$$$$
62:0:0
     RDKit          3D

 15 16  0  0  1  0  0  0  0  0999 V2000
    2.9199    0.1743   -5.1386 C   0  0  0  0  0  0  0  0  0  0  0  0
    3.2508   -0.6646   -3.9458 C   0  0  0  0  0  0  0  0  0  0  0  0
    2.7349   -1.8715   -3.5231 C   0  0  0  0  0  0  0  0  0  0  0  0
    3.3995   -2.1608   -2.3356 N   0  0  0  0  0  0  0  0  0  0  0  0
    3.3963   -3.1471   -1.3989 C   0  0  0  0  0  0  0  0  0  0  0  0
    4.3020   -2.9943   -0.3821 C   0  0  0  0  0  0  0  0  0  0  0  0
    5.1536   -1.4936   -0.6766 S   0  0  0  0  0  0  0  0  0  0  0  0
    4.2771   -1.1152   -2.1554 C   0  0  0  0  0  0  0  0  0  0  0  0
    4.2194   -0.2008   -3.0782 N   0  0  0  0  0  0  0  0  0  0  0  0
    2.1163   -0.2444   -5.7346 H   0  0  0  0  0  0  0  0  0  0  0  0
    3.8009    0.2969   -5.7686 H   0  0  0  0  0  0  0  0  0  0  0  0
    2.6110    1.1728   -4.8175 H   0  0  0  0  0  0  0  0  0  0  0  0
    1.9537   -2.5252   -3.9105 H   0  0  0  0  0  0  0  0  0  0  0  0
    2.7010   -3.9622   -1.5064 H   0  0  0  0  0  0  0  0  0  0  0  0
    4.5168   -3.6221    0.4760 H   0  0  0  0  0  0  0  0  0  0  0  0
  1  2  1  0
  1 10  1  0
  1 11  1  0
  1 12  1  0
  2  9  1  0
  2  3  2  0
  3  4  1  0
  3 13  1  0
  4  8  1  0
  4  5  1  0
  5  6  2  0
  5 14  1  0
  6  7  1  0
  6 15  1  0
  7  8  1  0
  8  9  2  0
M  END
>  <i_m_ct_stereo_status>  (271) 
1

>  <s_m_source_file>  (271) 
/var/tmp/pbs.5076255.sched01/tmpnby3vxlc/96d7dj3887.sdf

>  <i_m_source_file_index>  (271) 
17

>  <i_lp_mmshare_version>  (271) 
48012

>  <i_f3d_flags>  (271) 
0

>  <s_epik_input>  (271) 
W0NIM11jKFtjSF0xKW5jKG4xMilzW2NIXVtjSF0y

>  <s_epik_cmdline>  (271) 
J2VwaWtfcHl0aG9uJywgJy1waHQnLCAnMi4wJywgJy1waCcsICc3LjAnLCAnLXRuJywgJzgnLCAnLW1hJywgJzIwMCcsICctaW1hZScsICc8aW5maWxlLm1hZT4nLCAnLW9tYWUnLCAnPG91dGZpbGUubWFlPic=

>  <r_lp_tautomer_probability>  (271) 
1

>  <r_epik_Ionization_Penalty>  (271) 
0.000191694

>  <r_epik_Ionization_Penalty_Charging>  (271) 
0

>  <r_epik_Ionization_Penalty_Neutral>  (271) 
0.000191694

>  <r_epik_State_Penalty>  (271) 
-0

>  <r_epik_Charging_Adjusted_Penalty>  (271) 
0

>  <i_epik_Tot_Q>  (271) 
0

>  <i_epik_Tot_abs_Q>  (271) 
0

>  <s_lp_Force_Field>  (271) 
OPLS3e

>  <r_lp_Energy>  (271) 
1.71951

>  <b_lp_Chiralities_Consistent>  (271) 
1

>  <s_lp_Variant>  (271) 
62:0-1

>  <s_i_glide_gridfile>  (271) 
pfpi4k_grid

>  <i_i_glide_lignum>  (271) 
17

>  <i_i_glide_rotatable_bonds>  (271) 
0

>  <r_i_docking_score>  (271) 
-4.02703

>  <r_i_glide_ligand_efficiency>  (271) 
-0.447447

>  <r_i_glide_ligand_efficiency_sa>  (271) 
-0.930728

>  <r_i_glide_ligand_efficiency_ln>  (271) 
-1.25954

>  <r_i_glide_gscore>  (271) 
-4.02703

>  <r_i_glide_lipo>  (271) 
-0.519718

>  <r_i_glide_hbond>  (271) 
0

>  <r_i_glide_metal>  (271) 
-0

>  <r_i_glide_rewards>  (271) 
-2.25

>  <r_i_glide_evdw>  (271) 
-17.9397

>  <r_i_glide_ecoul>  (271) 
-1.93608

>  <r_i_glide_erotb>  (271) 
0

>  <r_i_glide_esite>  (271) 
-0.0699148

>  <r_i_glide_emodel>  (271) 
-24.7577

>  <r_i_glide_energy>  (271) 
-19.8757

>  <r_i_glide_einternal>  (271) 
0

>  <r_i_glide_intrahb_reward>  (271) 
-0

>  <i_i_glide_confnum>  (271) 
2

>  <i_i_glide_posenum>  (271) 
17

>  <r_i_glide_eff_state_penalty>  (271) 
0

>  <ligand_id>  (271) 
62

>  <original_smiles>  (271) 
Cc1cn2ccsc2n1

>  <smiles>  (271) 
[H]c1sc2nc(C([H])([H])[H])c([H])n2c1[H]

$$$$
62:0:1
     RDKit          3D

 15 16  0  0  1  0  0  0  0  0999 V2000
   -1.0046   -2.6550    6.3102 C   0  0  0  0  0  0  0  0  0  0  0  0
   -0.9758   -1.3566    5.5617 C   0  0  0  0  0  0  0  0  0  0  0  0
   -0.3653   -1.0538    4.3705 C   0  0  0  0  0  0  0  0  0  0  0  0
   -0.6475    0.2832    4.1248 N   0  0  0  0  0  0  0  0  0  0  0  0
   -0.3830    1.2081    3.1607 C   0  0  0  0  0  0  0  0  0  0  0  0
   -0.9012    2.4514    3.4021 C   0  0  0  0  0  0  0  0  0  0  0  0
   -1.7713    2.3861    4.9169 S   0  0  0  0  0  0  0  0  0  0  0  0
   -1.4083    0.6843    5.2058 C   0  0  0  0  0  0  0  0  0  0  0  0
   -1.6514   -0.2532    6.0794 N   0  0  0  0  0  0  0  0  0  0  0  0
   -0.4595   -3.4500    5.7953 H   0  0  0  0  0  0  0  0  0  0  0  0
   -2.0359   -2.9797    6.4537 H   0  0  0  0  0  0  0  0  0  0  0  0
   -0.5577   -2.5223    7.2980 H   0  0  0  0  0  0  0  0  0  0  0  0
    0.2253   -1.6407    3.6814 H   0  0  0  0  0  0  0  0  0  0  0  0
    0.2004    0.9291    2.2919 H   0  0  0  0  0  0  0  0  0  0  0  0
   -0.8292    3.3557    2.8127 H   0  0  0  0  0  0  0  0  0  0  0  0
  1  2  1  0
  1 10  1  0
  1 11  1  0
  1 12  1  0
  2  9  1  0
  2  3  2  0
  3  4  1  0
  3 13  1  0
  4  8  1  0
  4  5  1  0
  5  6  2  0
  5 14  1  0
  6  7  1  0
  6 15  1  0
  7  8  1  0
  8  9  2  0
M  END
>  <i_m_ct_stereo_status>  (272) 
1

>  <s_m_source_file>  (272) 
/var/tmp/pbs.5076255.sched01/tmpnby3vxlc/96d7dj3887.sdf

>  <i_m_source_file_index>  (272) 
17

>  <i_lp_mmshare_version>  (272) 
48012

>  <i_f3d_flags>  (272) 
0

>  <s_epik_input>  (272) 
W0NIM11jKFtjSF0xKW5jKG4xMilzW2NIXVtjSF0y

>  <s_epik_cmdline>  (272) 
J2VwaWtfcHl0aG9uJywgJy1waHQnLCAnMi4wJywgJy1waCcsICc3LjAnLCAnLXRuJywgJzgnLCAnLW1hJywgJzIwMCcsICctaW1hZScsICc8aW5maWxlLm1hZT4nLCAnLW9tYWUnLCAnPG91dGZpbGUubWFlPic=

>  <r_lp_tautomer_probability>  (272) 
1

>  <r_epik_Ionization_Penalty>  (272) 
0.000191694

>  <r_epik_Ionization_Penalty_Charging>  (272) 
0

>  <r_epik_Ionization_Penalty_Neutral>  (272) 
0.000191694

>  <r_epik_State_Penalty>  (272) 
-0

>  <r_epik_Charging_Adjusted_Penalty>  (272) 
0

>  <i_epik_Tot_Q>  (272) 
0

>  <i_epik_Tot_abs_Q>  (272) 
0

>  <s_lp_Force_Field>  (272) 
OPLS3e

>  <r_lp_Energy>  (272) 
1.71951

>  <b_lp_Chiralities_Consistent>  (272) 
1

>  <s_lp_Variant>  (272) 
62:0-1

>  <s_i_glide_gridfile>  (272) 
pfpi4k_grid

>  <i_i_glide_lignum>  (272) 
17

>  <i_i_glide_rotatable_bonds>  (272) 
0

>  <r_i_docking_score>  (272) 
-3.72727

>  <r_i_glide_ligand_efficiency>  (272) 
-0.414141

>  <r_i_glide_ligand_efficiency_sa>  (272) 
-0.861447

>  <r_i_glide_ligand_efficiency_ln>  (272) 
-1.16578

>  <r_i_glide_gscore>  (272) 
-3.72727

>  <r_i_glide_lipo>  (272) 
0

>  <r_i_glide_hbond>  (272) 
-0.139745

>  <r_i_glide_metal>  (272) 
-0

>  <r_i_glide_rewards>  (272) 
-2.25

>  <r_i_glide_evdw>  (272) 
-12.2589

>  <r_i_glide_ecoul>  (272) 
-4.46431

>  <r_i_glide_erotb>  (272) 
0

>  <r_i_glide_esite>  (272) 
-0.0549301

>  <r_i_glide_emodel>  (272) 
-21.2575

>  <r_i_glide_energy>  (272) 
-16.7232

>  <r_i_glide_einternal>  (272) 
0

>  <r_i_glide_intrahb_reward>  (272) 
-0

>  <i_i_glide_confnum>  (272) 
2

>  <i_i_glide_posenum>  (272) 
8

>  <r_i_glide_eff_state_penalty>  (272) 
0

>  <ligand_id>  (272) 
62

>  <original_smiles>  (272) 
Cc1cn2ccsc2n1

>  <smiles>  (272) 
[H]c1sc2nc(C([H])([H])[H])c([H])n2c1[H]

$$$$
62:0:2
     RDKit          3D

 15 16  0  0  1  0  0  0  0  0999 V2000
   -2.4005    2.6896    8.5402 C   0  0  0  0  0  0  0  0  0  0  0  0
   -1.9554    2.2590    7.1737 C   0  0  0  0  0  0  0  0  0  0  0  0
   -1.6235    3.0188    6.0783 C   0  0  0  0  0  0  0  0  0  0  0  0
   -1.2722    2.1062    5.0860 N   0  0  0  0  0  0  0  0  0  0  0  0
   -0.8501    2.1437    3.7882 C   0  0  0  0  0  0  0  0  0  0  0  0
   -0.6197    0.9151    3.2279 C   0  0  0  0  0  0  0  0  0  0  0  0
   -0.9613   -0.3006    4.4491 S   0  0  0  0  0  0  0  0  0  0  0  0
   -1.4181    0.8693    5.6760 C   0  0  0  0  0  0  0  0  0  0  0  0
   -1.8323    0.9009    6.9087 N   0  0  0  0  0  0  0  0  0  0  0  0
   -2.4648    3.7776    8.6370 H   0  0  0  0  0  0  0  0  0  0  0  0
   -1.7090    2.3195    9.3019 H   0  0  0  0  0  0  0  0  0  0  0  0
   -3.3821    2.2749    8.7690 H   0  0  0  0  0  0  0  0  0  0  0  0
   -1.5892    4.0826    5.9081 H   0  0  0  0  0  0  0  0  0  0  0  0
   -0.7195    3.0893    3.2823 H   0  0  0  0  0  0  0  0  0  0  0  0
   -0.2873    0.6645    2.2287 H   0  0  0  0  0  0  0  0  0  0  0  0
  1  2  1  0
  1 10  1  0
  1 11  1  0
  1 12  1  0
  2  9  1  0
  2  3  2  0
  3  4  1  0
  3 13  1  0
  4  8  1  0
  4  5  1  0
  5  6  2  0
  5 14  1  0
  6  7  1  0
  6 15  1  0
  7  8  1  0
  8  9  2  0
M  END
>  <i_m_ct_stereo_status>  (273) 
1

>  <s_m_source_file>  (273) 
/var/tmp/pbs.5076255.sched01/tmpnby3vxlc/96d7dj3887.sdf

>  <i_m_source_file_index>  (273) 
17

>  <i_lp_mmshare_version>  (273) 
48012

>  <i_f3d_flags>  (273) 
0

>  <s_epik_input>  (273) 
W0NIM11jKFtjSF0xKW5jKG4xMilzW2NIXVtjSF0y

>  <s_epik_cmdline>  (273) 
J2VwaWtfcHl0aG9uJywgJy1waHQnLCAnMi4wJywgJy1waCcsICc3LjAnLCAnLXRuJywgJzgnLCAnLW1hJywgJzIwMCcsICctaW1hZScsICc8aW5maWxlLm1hZT4nLCAnLW9tYWUnLCAnPG91dGZpbGUubWFlPic=

>  <r_lp_tautomer_probability>  (273) 
1

>  <r_epik_Ionization_Penalty>  (273) 
0.000191694

>  <r_epik_Ionization_Penalty_Charging>  (273) 
0

>  <r_epik_Ionization_Penalty_Neutral>  (273) 
0.000191694

>  <r_epik_State_Penalty>  (273) 
-0

>  <r_epik_Charging_Adjusted_Penalty>  (273) 
0

>  <i_epik_Tot_Q>  (273) 
0

>  <i_epik_Tot_abs_Q>  (273) 
0

>  <s_lp_Force_Field>  (273) 
OPLS3e

>  <r_lp_Energy>  (273) 
1.71951

>  <b_lp_Chiralities_Consistent>  (273) 
1

>  <s_lp_Variant>  (273) 
62:0-1

>  <s_i_glide_gridfile>  (273) 
pfpi4k_grid

>  <i_i_glide_lignum>  (273) 
17

>  <i_i_glide_rotatable_bonds>  (273) 
0

>  <r_i_docking_score>  (273) 
-3.63979

>  <r_i_glide_ligand_efficiency>  (273) 
-0.404421

>  <r_i_glide_ligand_efficiency_sa>  (273) 
-0.84123

>  <r_i_glide_ligand_efficiency_ln>  (273) 
-1.13842

>  <r_i_glide_gscore>  (273) 
-3.63979

>  <r_i_glide_lipo>  (273) 
-0.0377504

>  <r_i_glide_hbond>  (273) 
-0.16

>  <r_i_glide_metal>  (273) 
-0

>  <r_i_glide_rewards>  (273) 
-2.25

>  <r_i_glide_evdw>  (273) 
-12.1936

>  <r_i_glide_ecoul>  (273) 
-3.55604

>  <r_i_glide_erotb>  (273) 
0

>  <r_i_glide_esite>  (273) 
-0.0489576

>  <r_i_glide_emodel>  (273) 
-20.1727

>  <r_i_glide_energy>  (273) 
-15.7496

>  <r_i_glide_einternal>  (273) 
0

>  <r_i_glide_intrahb_reward>  (273) 
-0

>  <i_i_glide_confnum>  (273) 
2

>  <i_i_glide_posenum>  (273) 
9

>  <r_i_glide_eff_state_penalty>  (273) 
0

>  <ligand_id>  (273) 
62

>  <original_smiles>  (273) 
Cc1cn2ccsc2n1

>  <smiles>  (273) 
[H]c1sc2nc(C([H])([H])[H])c([H])n2c1[H]

$$$$
63:0:0
     RDKit          3D

 68 73  0  0  1  0  0  0  0  0999 V2000
    4.7733   -6.2345    5.4766 C   0  0  0  0  0  0  0  0  0  0  0  0
    3.8862   -5.5817    4.6919 C   0  0  0  0  0  0  0  0  0  0  0  0
    2.4181   -5.8742    4.8003 C   0  0  1  0  0  0  0  0  0  0  0  0
    1.8601   -5.1376    5.8856 O   0  0  0  0  0  0  0  0  0  0  0  0
    1.7418   -5.5743    3.4703 C   0  0  1  0  0  0  0  0  0  0  0  0
    0.3800   -5.8884    3.6404 O   0  0  0  0  0  0  0  0  0  0  0  0
    1.8303   -4.1808    3.2915 O   0  0  0  0  0  0  0  0  0  0  0  0
    3.0977   -3.5849    3.0093 C   0  0  2  0  0  0  0  0  0  0  0  0
    3.5612   -2.2617    3.6199 C   0  0  1  0  0  0  0  0  0  0  0  0
    3.6640   -2.0507    5.1509 C   0  0  0  0  0  0  0  0  0  0  0  0
    4.9014   -1.9906    2.7911 C   0  0  0  0  0  0  0  0  0  0  0  0
    4.8371   -2.4035    1.2263 C   0  0  2  0  0  0  0  0  0  0  0  0
    5.9944   -1.7956    0.6161 O   0  0  0  0  0  0  0  0  0  0  0  0
    6.0238   -0.3764    0.4301 C   0  0  0  0  0  0  0  0  0  0  0  0
    3.4940   -1.7333    0.9042 C   0  0  1  0  0  0  0  0  0  0  0  0
    3.0982   -0.2598    1.3234 C   0  0  0  0  0  0  0  0  0  0  0  0
    3.4052   -1.4539   -0.4924 O   0  0  0  0  0  0  0  0  0  0  0  0
    2.6910   -2.9833    1.4861 C   0  0  1  0  0  0  0  0  0  0  0  0
    2.9929   -3.9895    0.4302 C   0  0  1  0  0  0  0  0  0  0  0  0
    2.3747   -3.8542   -0.8519 O   0  0  0  0  0  0  0  0  0  0  0  0
    4.5356   -3.9620    0.5930 C   0  0  1  0  0  0  0  0  0  0  0  0
    5.1732   -4.0601   -0.8327 C   0  0  0  0  0  0  0  0  0  0  0  0
    4.8307   -5.3462    1.4222 C   0  0  1  0  0  0  0  0  0  0  0  0
    5.9359   -5.9973    0.7943 O   0  0  0  0  0  0  0  0  0  0  0  0
    5.4174   -5.0247    2.7369 C   0  0  0  0  0  0  0  0  0  0  0  0
    4.2886   -4.5491    3.6218 C   0  0  2  0  0  0  0  0  0  0  0  0
    3.7396   -6.5419    1.6299 C   0  0  1  0  0  0  0  0  0  0  0  0
    4.3327   -7.9140    2.0950 C   0  0  0  0  0  0  0  0  0  0  0  0
    3.1466   -8.7046    2.5592 C   0  0  0  0  0  0  0  0  0  0  0  0
    3.2879  -10.1700    2.9269 C   0  0  0  0  0  0  0  0  0  0  0  0
    2.0434   -7.9745    2.6195 C   0  0  0  0  0  0  0  0  0  0  0  0
    2.2377   -6.5112    2.2641 C   0  0  1  0  0  0  0  0  0  0  0  0
    5.8376   -6.0628    5.4177 H   0  0  0  0  0  0  0  0  0  0  0  0
    4.4301   -6.9610    6.1969 H   0  0  0  0  0  0  0  0  0  0  0  0
    2.3061   -6.9304    5.0587 H   0  0  0  0  0  0  0  0  0  0  0  0
    2.2834   -5.4066    6.6835 H   0  0  0  0  0  0  0  0  0  0  0  0
    0.3115   -6.6916    4.1167 H   0  0  0  0  0  0  0  0  0  0  0  0
    2.7375   -1.5919    3.4103 H   0  0  0  0  0  0  0  0  0  0  0  0
    4.5471   -2.4772    5.6159 H   0  0  0  0  0  0  0  0  0  0  0  0
    2.7811   -2.4357    5.6548 H   0  0  0  0  0  0  0  0  0  0  0  0
    3.7131   -0.9830    5.3557 H   0  0  0  0  0  0  0  0  0  0  0  0
    5.1209   -0.9294    2.8921 H   0  0  0  0  0  0  0  0  0  0  0  0
    5.7790   -2.4303    3.2566 H   0  0  0  0  0  0  0  0  0  0  0  0
    7.0084   -0.0505    0.0751 H   0  0  0  0  0  0  0  0  0  0  0  0
    5.7936    0.1326    1.3643 H   0  0  0  0  0  0  0  0  0  0  0  0
    5.2652   -0.0414   -0.2809 H   0  0  0  0  0  0  0  0  0  0  0  0
    3.2353    0.0497    2.3633 H   0  0  0  0  0  0  0  0  0  0  0  0
    2.0235   -0.0847    1.1474 H   0  0  0  0  0  0  0  0  0  0  0  0
    3.6927    0.4392    0.7331 H   0  0  0  0  0  0  0  0  0  0  0  0
    2.4839   -1.3417   -0.7197 H   0  0  0  0  0  0  0  0  0  0  0  0
    1.6372   -2.7212    1.4772 H   0  0  0  0  0  0  0  0  0  0  0  0
    2.4823   -4.8824    0.6403 H   0  0  0  0  0  0  0  0  0  0  0  0
    2.6833   -4.5460   -1.4224 H   0  0  0  0  0  0  0  0  0  0  0  0
    4.8566   -4.9622   -1.3611 H   0  0  0  0  0  0  0  0  0  0  0  0
    6.2608   -4.0684   -0.7830 H   0  0  0  0  0  0  0  0  0  0  0  0
    4.9093   -3.2207   -1.4692 H   0  0  0  0  0  0  0  0  0  0  0  0
    5.6678   -6.2305   -0.0757 H   0  0  0  0  0  0  0  0  0  0  0  0
    5.9269   -5.8835    3.1679 H   0  0  0  0  0  0  0  0  0  0  0  0
    6.2245   -4.3099    2.6068 H   0  0  0  0  0  0  0  0  0  0  0  0
    4.9013   -4.0106    4.3228 H   0  0  0  0  0  0  0  0  0  0  0  0
    3.5138   -6.7825    0.5872 H   0  0  0  0  0  0  0  0  0  0  0  0
    4.8443   -8.4407    1.2865 H   0  0  0  0  0  0  0  0  0  0  0  0
    5.0229   -7.8288    2.9319 H   0  0  0  0  0  0  0  0  0  0  0  0
    3.6569  -10.7252    2.0781 H   0  0  0  0  0  0  0  0  0  0  0  0
    2.3340  -10.5887    3.2309 H   0  0  0  0  0  0  0  0  0  0  0  0
    3.9939  -10.2754    3.7425 H   0  0  0  0  0  0  0  0  0  0  0  0
    1.0841   -8.3624    2.9323 H   0  0  0  0  0  0  0  0  0  0  0  0
    1.4996   -6.3961    1.4776 H   0  0  0  0  0  0  0  0  0  0  0  0
  1  2  2  0
  1 33  1  0
  1 34  1  0
  2 26  1  0
  2  3  1  0
  3  4  1  0
  3  5  1  0
  3 35  1  1
  4 36  1  0
  5 32  1  0
  5  6  1  1
  5  7  1  0
  6 37  1  0
  8  7  1  1
  8 18  1  0
  8 26  1  0
  8  9  1  0
  9 10  1  0
  9 11  1  0
  9 38  1  6
 10 39  1  0
 10 40  1  0
 10 41  1  0
 11 12  1  0
 11 42  1  0
 11 43  1  0
 12 21  1  0
 12 13  1  6
 12 15  1  0
 13 14  1  0
 14 44  1  0
 14 45  1  0
 14 46  1  0
 15 16  1  0
 15 17  1  6
 15 18  1  0
 16 47  1  0
 16 48  1  0
 16 49  1  0
 17 50  1  0
 18 19  1  0
 18 51  1  1
 19 20  1  0
 19 21  1  0
 19 52  1  1
 20 53  1  0
 21 22  1  6
 21 23  1  0
 22 54  1  0
 22 55  1  0
 22 56  1  0
 23 24  1  6
 23 25  1  0
 23 27  1  0
 24 57  1  0
 25 26  1  0
 25 58  1  0
 25 59  1  0
 26 60  1  1
 27 32  1  0
 27 28  1  0
 27 61  1  6
 28 29  1  0
 28 62  1  0
 28 63  1  0
 29 30  1  0
 29 31  2  0
 30 64  1  0
 30 65  1  0
 30 66  1  0
 31 32  1  0
 31 67  1  0
 32 68  1  6
M  END
>  <i_m_ct_stereo_status>  (274) 
1

>  <s_m_source_file>  (274) 
/var/tmp/pbs.5076255.sched01/tmpnby3vxlc/96d7dj3887.sdf

>  <i_m_source_file_index>  (274) 
18

>  <i_lp_mmshare_version>  (274) 
48012

>  <i_f3d_flags>  (274) 
0

>  <s_epik_input>  (274) 
W0NIMl0xW0NAQEhdMkMoPVtDSDJdKVtDQEBIXShbT0hdKVtDQF0oTzMpKFtPSF0pW0NASF0oW0NIXT1DKFtDSDJdNClbQ0gzXSlbQ0BIXTRbQ0BAXTEoW09IXSlbQ0BAXShbQ0gzXSkoW0NAQEhdNVtPSF0pW0NAQF0oT1tDSDNdKShbQ0BAXShbQ0gzXSkoW09IXSlbQ0BASF01W0NAXTIzNilbQ0gyXVtDQEBIXTZbQ0gzXQ==

>  <s_epik_cmdline>  (274) 
J2VwaWtfcHl0aG9uJywgJy1waHQnLCAnMi4wJywgJy1waCcsICc3LjAnLCAnLXRuJywgJzgnLCAnLW1hJywgJzIwMCcsICctaW1hZScsICc8aW5maWxlLm1hZT4nLCAnLW9tYWUnLCAnPG91dGZpbGUubWFlPic=

>  <r_lp_tautomer_probability>  (274) 
1

>  <r_epik_Ionization_Penalty>  (274) 
3.89224e-06

>  <r_epik_Ionization_Penalty_Charging>  (274) 
0

>  <r_epik_Ionization_Penalty_Neutral>  (274) 
3.89224e-06

>  <r_epik_State_Penalty>  (274) 
-0

>  <r_epik_Charging_Adjusted_Penalty>  (274) 
0

>  <i_epik_Tot_Q>  (274) 
0

>  <i_epik_Tot_abs_Q>  (274) 
0

>  <s_lp_Force_Field>  (274) 
OPLS3e

>  <r_lp_Energy>  (274) 
221.843

>  <b_lp_Chiralities_Consistent>  (274) 
1

>  <s_lp_Variant>  (274) 
63:0-1

>  <s_i_glide_gridfile>  (274) 
pfpi4k_grid

>  <i_i_glide_lignum>  (274) 
18

>  <i_i_glide_rotatable_bonds>  (274) 
6

>  <r_i_docking_score>  (274) 
-2.81103

>  <r_i_glide_ligand_efficiency>  (274) 
-0.0878448

>  <r_i_glide_ligand_efficiency_sa>  (274) 
-0.27889

>  <r_i_glide_ligand_efficiency_ln>  (274) 
-0.629467

>  <r_i_glide_gscore>  (274) 
-2.81103

>  <r_i_glide_lipo>  (274) 
-0.397636

>  <r_i_glide_hbond>  (274) 
0

>  <r_i_glide_metal>  (274) 
-0

>  <r_i_glide_rewards>  (274) 
-0.350801

>  <r_i_glide_evdw>  (274) 
-20.3479

>  <r_i_glide_ecoul>  (274) 
-6.91057

>  <r_i_glide_erotb>  (274) 
0

>  <r_i_glide_esite>  (274) 
-0.00861787

>  <r_i_glide_emodel>  (274) 
-25.7869

>  <r_i_glide_energy>  (274) 
-27.2584

>  <r_i_glide_einternal>  (274) 
12.4828

>  <r_i_glide_intrahb_reward>  (274) 
-0

>  <i_i_glide_confnum>  (274) 
1

>  <i_i_glide_posenum>  (274) 
12

>  <r_i_glide_eff_state_penalty>  (274) 
0

>  <ligand_id>  (274) 
63

>  <original_smiles>  (274) 
C=C1C(O)C2(O)OC34C(C)CC5(OC)C(C)(O)C3C(O)C5(C)C(O)(CC14)C1CC(C)=CC12

>  <smiles>  (274) 
[H]OC1([H])C(=C([H])[H])C2([H])C([H])([H])C3(O[H])C4([H])C([H])([H])C(C([H])([H])[H])=C([H])C4([H])C1(O[H])OC21C([H])(C([H])([H])[H])C([H])([H])C2(OC([H])([H])[H])C(O[H])(C([H])([H])[H])C1([H])C([H])(O[H])C32C([H])([H])[H]

$$$$
63:0:1
     RDKit          3D

 68 73  0  0  1  0  0  0  0  0999 V2000
    7.1620   -1.2910    0.5034 C   0  0  0  0  0  0  0  0  0  0  0  0
    6.4833   -2.4173    0.2705 C   0  0  0  0  0  0  0  0  0  0  0  0
    6.5725   -3.0700   -1.0506 C   0  0  1  0  0  0  0  0  0  0  0  0
    7.8444   -3.6908   -1.0830 O   0  0  0  0  0  0  0  0  0  0  0  0
    5.3420   -3.9923   -1.2242 C   0  0  1  0  0  0  0  0  0  0  0  0
    5.2930   -4.4838   -2.5165 O   0  0  0  0  0  0  0  0  0  0  0  0
    5.5269   -5.0464   -0.2904 O   0  0  0  0  0  0  0  0  0  0  0  0
    5.4052   -4.7564    1.1036 C   0  0  2  0  0  0  0  0  0  0  0  0
    6.3614   -5.3230    2.1689 C   0  0  1  0  0  0  0  0  0  0  0  0
    7.9247   -5.2086    2.0546 C   0  0  0  0  0  0  0  0  0  0  0  0
    5.6427   -4.7640    3.5044 C   0  0  0  0  0  0  0  0  0  0  0  0
    4.0218   -4.7510    3.4674 C   0  0  2  0  0  0  0  0  0  0  0  0
    3.5749   -4.6677    4.8260 O   0  0  0  0  0  0  0  0  0  0  0  0
    3.7996   -3.4294    5.4966 C   0  0  0  0  0  0  0  0  0  0  0  0
    3.8458   -6.1799    2.9413 C   0  0  1  0  0  0  0  0  0  0  0  0
    4.6158   -7.4094    3.5476 C   0  0  0  0  0  0  0  0  0  0  0  0
    2.5491   -6.6978    3.2300 O   0  0  0  0  0  0  0  0  0  0  0  0
    4.0806   -5.7057    1.4399 C   0  0  1  0  0  0  0  0  0  0  0  0
    2.8175   -4.9303    1.2350 C   0  0  1  0  0  0  0  0  0  0  0  0
    1.6118   -5.6655    1.0971 O   0  0  0  0  0  0  0  0  0  0  0  0
    3.0095   -3.9175    2.3959 C   0  0  1  0  0  0  0  0  0  0  0  0
    1.6405   -3.6950    3.1295 C   0  0  0  0  0  0  0  0  0  0  0  0
    3.4573   -2.5572    1.6374 C   0  0  1  0  0  0  0  0  0  0  0  0
    2.7216   -1.4681    2.1564 O   0  0  0  0  0  0  0  0  0  0  0  0
    4.8165   -2.2079    2.0597 C   0  0  0  0  0  0  0  0  0  0  0  0
    5.7438   -3.1622    1.3571 C   0  0  2  0  0  0  0  0  0  0  0  0
    3.3691   -2.3558    0.0259 C   0  0  1  0  0  0  0  0  0  0  0  0
    3.5334   -0.8885   -0.4967 C   0  0  0  0  0  0  0  0  0  0  0  0
    3.7741   -1.0244   -1.9973 C   0  0  0  0  0  0  0  0  0  0  0  0
    3.7439    0.0994   -2.9829 C   0  0  0  0  0  0  0  0  0  0  0  0
    3.9360   -2.2859   -2.3498 C   0  0  0  0  0  0  0  0  0  0  0  0
    3.9337   -3.2497   -1.1835 C   0  0  1  0  0  0  0  0  0  0  0  0
    7.1219   -0.7270    1.4466 H   0  0  0  0  0  0  0  0  0  0  0  0
    7.8342   -1.0095   -0.2794 H   0  0  0  0  0  0  0  0  0  0  0  0
    6.5859   -2.3634   -1.8921 H   0  0  0  0  0  0  0  0  0  0  0  0
    7.7928   -4.4926   -0.5795 H   0  0  0  0  0  0  0  0  0  0  0  0
    4.6265   -5.1738   -2.5232 H   0  0  0  0  0  0  0  0  0  0  0  0
    6.2670   -6.3959    2.0240 H   0  0  0  0  0  0  0  0  0  0  0  0
    8.3968   -4.2578    2.2724 H   0  0  0  0  0  0  0  0  0  0  0  0
    8.2513   -5.4593    1.0387 H   0  0  0  0  0  0  0  0  0  0  0  0
    8.3682   -5.9410    2.7476 H   0  0  0  0  0  0  0  0  0  0  0  0
    5.9713   -5.3711    4.3452 H   0  0  0  0  0  0  0  0  0  0  0  0
    6.0183   -3.8004    3.8397 H   0  0  0  0  0  0  0  0  0  0  0  0
    3.2453   -3.4354    6.4358 H   0  0  0  0  0  0  0  0  0  0  0  0
    3.4625   -2.5633    4.9302 H   0  0  0  0  0  0  0  0  0  0  0  0
    4.8503   -3.2691    5.7292 H   0  0  0  0  0  0  0  0  0  0  0  0
    5.6973   -7.3771    3.6493 H   0  0  0  0  0  0  0  0  0  0  0  0
    4.4117   -8.3037    2.9568 H   0  0  0  0  0  0  0  0  0  0  0  0
    4.2734   -7.6162    4.5639 H   0  0  0  0  0  0  0  0  0  0  0  0
    2.5363   -7.6183    2.9919 H   0  0  0  0  0  0  0  0  0  0  0  0
    4.1059   -6.5828    0.7921 H   0  0  0  0  0  0  0  0  0  0  0  0
    2.7730   -4.5883    0.2521 H   0  0  0  0  0  0  0  0  0  0  0  0
    1.6130   -6.2601    1.8501 H   0  0  0  0  0  0  0  0  0  0  0  0
    0.8861   -3.2546    2.4935 H   0  0  0  0  0  0  0  0  0  0  0  0
    1.6943   -2.9763    3.9455 H   0  0  0  0  0  0  0  0  0  0  0  0
    1.2312   -4.6207    3.5373 H   0  0  0  0  0  0  0  0  0  0  0  0
    1.9787   -1.3245    1.5821 H   0  0  0  0  0  0  0  0  0  0  0  0
    5.0393   -1.1675    1.8175 H   0  0  0  0  0  0  0  0  0  0  0  0
    4.9268   -2.2119    3.1359 H   0  0  0  0  0  0  0  0  0  0  0  0
    6.6113   -3.0871    2.0024 H   0  0  0  0  0  0  0  0  0  0  0  0
    2.2952   -2.5025   -0.1283 H   0  0  0  0  0  0  0  0  0  0  0  0
    2.6372   -0.3282   -0.2687 H   0  0  0  0  0  0  0  0  0  0  0  0
    4.3760   -0.3535   -0.0553 H   0  0  0  0  0  0  0  0  0  0  0  0
    2.7546    0.5430   -2.9476 H   0  0  0  0  0  0  0  0  0  0  0  0
    4.0193   -0.1673   -4.0021 H   0  0  0  0  0  0  0  0  0  0  0  0
    4.4894    0.8166   -2.6621 H   0  0  0  0  0  0  0  0  0  0  0  0
    4.0879   -2.5786   -3.3755 H   0  0  0  0  0  0  0  0  0  0  0  0
    3.1716   -3.9517   -1.5441 H   0  0  0  0  0  0  0  0  0  0  0  0
  1  2  2  0
  1 33  1  0
  1 34  1  0
  2 26  1  0
  2  3  1  0
  3  4  1  0
  3  5  1  0
  3 35  1  6
  4 36  1  0
  5 32  1  0
  5  6  1  6
  5  7  1  0
  6 37  1  0
  8  7  1  6
  8 18  1  0
  8 26  1  0
  8  9  1  0
  9 10  1  0
  9 11  1  0
  9 38  1  1
 10 39  1  0
 10 40  1  0
 10 41  1  0
 11 12  1  0
 11 42  1  0
 11 43  1  0
 12 21  1  0
 12 13  1  1
 12 15  1  0
 13 14  1  0
 14 44  1  0
 14 45  1  0
 14 46  1  0
 15 16  1  0
 15 17  1  6
 15 18  1  0
 16 47  1  0
 16 48  1  0
 16 49  1  0
 17 50  1  0
 18 19  1  0
 18 51  1  6
 19 20  1  0
 19 21  1  0
 19 52  1  6
 20 53  1  0
 21 22  1  1
 21 23  1  0
 22 54  1  0
 22 55  1  0
 22 56  1  0
 23 24  1  1
 23 25  1  0
 23 27  1  0
 24 57  1  0
 25 26  1  0
 25 58  1  0
 25 59  1  0
 26 60  1  1
 27 32  1  0
 27 28  1  0
 27 61  1  6
 28 29  1  0
 28 62  1  0
 28 63  1  0
 29 30  1  0
 29 31  2  0
 30 64  1  0
 30 65  1  0
 30 66  1  0
 31 32  1  0
 31 67  1  0
 32 68  1  6
M  END
>  <i_m_ct_stereo_status>  (275) 
1

>  <s_m_source_file>  (275) 
/var/tmp/pbs.5076255.sched01/tmpnby3vxlc/96d7dj3887.sdf

>  <i_m_source_file_index>  (275) 
18

>  <i_lp_mmshare_version>  (275) 
48012

>  <i_f3d_flags>  (275) 
0

>  <s_epik_input>  (275) 
W0NIMl0xW0NAQEhdMkMoPVtDSDJdKVtDQEBIXShbT0hdKVtDQF0oTzMpKFtPSF0pW0NASF0oW0NIXT1DKFtDSDJdNClbQ0gzXSlbQ0BIXTRbQ0BAXTEoW09IXSlbQ0BAXShbQ0gzXSkoW0NAQEhdNVtPSF0pW0NAQF0oT1tDSDNdKShbQ0BAXShbQ0gzXSkoW09IXSlbQ0BASF01W0NAXTIzNilbQ0gyXVtDQEBIXTZbQ0gzXQ==

>  <s_epik_cmdline>  (275) 
J2VwaWtfcHl0aG9uJywgJy1waHQnLCAnMi4wJywgJy1waCcsICc3LjAnLCAnLXRuJywgJzgnLCAnLW1hJywgJzIwMCcsICctaW1hZScsICc8aW5maWxlLm1hZT4nLCAnLW9tYWUnLCAnPG91dGZpbGUubWFlPic=

>  <r_lp_tautomer_probability>  (275) 
1

>  <r_epik_Ionization_Penalty>  (275) 
3.89224e-06

>  <r_epik_Ionization_Penalty_Charging>  (275) 
0

>  <r_epik_Ionization_Penalty_Neutral>  (275) 
3.89224e-06

>  <r_epik_State_Penalty>  (275) 
-0

>  <r_epik_Charging_Adjusted_Penalty>  (275) 
0

>  <i_epik_Tot_Q>  (275) 
0

>  <i_epik_Tot_abs_Q>  (275) 
0

>  <s_lp_Force_Field>  (275) 
OPLS3e

>  <r_lp_Energy>  (275) 
221.843

>  <b_lp_Chiralities_Consistent>  (275) 
1

>  <s_lp_Variant>  (275) 
63:0-1

>  <s_i_glide_gridfile>  (275) 
pfpi4k_grid

>  <i_i_glide_lignum>  (275) 
18

>  <i_i_glide_rotatable_bonds>  (275) 
6

>  <r_i_docking_score>  (275) 
-2.14182

>  <r_i_glide_ligand_efficiency>  (275) 
-0.066932

>  <r_i_glide_ligand_efficiency_sa>  (275) 
-0.212496

>  <r_i_glide_ligand_efficiency_ln>  (275) 
-0.479613

>  <r_i_glide_gscore>  (275) 
-2.14182

>  <r_i_glide_lipo>  (275) 
-0.487584

>  <r_i_glide_hbond>  (275) 
0

>  <r_i_glide_metal>  (275) 
-0

>  <r_i_glide_rewards>  (275) 
-0.86373

>  <r_i_glide_evdw>  (275) 
3.78379

>  <r_i_glide_ecoul>  (275) 
-6.58169

>  <r_i_glide_erotb>  (275) 
0

>  <r_i_glide_esite>  (275) 
0

>  <r_i_glide_emodel>  (275) 
-7.91405

>  <r_i_glide_energy>  (275) 
-2.7979

>  <r_i_glide_einternal>  (275) 
0.887663

>  <r_i_glide_intrahb_reward>  (275) 
-0.5

>  <i_i_glide_confnum>  (275) 
1

>  <i_i_glide_posenum>  (275) 
10

>  <r_i_glide_eff_state_penalty>  (275) 
0

>  <ligand_id>  (275) 
63

>  <original_smiles>  (275) 
C=C1C(O)C2(O)OC34C(C)CC5(OC)C(C)(O)C3C(O)C5(C)C(O)(CC14)C1CC(C)=CC12

>  <smiles>  (275) 
[H]OC1([H])C(=C([H])[H])C2([H])C([H])([H])C3(O[H])C4([H])C([H])([H])C(C([H])([H])[H])=C([H])C4([H])C1(O[H])OC21C([H])(C([H])([H])[H])C([H])([H])C2(OC([H])([H])[H])C(O[H])(C([H])([H])[H])C1([H])C([H])(O[H])C32C([H])([H])[H]

$$$$
63:0:2
     RDKit          3D

 68 73  0  0  1  0  0  0  0  0999 V2000
    4.4397   -1.5894    5.8570 C   0  0  0  0  0  0  0  0  0  0  0  0
    3.6681   -1.8636    4.7879 C   0  0  0  0  0  0  0  0  0  0  0  0
    2.1889   -1.9506    4.9464 C   0  0  1  0  0  0  0  0  0  0  0  0
    1.5923   -0.6743    4.8539 O   0  0  0  0  0  0  0  0  0  0  0  0
    1.6068   -2.8806    3.8899 C   0  0  1  0  0  0  0  0  0  0  0  0
    0.2173   -2.8877    4.0947 O   0  0  0  0  0  0  0  0  0  0  0  0
    1.8490   -2.2331    2.6471 O   0  0  0  0  0  0  0  0  0  0  0  0
    3.1570   -2.1348    2.1136 C   0  0  2  0  0  0  0  0  0  0  0  0
    3.6730   -0.8862    1.4179 C   0  0  1  0  0  0  0  0  0  0  0  0
    3.6844    0.4850    2.1274 C   0  0  0  0  0  0  0  0  0  0  0  0
    5.0928   -1.4196    0.9030 C   0  0  0  0  0  0  0  0  0  0  0  0
    5.1021   -2.9485    0.3781 C   0  0  2  0  0  0  0  0  0  0  0  0
    6.2661   -3.1023   -0.4418 O   0  0  0  0  0  0  0  0  0  0  0  0
    7.5194   -3.0720    0.2252 C   0  0  0  0  0  0  0  0  0  0  0  0
    3.8654   -2.8232   -0.5059 C   0  0  1  0  0  0  0  0  0  0  0  0
    3.6261   -1.6621   -1.5321 C   0  0  0  0  0  0  0  0  0  0  0  0
    3.8780   -3.8434   -1.4814 O   0  0  0  0  0  0  0  0  0  0  0  0
    2.9014   -3.0442    0.7364 C   0  0  1  0  0  0  0  0  0  0  0  0
    3.1803   -4.4844    1.0164 C   0  0  1  0  0  0  0  0  0  0  0  0
    2.6653   -5.4475    0.1043 O   0  0  0  0  0  0  0  0  0  0  0  0
    4.7041   -4.3484    1.2476 C   0  0  1  0  0  0  0  0  0  0  0  0
    5.3982   -5.5865    0.5790 C   0  0  0  0  0  0  0  0  0  0  0  0
    4.8379   -4.4300    2.8606 C   0  0  1  0  0  0  0  0  0  0  0  0
    5.8935   -5.3268    3.1591 O   0  0  0  0  0  0  0  0  0  0  0  0
    5.3481   -3.1546    3.3962 C   0  0  0  0  0  0  0  0  0  0  0  0
    4.2066   -2.1674    3.3840 C   0  0  2  0  0  0  0  0  0  0  0  0
    3.6478   -4.9426    3.8456 C   0  0  1  0  0  0  0  0  0  0  0  0
    4.0956   -5.3338    5.2874 C   0  0  0  0  0  0  0  0  0  0  0  0
    2.8210   -5.4123    6.0730 C   0  0  0  0  0  0  0  0  0  0  0  0
    2.8134   -5.9344    7.4877 C   0  0  0  0  0  0  0  0  0  0  0  0
    1.7705   -4.9308    5.4009 C   0  0  0  0  0  0  0  0  0  0  0  0
    2.1066   -4.4107    4.0215 C   0  0  1  0  0  0  0  0  0  0  0  0
    5.5146   -1.5334    5.7991 H   0  0  0  0  0  0  0  0  0  0  0  0
    3.9882   -1.4095    6.8210 H   0  0  0  0  0  0  0  0  0  0  0  0
    1.9576   -2.3445    5.9401 H   0  0  0  0  0  0  0  0  0  0  0  0
    1.8265   -0.3194    4.0053 H   0  0  0  0  0  0  0  0  0  0  0  0
   -0.0417   -1.9695    4.1004 H   0  0  0  0  0  0  0  0  0  0  0  0
    2.9353   -0.6777    0.6499 H   0  0  0  0  0  0  0  0  0  0  0  0
    4.4879    0.6278    2.8495 H   0  0  0  0  0  0  0  0  0  0  0  0
    2.7382    0.6868    2.6295 H   0  0  0  0  0  0  0  0  0  0  0  0
    3.8091    1.2646    1.3750 H   0  0  0  0  0  0  0  0  0  0  0  0
    5.4042   -0.7758    0.0862 H   0  0  0  0  0  0  0  0  0  0  0  0
    5.8989   -1.2005    1.6006 H   0  0  0  0  0  0  0  0  0  0  0  0
    8.2988   -3.3908   -0.4696 H   0  0  0  0  0  0  0  0  0  0  0  0
    7.5559   -3.7394    1.0829 H   0  0  0  0  0  0  0  0  0  0  0  0
    7.7714   -2.0725    0.5742 H   0  0  0  0  0  0  0  0  0  0  0  0
    3.7046   -0.6374   -1.1965 H   0  0  0  0  0  0  0  0  0  0  0  0
    2.6324   -1.7464   -1.9753 H   0  0  0  0  0  0  0  0  0  0  0  0
    4.3412   -1.7191   -2.3512 H   0  0  0  0  0  0  0  0  0  0  0  0
    3.0283   -3.8764   -1.9165 H   0  0  0  0  0  0  0  0  0  0  0  0
    1.8681   -2.9183    0.4082 H   0  0  0  0  0  0  0  0  0  0  0  0
    2.5749   -4.8301    1.7997 H   0  0  0  0  0  0  0  0  0  0  0  0
    3.1121   -5.3324   -0.7373 H   0  0  0  0  0  0  0  0  0  0  0  0
    5.0179   -6.5250    0.9797 H   0  0  0  0  0  0  0  0  0  0  0  0
    6.4773   -5.6079    0.7144 H   0  0  0  0  0  0  0  0  0  0  0  0
    5.2555   -5.6205   -0.4984 H   0  0  0  0  0  0  0  0  0  0  0  0
    6.6639   -5.0515    2.6827 H   0  0  0  0  0  0  0  0  0  0  0  0
    5.7605   -3.2834    4.3936 H   0  0  0  0  0  0  0  0  0  0  0  0
    6.2115   -2.8293    2.8165 H   0  0  0  0  0  0  0  0  0  0  0  0
    4.8212   -1.2826    3.3982 H   0  0  0  0  0  0  0  0  0  0  0  0
    3.4648   -5.9356    3.4326 H   0  0  0  0  0  0  0  0  0  0  0  0
    4.6098   -6.2961    5.3209 H   0  0  0  0  0  0  0  0  0  0  0  0
    4.7226   -4.5860    5.7687 H   0  0  0  0  0  0  0  0  0  0  0  0
    3.1935   -6.9573    7.5165 H   0  0  0  0  0  0  0  0  0  0  0  0
    1.8096   -5.9274    7.9187 H   0  0  0  0  0  0  0  0  0  0  0  0
    3.4581   -5.3186    8.1191 H   0  0  0  0  0  0  0  0  0  0  0  0
    0.7683   -4.9049    5.7933 H   0  0  0  0  0  0  0  0  0  0  0  0
    1.4232   -5.0004    3.4057 H   0  0  0  0  0  0  0  0  0  0  0  0
  1  2  2  0
  1 33  1  0
  1 34  1  0
  2 26  1  0
  2  3  1  0
  3  4  1  0
  3  5  1  0
  3 35  1  1
  4 36  1  0
  5 32  1  0
  5  6  1  1
  5  7  1  0
  6 37  1  0
  8  7  1  1
  8 18  1  0
  8 26  1  0
  8  9  1  0
  9 10  1  0
  9 11  1  0
  9 38  1  6
 10 39  1  0
 10 40  1  0
 10 41  1  0
 11 12  1  0
 11 42  1  0
 11 43  1  0
 12 21  1  0
 12 13  1  6
 12 15  1  0
 13 14  1  0
 14 44  1  0
 14 45  1  0
 14 46  1  0
 15 16  1  0
 15 17  1  6
 15 18  1  0
 16 47  1  0
 16 48  1  0
 16 49  1  0
 17 50  1  0
 18 19  1  0
 18 51  1  6
 19 20  1  0
 19 21  1  0
 19 52  1  1
 20 53  1  0
 21 22  1  6
 21 23  1  0
 22 54  1  0
 22 55  1  0
 22 56  1  0
 23 24  1  6
 23 25  1  0
 23 27  1  0
 24 57  1  0
 25 26  1  0
 25 58  1  0
 25 59  1  0
 26 60  1  6
 27 32  1  0
 27 28  1  0
 27 61  1  6
 28 29  1  0
 28 62  1  0
 28 63  1  0
 29 30  1  0
 29 31  2  0
 30 64  1  0
 30 65  1  0
 30 66  1  0
 31 32  1  0
 31 67  1  0
 32 68  1  6
M  END
>  <i_m_ct_stereo_status>  (276) 
1

>  <s_m_source_file>  (276) 
/var/tmp/pbs.5076255.sched01/tmpnby3vxlc/96d7dj3887.sdf

>  <i_m_source_file_index>  (276) 
18

>  <i_lp_mmshare_version>  (276) 
48012

>  <i_f3d_flags>  (276) 
0

>  <s_epik_input>  (276) 
W0NIMl0xW0NAQEhdMkMoPVtDSDJdKVtDQEBIXShbT0hdKVtDQF0oTzMpKFtPSF0pW0NASF0oW0NIXT1DKFtDSDJdNClbQ0gzXSlbQ0BIXTRbQ0BAXTEoW09IXSlbQ0BAXShbQ0gzXSkoW0NAQEhdNVtPSF0pW0NAQF0oT1tDSDNdKShbQ0BAXShbQ0gzXSkoW09IXSlbQ0BASF01W0NAXTIzNilbQ0gyXVtDQEBIXTZbQ0gzXQ==

>  <s_epik_cmdline>  (276) 
J2VwaWtfcHl0aG9uJywgJy1waHQnLCAnMi4wJywgJy1waCcsICc3LjAnLCAnLXRuJywgJzgnLCAnLW1hJywgJzIwMCcsICctaW1hZScsICc8aW5maWxlLm1hZT4nLCAnLW9tYWUnLCAnPG91dGZpbGUubWFlPic=

>  <r_lp_tautomer_probability>  (276) 
1

>  <r_epik_Ionization_Penalty>  (276) 
3.89224e-06

>  <r_epik_Ionization_Penalty_Charging>  (276) 
0

>  <r_epik_Ionization_Penalty_Neutral>  (276) 
3.89224e-06

>  <r_epik_State_Penalty>  (276) 
-0

>  <r_epik_Charging_Adjusted_Penalty>  (276) 
0

>  <i_epik_Tot_Q>  (276) 
0

>  <i_epik_Tot_abs_Q>  (276) 
0

>  <s_lp_Force_Field>  (276) 
OPLS3e

>  <r_lp_Energy>  (276) 
221.843

>  <b_lp_Chiralities_Consistent>  (276) 
1

>  <s_lp_Variant>  (276) 
63:0-1

>  <s_i_glide_gridfile>  (276) 
pfpi4k_grid

>  <i_i_glide_lignum>  (276) 
18

>  <i_i_glide_rotatable_bonds>  (276) 
6

>  <r_i_docking_score>  (276) 
-2.11143

>  <r_i_glide_ligand_efficiency>  (276) 
-0.0659822

>  <r_i_glide_ligand_efficiency_sa>  (276) 
-0.20948

>  <r_i_glide_ligand_efficiency_ln>  (276) 
-0.472807

>  <r_i_glide_gscore>  (276) 
-2.11143

>  <r_i_glide_lipo>  (276) 
-0.492105

>  <r_i_glide_hbond>  (276) 
0

>  <r_i_glide_metal>  (276) 
-0

>  <r_i_glide_rewards>  (276) 
-0.378311

>  <r_i_glide_evdw>  (276) 
-18.0061

>  <r_i_glide_ecoul>  (276) 
-2.27138

>  <r_i_glide_erotb>  (276) 
0

>  <r_i_glide_esite>  (276) 
0

>  <r_i_glide_emodel>  (276) 
-24.3404

>  <r_i_glide_energy>  (276) 
-20.2775

>  <r_i_glide_einternal>  (276) 
0.330852

>  <r_i_glide_intrahb_reward>  (276) 
-0

>  <i_i_glide_confnum>  (276) 
1

>  <i_i_glide_posenum>  (276) 
28

>  <r_i_glide_eff_state_penalty>  (276) 
0

>  <ligand_id>  (276) 
63

>  <original_smiles>  (276) 
C=C1C(O)C2(O)OC34C(C)CC5(OC)C(C)(O)C3C(O)C5(C)C(O)(CC14)C1CC(C)=CC12

>  <smiles>  (276) 
[H]OC1([H])C(=C([H])[H])C2([H])C([H])([H])C3(O[H])C4([H])C([H])([H])C(C([H])([H])[H])=C([H])C4([H])C1(O[H])OC21C([H])(C([H])([H])[H])C([H])([H])C2(OC([H])([H])[H])C(O[H])(C([H])([H])[H])C1([H])C([H])(O[H])C32C([H])([H])[H]

$$$$
65:0:0
     RDKit          3D

 15 16  0  0  1  0  0  0  0  0999 V2000
    0.9461  -11.7645    3.9364 C   0  0  0  0  0  0  0  0  0  0  0  0
    0.2162  -10.5395    3.6992 N   0  0  0  0  0  0  0  0  0  0  0  0
    0.7999   -9.4805    3.0080 C   0  0  0  0  0  0  0  0  0  0  0  0
    0.0688   -8.3683    2.7268 N   0  0  0  0  0  0  0  0  0  0  0  0
    0.8572   -7.5322    2.0950 C   0  0  0  0  0  0  0  0  0  0  0  0
    0.6094   -6.3461    1.6303 N   0  0  0  0  0  0  0  0  0  0  0  0
    1.8660   -6.0315    1.1326 C   0  0  0  0  0  0  0  0  0  0  0  0
    2.8277   -6.9578    1.2789 N   0  0  0  0  0  0  0  0  0  0  0  0
    2.1228   -7.9184    1.8991 N   0  0  0  0  0  0  0  0  0  0  0  0
    2.5025   -9.4415    2.4638 S   0  0  0  0  0  0  0  0  0  0  0  0
    0.3091  -12.4679    4.4661 H   0  0  0  0  0  0  0  0  0  0  0  0
    1.8185  -11.5836    4.5571 H   0  0  0  0  0  0  0  0  0  0  0  0
    1.2523  -12.2289    3.0025 H   0  0  0  0  0  0  0  0  0  0  0  0
    2.1000   -5.0977    0.6405 H   0  0  0  0  0  0  0  0  0  0  0  0
   -0.7500  -10.4842    4.0371 H   0  0  0  0  0  0  0  0  0  0  0  0
  1  2  1  0
  1 11  1  0
  1 12  1  0
  1 13  1  0
  2  3  1  0
  2 15  1  0
  3 10  1  0
  3  4  2  0
  4  5  1  0
  5  9  1  0
  5  6  2  0
  6  7  1  0
  7  8  2  0
  7 14  1  0
  8  9  1  0
  9 10  1  0
M  END
>  <i_m_ct_stereo_status>  (277) 
1

>  <s_m_source_file>  (277) 
/var/tmp/pbs.5076255.sched01/tmpnby3vxlc/96d7dj3887.sdf

>  <i_m_source_file_index>  (277) 
20

>  <i_lp_mmshare_version>  (277) 
48012

>  <i_f3d_flags>  (277) 
0

>  <s_epik_input>  (277) 
W0NIM10vTj1jKC9uMSlzbihjMTIpbltjSF1bbkhdMg==

>  <s_epik_cmdline>  (277) 
J2VwaWtfcHl0aG9uJywgJy1waHQnLCAnMi4wJywgJy1waCcsICc3LjAnLCAnLXRuJywgJzgnLCAnLW1hJywgJzIwMCcsICctaW1hZScsICc8aW5maWxlLm1hZT4nLCAnLW9tYWUnLCAnPG91dGZpbGUubWFlPic=

>  <r_lp_tautomer_probability>  (277) 
1

>  <r_epik_Ionization_Penalty>  (277) 
5.40685e-08

>  <r_epik_Ionization_Penalty_Charging>  (277) 
0

>  <r_epik_Ionization_Penalty_Neutral>  (277) 
5.40685e-08

>  <r_epik_State_Penalty>  (277) 
-0

>  <r_epik_Charging_Adjusted_Penalty>  (277) 
0

>  <i_epik_Tot_Q>  (277) 
0

>  <i_epik_Tot_abs_Q>  (277) 
0

>  <s_lp_Force_Field>  (277) 
OPLS3e

>  <r_lp_Energy>  (277) 
6.61543

>  <b_lp_Chiralities_Consistent>  (277) 
1

>  <s_lp_Variant>  (277) 
65:0-1

>  <s_i_glide_gridfile>  (277) 
pfpi4k_grid

>  <i_i_glide_lignum>  (277) 
20

>  <i_i_glide_rotatable_bonds>  (277) 
1

>  <r_i_docking_score>  (277) 
-4.28635

>  <r_i_glide_ligand_efficiency>  (277) 
-0.428635

>  <r_i_glide_ligand_efficiency_sa>  (277) 
-0.923466

>  <r_i_glide_ligand_efficiency_ln>  (277) 
-1.29788

>  <r_i_glide_gscore>  (277) 
-4.28635

>  <r_i_glide_lipo>  (277) 
-0.0298941

>  <r_i_glide_hbond>  (277) 
-0.317927

>  <r_i_glide_metal>  (277) 
-0

>  <r_i_glide_rewards>  (277) 
-2.25

>  <r_i_glide_evdw>  (277) 
-15.4275

>  <r_i_glide_ecoul>  (277) 
-5.0422

>  <r_i_glide_erotb>  (277) 
0

>  <r_i_glide_esite>  (277) 
-0.160824

>  <r_i_glide_emodel>  (277) 
-26.6836

>  <r_i_glide_energy>  (277) 
-20.4697

>  <r_i_glide_einternal>  (277) 
0.708686

>  <r_i_glide_intrahb_reward>  (277) 
-0

>  <i_i_glide_confnum>  (277) 
2

>  <i_i_glide_posenum>  (277) 
4

>  <r_i_glide_eff_state_penalty>  (277) 
0

>  <ligand_id>  (277) 
65

>  <original_smiles>  (277) 
CN=c1nc2[nH]cnn2s1

>  <smiles>  (277) 
[H]c1nc2nc(N([H])C([H])([H])[H])sn2n1

$$$$
65:0:1
     RDKit          3D

 15 16  0  0  1  0  0  0  0  0999 V2000
    3.5261   -0.1377   -4.7873 C   0  0  0  0  0  0  0  0  0  0  0  0
    3.0233   -1.4143   -4.3188 N   0  0  0  0  0  0  0  0  0  0  0  0
    3.2809   -1.8191   -3.0043 C   0  0  0  0  0  0  0  0  0  0  0  0
    2.6319   -2.8993   -2.5111 N   0  0  0  0  0  0  0  0  0  0  0  0
    3.0461   -3.0594   -1.2771 C   0  0  0  0  0  0  0  0  0  0  0  0
    2.7040   -3.9475   -0.3954 N   0  0  0  0  0  0  0  0  0  0  0  0
    3.5521   -3.5827    0.6402 C   0  0  0  0  0  0  0  0  0  0  0  0
    4.3541   -2.5305    0.4250 N   0  0  0  0  0  0  0  0  0  0  0  0
    3.9810   -2.2196   -0.8219 N   0  0  0  0  0  0  0  0  0  0  0  0
    4.4523   -1.0479   -1.8974 S   0  0  0  0  0  0  0  0  0  0  0  0
    3.2170    0.0284   -5.8182 H   0  0  0  0  0  0  0  0  0  0  0  0
    4.6099   -0.1066   -4.7605 H   0  0  0  0  0  0  0  0  0  0  0  0
    3.1439    0.6966   -4.2006 H   0  0  0  0  0  0  0  0  0  0  0  0
    3.5926   -4.1004    1.5880 H   0  0  0  0  0  0  0  0  0  0  0  0
    2.3640   -1.9268   -4.9035 H   0  0  0  0  0  0  0  0  0  0  0  0
  1  2  1  0
  1 11  1  0
  1 12  1  0
  1 13  1  0
  2  3  1  0
  2 15  1  0
  3 10  1  0
  3  4  2  0
  4  5  1  0
  5  9  1  0
  5  6  2  0
  6  7  1  0
  7  8  2  0
  7 14  1  0
  8  9  1  0
  9 10  1  0
M  END
>  <i_m_ct_stereo_status>  (278) 
1

>  <s_m_source_file>  (278) 
/var/tmp/pbs.5076255.sched01/tmpnby3vxlc/96d7dj3887.sdf

>  <i_m_source_file_index>  (278) 
20

>  <i_lp_mmshare_version>  (278) 
48012

>  <i_f3d_flags>  (278) 
0

>  <s_epik_input>  (278) 
W0NIM10vTj1jKC9uMSlzbihjMTIpbltjSF1bbkhdMg==

>  <s_epik_cmdline>  (278) 
J2VwaWtfcHl0aG9uJywgJy1waHQnLCAnMi4wJywgJy1waCcsICc3LjAnLCAnLXRuJywgJzgnLCAnLW1hJywgJzIwMCcsICctaW1hZScsICc8aW5maWxlLm1hZT4nLCAnLW9tYWUnLCAnPG91dGZpbGUubWFlPic=

>  <r_lp_tautomer_probability>  (278) 
1

>  <r_epik_Ionization_Penalty>  (278) 
5.40685e-08

>  <r_epik_Ionization_Penalty_Charging>  (278) 
0

>  <r_epik_Ionization_Penalty_Neutral>  (278) 
5.40685e-08

>  <r_epik_State_Penalty>  (278) 
-0

>  <r_epik_Charging_Adjusted_Penalty>  (278) 
0

>  <i_epik_Tot_Q>  (278) 
0

>  <i_epik_Tot_abs_Q>  (278) 
0

>  <s_lp_Force_Field>  (278) 
OPLS3e

>  <r_lp_Energy>  (278) 
6.61543

>  <b_lp_Chiralities_Consistent>  (278) 
1

>  <s_lp_Variant>  (278) 
65:0-1

>  <s_i_glide_gridfile>  (278) 
pfpi4k_grid

>  <i_i_glide_lignum>  (278) 
20

>  <i_i_glide_rotatable_bonds>  (278) 
1

>  <r_i_docking_score>  (278) 
-4.04559

>  <r_i_glide_ligand_efficiency>  (278) 
-0.404559

>  <r_i_glide_ligand_efficiency_sa>  (278) 
-0.871596

>  <r_i_glide_ligand_efficiency_ln>  (278) 
-1.22498

>  <r_i_glide_gscore>  (278) 
-4.04559

>  <r_i_glide_lipo>  (278) 
-0.228956

>  <r_i_glide_hbond>  (278) 
-0.285191

>  <r_i_glide_metal>  (278) 
-0

>  <r_i_glide_rewards>  (278) 
-2.25447

>  <r_i_glide_evdw>  (278) 
-18.5805

>  <r_i_glide_ecoul>  (278) 
-1.95723

>  <r_i_glide_erotb>  (278) 
0

>  <r_i_glide_esite>  (278) 
-0.0543615

>  <r_i_glide_emodel>  (278) 
-26.2348

>  <r_i_glide_energy>  (278) 
-20.5378

>  <r_i_glide_einternal>  (278) 
0.949303

>  <r_i_glide_intrahb_reward>  (278) 
-0

>  <i_i_glide_confnum>  (278) 
1

>  <i_i_glide_posenum>  (278) 
35

>  <r_i_glide_eff_state_penalty>  (278) 
0

>  <ligand_id>  (278) 
65

>  <original_smiles>  (278) 
CN=c1nc2[nH]cnn2s1

>  <smiles>  (278) 
[H]c1nc2nc(N([H])C([H])([H])[H])sn2n1

$$$$
65:0:2
     RDKit          3D

 15 16  0  0  1  0  0  0  0  0999 V2000
   -2.5038    4.1103    3.2351 C   0  0  0  0  0  0  0  0  0  0  0  0
   -1.3383    3.3203    2.8821 N   0  0  0  0  0  0  0  0  0  0  0  0
   -1.0970    2.0506    3.4188 C   0  0  0  0  0  0  0  0  0  0  0  0
   -1.7698    1.5645    4.4902 N   0  0  0  0  0  0  0  0  0  0  0  0
   -1.3002    0.3621    4.7478 C   0  0  0  0  0  0  0  0  0  0  0  0
   -1.6298   -0.5069    5.6602 N   0  0  0  0  0  0  0  0  0  0  0  0
   -0.7238   -1.5123    5.3711 C   0  0  0  0  0  0  0  0  0  0  0  0
    0.1074   -1.3018    4.3395 N   0  0  0  0  0  0  0  0  0  0  0  0
   -0.3064   -0.0818    3.9651 N   0  0  0  0  0  0  0  0  0  0  0  0
    0.1550    0.9634    2.7479 S   0  0  0  0  0  0  0  0  0  0  0  0
   -2.4739    5.0171    2.6346 H   0  0  0  0  0  0  0  0  0  0  0  0
   -2.4886    4.4017    4.2871 H   0  0  0  0  0  0  0  0  0  0  0  0
   -3.4504    3.6091    3.0106 H   0  0  0  0  0  0  0  0  0  0  0  0
   -0.6579   -2.4420    5.9216 H   0  0  0  0  0  0  0  0  0  0  0  0
   -0.7460    3.6450    2.1066 H   0  0  0  0  0  0  0  0  0  0  0  0
  1  2  1  0
  1 11  1  0
  1 12  1  0
  1 13  1  0
  2  3  1  0
  2 15  1  0
  3 10  1  0
  3  4  2  0
  4  5  1  0
  5  9  1  0
  5  6  2  0
  6  7  1  0
  7  8  2  0
  7 14  1  0
  8  9  1  0
  9 10  1  0
M  END
>  <i_m_ct_stereo_status>  (279) 
1

>  <s_m_source_file>  (279) 
/var/tmp/pbs.5076255.sched01/tmpnby3vxlc/96d7dj3887.sdf

>  <i_m_source_file_index>  (279) 
20

>  <i_lp_mmshare_version>  (279) 
48012

>  <i_f3d_flags>  (279) 
0

>  <s_epik_input>  (279) 
W0NIM10vTj1jKC9uMSlzbihjMTIpbltjSF1bbkhdMg==

>  <s_epik_cmdline>  (279) 
J2VwaWtfcHl0aG9uJywgJy1waHQnLCAnMi4wJywgJy1waCcsICc3LjAnLCAnLXRuJywgJzgnLCAnLW1hJywgJzIwMCcsICctaW1hZScsICc8aW5maWxlLm1hZT4nLCAnLW9tYWUnLCAnPG91dGZpbGUubWFlPic=

>  <r_lp_tautomer_probability>  (279) 
1

>  <r_epik_Ionization_Penalty>  (279) 
5.40685e-08

>  <r_epik_Ionization_Penalty_Charging>  (279) 
0

>  <r_epik_Ionization_Penalty_Neutral>  (279) 
5.40685e-08

>  <r_epik_State_Penalty>  (279) 
-0

>  <r_epik_Charging_Adjusted_Penalty>  (279) 
0

>  <i_epik_Tot_Q>  (279) 
0

>  <i_epik_Tot_abs_Q>  (279) 
0

>  <s_lp_Force_Field>  (279) 
OPLS3e

>  <r_lp_Energy>  (279) 
6.61543

>  <b_lp_Chiralities_Consistent>  (279) 
1

>  <s_lp_Variant>  (279) 
65:0-1

>  <s_i_glide_gridfile>  (279) 
pfpi4k_grid

>  <i_i_glide_lignum>  (279) 
20

>  <i_i_glide_rotatable_bonds>  (279) 
1

>  <r_i_docking_score>  (279) 
-3.89248

>  <r_i_glide_ligand_efficiency>  (279) 
-0.389248

>  <r_i_glide_ligand_efficiency_sa>  (279) 
-0.838609

>  <r_i_glide_ligand_efficiency_ln>  (279) 
-1.17862

>  <r_i_glide_gscore>  (279) 
-3.89248

>  <r_i_glide_lipo>  (279) 
0

>  <r_i_glide_hbond>  (279) 
-0.183616

>  <r_i_glide_metal>  (279) 
-0

>  <r_i_glide_rewards>  (279) 
-2.25

>  <r_i_glide_evdw>  (279) 
-14.4494

>  <r_i_glide_ecoul>  (279) 
-3.72595

>  <r_i_glide_erotb>  (279) 
0

>  <r_i_glide_esite>  (279) 
-0.177499

>  <r_i_glide_emodel>  (279) 
-23.8746

>  <r_i_glide_energy>  (279) 
-18.1754

>  <r_i_glide_einternal>  (279) 
0.192624

>  <r_i_glide_intrahb_reward>  (279) 
-0

>  <i_i_glide_confnum>  (279) 
2

>  <i_i_glide_posenum>  (279) 
12

>  <r_i_glide_eff_state_penalty>  (279) 
0

>  <ligand_id>  (279) 
65

>  <original_smiles>  (279) 
CN=c1nc2[nH]cnn2s1

>  <smiles>  (279) 
[H]c1nc2nc(N([H])C([H])([H])[H])sn2n1

$$$$
66:0:0
     RDKit          3D

 67 71  0  0  1  0  0  0  0  0999 V2000
    1.6172   -4.6123    7.7985 C   0  0  0  0  0  0  0  0  0  0  0  0
    2.6589   -3.4760    7.9708 C   0  0  2  0  0  0  0  0  0  0  0  0
    1.9500   -2.1290    8.0706 C   0  0  0  0  0  0  0  0  0  0  0  0
    1.2935   -1.8146    6.7360 C   0  0  0  0  0  0  0  0  0  0  0  0
    2.2808   -1.7785    5.5411 C   0  0  2  0  0  0  0  0  0  0  0  0
    3.0006   -0.4091    5.5766 C   0  0  0  0  0  0  0  0  0  0  0  0
    1.3891   -1.8502    4.2898 C   0  0  0  0  0  0  0  0  0  0  0  0
    2.2045   -1.7837    3.0119 C   0  0  0  0  0  0  0  0  0  0  0  0
    3.2525   -2.9309    2.8952 C   0  0  2  0  0  0  0  0  0  0  0  0
    2.4685   -4.1602    2.3431 C   0  0  0  0  0  0  0  0  0  0  0  0
    3.7908   -3.3924    4.2790 C   0  0  0  0  0  0  0  0  0  0  0  0
    3.3350   -2.9326    5.4948 C   0  0  0  0  0  0  0  0  0  0  0  0
    3.8064   -3.4689    6.9021 C   0  0  0  0  0  0  0  0  0  0  0  0
    4.9747   -2.5843    7.3931 C   0  0  0  0  0  0  0  0  0  0  0  0
    4.3475   -4.9281    6.9426 C   0  0  0  0  0  0  0  0  0  0  0  0
    4.9046   -4.4413    4.1597 C   0  0  0  0  0  0  0  0  0  0  0  0
    5.5693   -4.6493    2.8015 C   0  0  0  0  0  0  0  0  0  0  0  0
    6.2087   -5.6878    2.6510 O   0  0  0  0  0  0  0  0  0  0  0  0
    5.5165   -3.5844    1.7794 C   0  0  0  0  0  0  0  0  0  0  0  0
    6.2314   -3.7826    0.6534 C   0  0  0  0  0  0  0  0  0  0  0  0
    5.4703   -4.5048   -0.3521 C   0  0  0  0  0  0  0  0  0  0  0  0
    4.6027   -3.7867   -1.0701 C   0  0  0  0  0  0  0  0  0  0  0  0
    4.5630   -2.2917   -0.8263 C   0  0  2  0  0  0  0  0  0  0  0  0
    3.8870   -1.5873   -2.0192 C   0  0  0  0  0  0  0  0  0  0  0  0
    6.0253   -1.8325   -0.7414 C   0  0  0  0  0  0  0  0  0  0  0  0
    6.7894   -2.6109    0.1817 O   0  0  0  0  0  0  0  0  0  0  0  0
    3.8274   -1.9973    0.5178 C   0  0  0  0  0  0  0  0  0  0  0  0
    4.4406   -2.4739    1.9205 C   0  0  1  0  0  0  0  0  0  0  0  0
    5.2307   -1.2867    2.5416 C   0  0  0  0  0  0  0  0  0  0  0  0
    1.2553   -4.6766    6.7733 H   0  0  0  0  0  0  0  0  0  0  0  0
    0.7558   -4.4556    8.4481 H   0  0  0  0  0  0  0  0  0  0  0  0
    2.0257   -5.5869    8.0617 H   0  0  0  0  0  0  0  0  0  0  0  0
    3.1188   -3.6398    8.9469 H   0  0  0  0  0  0  0  0  0  0  0  0
    1.2013   -2.1583    8.8622 H   0  0  0  0  0  0  0  0  0  0  0  0
    2.6425   -1.3433    8.3640 H   0  0  0  0  0  0  0  0  0  0  0  0
    0.5015   -2.5408    6.5525 H   0  0  0  0  0  0  0  0  0  0  0  0
    0.7813   -0.8559    6.8142 H   0  0  0  0  0  0  0  0  0  0  0  0
    2.3372    0.3966    5.2658 H   0  0  0  0  0  0  0  0  0  0  0  0
    3.8688   -0.3914    4.9216 H   0  0  0  0  0  0  0  0  0  0  0  0
    3.3497   -0.1470    6.5705 H   0  0  0  0  0  0  0  0  0  0  0  0
    0.8050   -2.7695    4.2947 H   0  0  0  0  0  0  0  0  0  0  0  0
    0.6666   -1.0346    4.2974 H   0  0  0  0  0  0  0  0  0  0  0  0
    1.5243   -1.7966    2.1621 H   0  0  0  0  0  0  0  0  0  0  0  0
    2.6609   -0.8004    2.9639 H   0  0  0  0  0  0  0  0  0  0  0  0
    1.8246   -3.9169    1.5035 H   0  0  0  0  0  0  0  0  0  0  0  0
    1.8202   -4.5690    3.1153 H   0  0  0  0  0  0  0  0  0  0  0  0
    3.0986   -4.9854    2.0175 H   0  0  0  0  0  0  0  0  0  0  0  0
    5.3697   -2.9354    8.3477 H   0  0  0  0  0  0  0  0  0  0  0  0
    4.6896   -1.5458    7.5335 H   0  0  0  0  0  0  0  0  0  0  0  0
    5.7962   -2.5858    6.6744 H   0  0  0  0  0  0  0  0  0  0  0  0
    4.3611   -5.3179    7.9603 H   0  0  0  0  0  0  0  0  0  0  0  0
    5.3815   -5.0281    6.6140 H   0  0  0  0  0  0  0  0  0  0  0  0
    3.7150   -5.6056    6.3665 H   0  0  0  0  0  0  0  0  0  0  0  0
    5.7164   -4.1577    4.8225 H   0  0  0  0  0  0  0  0  0  0  0  0
    4.5204   -5.4151    4.4593 H   0  0  0  0  0  0  0  0  0  0  0  0
    5.5840   -5.5648   -0.5070 H   0  0  0  0  0  0  0  0  0  0  0  0
    3.9859   -4.2152   -1.8435 H   0  0  0  0  0  0  0  0  0  0  0  0
    3.8957   -0.5022   -1.8966 H   0  0  0  0  0  0  0  0  0  0  0  0
    2.8497   -1.9047   -2.1454 H   0  0  0  0  0  0  0  0  0  0  0  0
    4.4123   -1.8060   -2.9506 H   0  0  0  0  0  0  0  0  0  0  0  0
    6.5069   -1.9059   -1.7181 H   0  0  0  0  0  0  0  0  0  0  0  0
    6.0670   -0.7862   -0.4419 H   0  0  0  0  0  0  0  0  0  0  0  0
    3.6178   -0.9260    0.5682 H   0  0  0  0  0  0  0  0  0  0  0  0
    2.8416   -2.4359    0.3704 H   0  0  0  0  0  0  0  0  0  0  0  0
    4.6597   -0.3641    2.6132 H   0  0  0  0  0  0  0  0  0  0  0  0
    6.1212   -1.0452    1.9613 H   0  0  0  0  0  0  0  0  0  0  0  0
    5.5860   -1.5420    3.5397 H   0  0  0  0  0  0  0  0  0  0  0  0
  1  2  1  0
  1 30  1  0
  1 31  1  0
  1 32  1  0
  2 13  1  0
  2  3  1  0
  2 33  1  1
  3  4  1  0
  3 34  1  0
  3 35  1  0
  4  5  1  0
  4 36  1  0
  4 37  1  0
  5 12  1  0
  5  6  1  6
  5  7  1  0
  6 38  1  0
  6 39  1  0
  6 40  1  0
  7  8  1  0
  7 41  1  0
  7 42  1  0
  8  9  1  0
  8 43  1  0
  8 44  1  0
  9 28  1  0
  9 10  1  6
  9 11  1  0
 10 45  1  0
 10 46  1  0
 10 47  1  0
 11 12  2  0
 11 16  1  0
 12 13  1  0
 13 14  1  0
 13 15  1  0
 14 48  1  0
 14 49  1  0
 14 50  1  0
 15 51  1  0
 15 52  1  0
 15 53  1  0
 16 17  1  0
 16 54  1  0
 16 55  1  0
 17 18  2  0
 17 19  1  0
 19 28  1  0
 19 20  2  0
 20 26  1  0
 20 21  1  0
 21 22  2  0
 21 56  1  0
 22 23  1  0
 22 57  1  0
 23 24  1  6
 23 25  1  0
 23 27  1  0
 24 58  1  0
 24 59  1  0
 24 60  1  0
 25 26  1  0
 25 61  1  0
 25 62  1  0
 27 28  1  0
 27 63  1  0
 27 64  1  0
 28 29  1  1
 29 65  1  0
 29 66  1  0
 29 67  1  0
M  END
>  <i_m_ct_stereo_status>  (280) 
1

>  <s_m_source_file>  (280) 
/var/tmp/pbs.5076255.sched01/tmpnby3vxlc/96d7dj3887.sdf

>  <i_m_source_file_index>  (280) 
21

>  <i_lp_mmshare_version>  (280) 
48012

>  <i_f3d_flags>  (280) 
0

>  <s_epik_input>  (280) 
W0NIMl0xW0NIMl1bQ0BASF0oW0NIM10pQyhbQ0gzXSkoW0NIM10pQyhbQ0BdMTJbQ0gzXSk9QzNbQ0BAXShbQ0gzXSkoW0NIMl1bQ0gyXTIpW0NAQF00KFtDSDNdKUMoQyg9TylbQ0gyXTMpPUM1W0NIXT1bQ0hdW0NAXShbQ0gzXSkoW0NIMl1PNSlbQ0gyXTQ=

>  <s_epik_cmdline>  (280) 
J2VwaWtfcHl0aG9uJywgJy1waHQnLCAnMi4wJywgJy1waCcsICc3LjAnLCAnLXRuJywgJzgnLCAnLW1hJywgJzIwMCcsICctaW1hZScsICc8aW5maWxlLm1hZT4nLCAnLW9tYWUnLCAnPG91dGZpbGUubWFlPic=

>  <r_lp_tautomer_probability>  (280) 
1

>  <r_epik_Ionization_Penalty>  (280) 
0

>  <r_epik_Ionization_Penalty_Charging>  (280) 
0

>  <r_epik_Ionization_Penalty_Neutral>  (280) 
0

>  <r_epik_State_Penalty>  (280) 
-0

>  <r_epik_Charging_Adjusted_Penalty>  (280) 
0

>  <i_epik_Tot_Q>  (280) 
0

>  <i_epik_Tot_abs_Q>  (280) 
0

>  <s_lp_Force_Field>  (280) 
OPLS3e

>  <r_lp_Energy>  (280) 
153.014

>  <b_lp_Chiralities_Consistent>  (280) 
1

>  <s_lp_Variant>  (280) 
66:0-1

>  <s_i_glide_gridfile>  (280) 
pfpi4k_grid

>  <i_i_glide_lignum>  (280) 
21

>  <i_i_glide_rotatable_bonds>  (280) 
0

>  <r_i_docking_score>  (280) 
-2.24176

>  <r_i_glide_ligand_efficiency>  (280) 
-0.0773021

>  <r_i_glide_ligand_efficiency_sa>  (280) 
-0.237497

>  <r_i_glide_ligand_efficiency_ln>  (280) 
-0.513306

>  <r_i_glide_gscore>  (280) 
-2.24176

>  <r_i_glide_lipo>  (280) 
-0.305963

>  <r_i_glide_hbond>  (280) 
0

>  <r_i_glide_metal>  (280) 
-0

>  <r_i_glide_rewards>  (280) 
-0.739258

>  <r_i_glide_evdw>  (280) 
-21.8574

>  <r_i_glide_ecoul>  (280) 
-0.691139

>  <r_i_glide_erotb>  (280) 
0

>  <r_i_glide_esite>  (280) 
0

>  <r_i_glide_emodel>  (280) 
-24.8321

>  <r_i_glide_energy>  (280) 
-22.5485

>  <r_i_glide_einternal>  (280) 
0

>  <r_i_glide_intrahb_reward>  (280) 
-0

>  <i_i_glide_confnum>  (280) 
2

>  <i_i_glide_posenum>  (280) 
33

>  <r_i_glide_eff_state_penalty>  (280) 
0

>  <ligand_id>  (280) 
66

>  <original_smiles>  (280) 
CC1CCC2(C)CCC3(C)C(=C2C1(C)C)CC(=O)C1=C2C=CC(C)(CO2)CC13C

>  <smiles>  (280) 
[H]C1=C([H])C2(C([H])([H])[H])C([H])([H])OC1=C1C(=O)C([H])([H])C3=C4C(C([H])([H])[H])(C([H])([H])C([H])([H])C([H])(C([H])([H])[H])C4(C([H])([H])[H])C([H])([H])[H])C([H])([H])C([H])([H])C3(C([H])([H])[H])C1(C([H])([H])[H])C2([H])[H]

$$$$
68:0:0
     RDKit          3D

 37 40  0  0  1  0  0  0  0  0999 V2000
    1.1851   -3.7366   -1.5313 O   0  0  0  0  0  0  0  0  0  0  0  0
    2.3034   -3.4508   -1.9594 C   0  0  0  0  0  0  0  0  0  0  0  0
    2.5690   -3.1182   -3.4216 C   0  0  0  0  0  0  0  0  0  0  0  0
    4.0527   -2.7580   -3.4250 C   0  0  0  0  0  0  0  0  0  0  0  0
    4.5989   -3.3264   -2.0896 C   0  0  1  0  0  0  0  0  0  0  0  0
    5.6660   -2.4081   -1.4595 C   0  0  1  0  0  0  0  0  0  0  0  0
    5.1102   -1.0582   -0.9271 C   0  0  0  0  0  0  0  0  0  0  0  0
    4.8957   -0.9925    0.5905 C   0  0  2  0  0  0  0  0  0  0  0  0
    6.1980   -1.3866    1.2929 C   0  0  0  0  0  0  0  0  0  0  0  0
    6.4572   -2.8674    1.0189 C   0  0  1  0  0  0  0  0  0  0  0  0
    5.3573   -3.6981    1.6991 C   0  0  0  0  0  0  0  0  0  0  0  0
    3.9407   -3.3433    1.2248 C   0  0  1  0  0  0  0  0  0  0  0  0
    3.6899   -1.8116    1.1144 C   0  0  0  0  0  0  0  0  0  0  0  0
    3.5097   -4.2116    0.0293 C   0  0  0  0  0  0  0  0  0  0  0  0
    3.4302   -3.4998   -1.2458 N   0  0  0  0  0  0  0  0  0  0  0  0
    6.6460   -3.1319   -0.4937 C   0  0  0  0  0  0  0  0  0  0  0  0
    2.4000   -4.0237   -4.0067 H   0  0  0  0  0  0  0  0  0  0  0  0
    1.9248   -2.3302   -3.8141 H   0  0  0  0  0  0  0  0  0  0  0  0
    4.5827   -3.1771   -4.2807 H   0  0  0  0  0  0  0  0  0  0  0  0
    4.1591   -1.6713   -3.4835 H   0  0  0  0  0  0  0  0  0  0  0  0
    5.0251   -4.3114   -2.3048 H   0  0  0  0  0  0  0  0  0  0  0  0
    6.2853   -2.1431   -2.3090 H   0  0  0  0  0  0  0  0  0  0  0  0
    5.8157   -0.2671   -1.1960 H   0  0  0  0  0  0  0  0  0  0  0  0
    4.1792   -0.7872   -1.4146 H   0  0  0  0  0  0  0  0  0  0  0  0
    4.6789    0.0521    0.8164 H   0  0  0  0  0  0  0  0  0  0  0  0
    7.0286   -0.7827    0.9263 H   0  0  0  0  0  0  0  0  0  0  0  0
    6.1186   -1.2131    2.3671 H   0  0  0  0  0  0  0  0  0  0  0  0
    7.3907   -3.1653    1.4947 H   0  0  0  0  0  0  0  0  0  0  0  0
    5.5711   -4.7596    1.5723 H   0  0  0  0  0  0  0  0  0  0  0  0
    5.4259   -3.5321    2.7788 H   0  0  0  0  0  0  0  0  0  0  0  0
    3.2878   -3.6770    2.0248 H   0  0  0  0  0  0  0  0  0  0  0  0
    3.4225   -1.4278    2.1042 H   0  0  0  0  0  0  0  0  0  0  0  0
    2.8180   -1.6086    0.4984 H   0  0  0  0  0  0  0  0  0  0  0  0
    4.1437   -5.0870   -0.1014 H   0  0  0  0  0  0  0  0  0  0  0  0
    2.5406   -4.6390    0.2834 H   0  0  0  0  0  0  0  0  0  0  0  0
    6.5782   -4.2033   -0.6490 H   0  0  0  0  0  0  0  0  0  0  0  0
    7.6751   -2.8645   -0.7705 H   0  0  0  0  0  0  0  0  0  0  0  0
  1  2  2  0
  2 15  1  0
  2  3  1  0
  3  4  1  0
  3 17  1  0
  3 18  1  0
  4  5  1  0
  4 19  1  0
  4 20  1  0
  5 15  1  0
  5  6  1  0
  5 21  1  6
  6 16  1  0
  6  7  1  0
  6 22  1  6
  7  8  1  0
  7 23  1  0
  7 24  1  0
  8 13  1  0
  8  9  1  0
  8 25  1  6
  9 10  1  0
  9 26  1  0
  9 27  1  0
 10 11  1  0
 10 16  1  0
 10 28  1  1
 11 12  1  0
 11 29  1  0
 11 30  1  0
 12 13  1  0
 12 14  1  0
 12 31  1  1
 13 32  1  0
 13 33  1  0
 14 15  1  0
 14 34  1  0
 14 35  1  0
 16 36  1  0
 16 37  1  0
M  END
>  <i_m_ct_stereo_status>  (281) 
1

>  <s_m_source_file>  (281) 
/var/tmp/pbs.5076255.sched01/tmpnby3vxlc/96d7dj3887.sdf

>  <i_m_source_file_index>  (281) 
23

>  <i_lp_mmshare_version>  (281) 
48012

>  <i_f3d_flags>  (281) 
0

>  <s_epik_input>  (281) 
W0NIMl0xW0NIMl1DKD1PKU4yW0NIMl1bQ0BIXShbQ0gyXTMpW0NIMl1bQ0BASF0oW0NIMl00KVtDSDJdW0NASF0zW0NIMl1bQ0BASF00W0NASF0xMg==

>  <s_epik_cmdline>  (281) 
J2VwaWtfcHl0aG9uJywgJy1waHQnLCAnMi4wJywgJy1waCcsICc3LjAnLCAnLXRuJywgJzgnLCAnLW1hJywgJzIwMCcsICctaW1hZScsICc8aW5maWxlLm1hZT4nLCAnLW9tYWUnLCAnPG91dGZpbGUubWFlPic=

>  <r_lp_tautomer_probability>  (281) 
1

>  <r_epik_Ionization_Penalty>  (281) 
3.6684e-07

>  <r_epik_Ionization_Penalty_Charging>  (281) 
0

>  <r_epik_Ionization_Penalty_Neutral>  (281) 
3.6684e-07

>  <r_epik_State_Penalty>  (281) 
-0

>  <r_epik_Charging_Adjusted_Penalty>  (281) 
0

>  <i_epik_Tot_Q>  (281) 
0

>  <i_epik_Tot_abs_Q>  (281) 
0

>  <s_lp_Force_Field>  (281) 
OPLS3e

>  <r_lp_Energy>  (281) 
17.1918

>  <b_lp_Chiralities_Consistent>  (281) 
1

>  <s_lp_Variant>  (281) 
68:0-1

>  <s_i_glide_gridfile>  (281) 
pfpi4k_grid

>  <i_i_glide_lignum>  (281) 
23

>  <i_i_glide_rotatable_bonds>  (281) 
0

>  <r_i_docking_score>  (281) 
-4.30083

>  <r_i_glide_ligand_efficiency>  (281) 
-0.268802

>  <r_i_glide_ligand_efficiency_sa>  (281) 
-0.677339

>  <r_i_glide_ligand_efficiency_ln>  (281) 
-1.14002

>  <r_i_glide_gscore>  (281) 
-4.30083

>  <r_i_glide_lipo>  (281) 
-0.884738

>  <r_i_glide_hbond>  (281) 
-0.0390125

>  <r_i_glide_metal>  (281) 
-0

>  <r_i_glide_rewards>  (281) 
-2.18672

>  <r_i_glide_evdw>  (281) 
-22.1577

>  <r_i_glide_ecoul>  (281) 
-0.549837

>  <r_i_glide_erotb>  (281) 
0

>  <r_i_glide_esite>  (281) 
0

>  <r_i_glide_emodel>  (281) 
-28.3202

>  <r_i_glide_energy>  (281) 
-22.7076

>  <r_i_glide_einternal>  (281) 
0

>  <r_i_glide_intrahb_reward>  (281) 
-0

>  <i_i_glide_confnum>  (281) 
2

>  <i_i_glide_posenum>  (281) 
31

>  <r_i_glide_eff_state_penalty>  (281) 
0

>  <ligand_id>  (281) 
68

>  <original_smiles>  (281) 
O=C1CCC2C3CC4CC(CC(C4)CN12)C3

>  <smiles>  (281) 
[H]C1([H])C(=O)N2C([H])([H])C3([H])C([H])([H])C4([H])C([H])([H])C([H])(C3([H])[H])C([H])([H])C([H])(C4([H])[H])C2([H])C1([H])[H]

$$$$
68:0:1
     RDKit          3D

 37 40  0  0  1  0  0  0  0  0999 V2000
    4.6198   -0.1704   -2.7372 O   0  0  0  0  0  0  0  0  0  0  0  0
    4.0034   -1.1809   -2.4354 C   0  0  0  0  0  0  0  0  0  0  0  0
    3.2345   -1.9900   -3.4574 C   0  0  0  0  0  0  0  0  0  0  0  0
    2.9172   -3.2549   -2.6812 C   0  0  0  0  0  0  0  0  0  0  0  0
    3.0921   -2.8993   -1.1876 C   0  0  1  0  0  0  0  0  0  0  0  0
    3.6929   -4.0464   -0.3472 C   0  0  1  0  0  0  0  0  0  0  0  0
    5.1720   -4.3685   -0.6689 C   0  0  0  0  0  0  0  0  0  0  0  0
    6.1963   -3.8043    0.3227 C   0  0  2  0  0  0  0  0  0  0  0  0
    5.8023   -4.2479    1.7356 C   0  0  0  0  0  0  0  0  0  0  0  0
    4.4990   -3.5506    2.1221 C   0  0  1  0  0  0  0  0  0  0  0  0
    4.7513   -2.0374    2.2157 C   0  0  0  0  0  0  0  0  0  0  0  0
    5.2900   -1.4134    0.9146 C   0  0  1  0  0  0  0  0  0  0  0  0
    6.3945   -2.2722    0.2342 C   0  0  0  0  0  0  0  0  0  0  0  0
    4.1431   -0.9105    0.0099 C   0  0  0  0  0  0  0  0  0  0  0  0
    3.8955   -1.6842   -1.2030 N   0  0  0  0  0  0  0  0  0  0  0  0
    3.3496   -3.9549    1.1699 C   0  0  0  0  0  0  0  0  0  0  0  0
    2.3233   -1.4602   -3.7392 H   0  0  0  0  0  0  0  0  0  0  0  0
    3.8260   -2.1758   -4.3525 H   0  0  0  0  0  0  0  0  0  0  0  0
    1.9146   -3.6318   -2.8915 H   0  0  0  0  0  0  0  0  0  0  0  0
    3.6334   -4.0127   -2.9968 H   0  0  0  0  0  0  0  0  0  0  0  0
    2.1064   -2.6587   -0.7981 H   0  0  0  0  0  0  0  0  0  0  0  0
    3.1308   -4.9093   -0.6925 H   0  0  0  0  0  0  0  0  0  0  0  0
    5.2835   -5.4547   -0.6918 H   0  0  0  0  0  0  0  0  0  0  0  0
    5.4393   -4.0453   -1.6736 H   0  0  0  0  0  0  0  0  0  0  0  0
    7.1528   -4.2628    0.0675 H   0  0  0  0  0  0  0  0  0  0  0  0
    5.6760   -5.3302    1.7771 H   0  0  0  0  0  0  0  0  0  0  0  0
    6.5871   -3.9860    2.4407 H   0  0  0  0  0  0  0  0  0  0  0  0
    4.2039   -3.8719    3.1220 H   0  0  0  0  0  0  0  0  0  0  0  0
    3.8461   -1.5317    2.5509 H   0  0  0  0  0  0  0  0  0  0  0  0
    5.4740   -1.8619    3.0166 H   0  0  0  0  0  0  0  0  0  0  0  0
    5.7915   -0.5000    1.2276 H   0  0  0  0  0  0  0  0  0  0  0  0
    7.3513   -2.0342    0.7040 H   0  0  0  0  0  0  0  0  0  0  0  0
    6.5201   -1.9803   -0.8047 H   0  0  0  0  0  0  0  0  0  0  0  0
    3.2034   -0.8186    0.5535 H   0  0  0  0  0  0  0  0  0  0  0  0
    4.3844    0.1208   -0.2508 H   0  0  0  0  0  0  0  0  0  0  0  0
    2.5232   -3.2656    1.3210 H   0  0  0  0  0  0  0  0  0  0  0  0
    2.9656   -4.9289    1.4895 H   0  0  0  0  0  0  0  0  0  0  0  0
  1  2  2  0
  2 15  1  0
  2  3  1  0
  3  4  1  0
  3 17  1  0
  3 18  1  0
  4  5  1  0
  4 19  1  0
  4 20  1  0
  5 15  1  0
  5  6  1  0
  5 21  1  1
  6 16  1  0
  6  7  1  0
  6 22  1  6
  7  8  1  0
  7 23  1  0
  7 24  1  0
  8 13  1  0
  8  9  1  0
  8 25  1  6
  9 10  1  0
  9 26  1  0
  9 27  1  0
 10 11  1  0
 10 16  1  0
 10 28  1  1
 11 12  1  0
 11 29  1  0
 11 30  1  0
 12 13  1  0
 12 14  1  0
 12 31  1  1
 13 32  1  0
 13 33  1  0
 14 15  1  0
 14 34  1  0
 14 35  1  0
 16 36  1  0
 16 37  1  0
M  END
>  <i_m_ct_stereo_status>  (282) 
1

>  <s_m_source_file>  (282) 
/var/tmp/pbs.5076255.sched01/tmpnby3vxlc/96d7dj3887.sdf

>  <i_m_source_file_index>  (282) 
23

>  <i_lp_mmshare_version>  (282) 
48012

>  <i_f3d_flags>  (282) 
0

>  <s_epik_input>  (282) 
W0NIMl0xW0NIMl1DKD1PKU4yW0NIMl1bQ0BIXShbQ0gyXTMpW0NIMl1bQ0BASF0oW0NIMl00KVtDSDJdW0NASF0zW0NIMl1bQ0BASF00W0NASF0xMg==

>  <s_epik_cmdline>  (282) 
J2VwaWtfcHl0aG9uJywgJy1waHQnLCAnMi4wJywgJy1waCcsICc3LjAnLCAnLXRuJywgJzgnLCAnLW1hJywgJzIwMCcsICctaW1hZScsICc8aW5maWxlLm1hZT4nLCAnLW9tYWUnLCAnPG91dGZpbGUubWFlPic=

>  <r_lp_tautomer_probability>  (282) 
1

>  <r_epik_Ionization_Penalty>  (282) 
3.6684e-07

>  <r_epik_Ionization_Penalty_Charging>  (282) 
0

>  <r_epik_Ionization_Penalty_Neutral>  (282) 
3.6684e-07

>  <r_epik_State_Penalty>  (282) 
-0

>  <r_epik_Charging_Adjusted_Penalty>  (282) 
0

>  <i_epik_Tot_Q>  (282) 
0

>  <i_epik_Tot_abs_Q>  (282) 
0

>  <s_lp_Force_Field>  (282) 
OPLS3e

>  <r_lp_Energy>  (282) 
17.1918

>  <b_lp_Chiralities_Consistent>  (282) 
1

>  <s_lp_Variant>  (282) 
68:0-1

>  <s_i_glide_gridfile>  (282) 
pfpi4k_grid

>  <i_i_glide_lignum>  (282) 
23

>  <i_i_glide_rotatable_bonds>  (282) 
0

>  <r_i_docking_score>  (282) 
-3.76691

>  <r_i_glide_ligand_efficiency>  (282) 
-0.235432

>  <r_i_glide_ligand_efficiency_sa>  (282) 
-0.593251

>  <r_i_glide_ligand_efficiency_ln>  (282) 
-0.998494

>  <r_i_glide_gscore>  (282) 
-3.76691

>  <r_i_glide_lipo>  (282) 
-0.582846

>  <r_i_glide_hbond>  (282) 
0

>  <r_i_glide_metal>  (282) 
-0

>  <r_i_glide_rewards>  (282) 
-1.91371

>  <r_i_glide_evdw>  (282) 
-20.5729

>  <r_i_glide_ecoul>  (282) 
-1.01402

>  <r_i_glide_erotb>  (282) 
0

>  <r_i_glide_esite>  (282) 
-0.0896026

>  <r_i_glide_emodel>  (282) 
-26.5086

>  <r_i_glide_energy>  (282) 
-21.5869

>  <r_i_glide_einternal>  (282) 
0

>  <r_i_glide_intrahb_reward>  (282) 
-0

>  <i_i_glide_confnum>  (282) 
2

>  <i_i_glide_posenum>  (282) 
13

>  <r_i_glide_eff_state_penalty>  (282) 
0

>  <ligand_id>  (282) 
68

>  <original_smiles>  (282) 
O=C1CCC2C3CC4CC(CC(C4)CN12)C3

>  <smiles>  (282) 
[H]C1([H])C(=O)N2C([H])([H])C3([H])C([H])([H])C4([H])C([H])([H])C([H])(C3([H])[H])C([H])([H])C([H])(C4([H])[H])C2([H])C1([H])[H]

$$$$
68:0:2
     RDKit          3D

 37 40  0  0  1  0  0  0  0  0999 V2000
    6.1615   -5.2006    2.9092 O   0  0  0  0  0  0  0  0  0  0  0  0
    5.0874   -4.8623    2.4176 C   0  0  0  0  0  0  0  0  0  0  0  0
    3.7864   -4.9338    3.1928 C   0  0  0  0  0  0  0  0  0  0  0  0
    2.7988   -4.2169    2.2738 C   0  0  0  0  0  0  0  0  0  0  0  0
    3.4717   -4.2070    0.8832 C   0  0  1  0  0  0  0  0  0  0  0  0
    3.1987   -2.8951    0.1086 C   0  0  1  0  0  0  0  0  0  0  0  0
    3.8839   -1.6347    0.6995 C   0  0  0  0  0  0  0  0  0  0  0  0
    5.1612   -1.1851   -0.0258 C   0  0  2  0  0  0  0  0  0  0  0  0
    4.8559   -1.0327   -1.5198 C   0  0  0  0  0  0  0  0  0  0  0  0
    4.5640   -2.4055   -2.1097 C   0  0  1  0  0  0  0  0  0  0  0  0
    5.8423   -3.2513   -2.0382 C   0  0  0  0  0  0  0  0  0  0  0  0
    6.4017   -3.4186   -0.6122 C   0  0  1  0  0  0  0  0  0  0  0  0
    6.3837   -2.1045    0.2193 C   0  0  0  0  0  0  0  0  0  0  0  0
    5.8404   -4.6845    0.0780 C   0  0  0  0  0  0  0  0  0  0  0  0
    4.8855   -4.4557    1.1576 N   0  0  0  0  0  0  0  0  0  0  0  0
    3.3281   -3.0447   -1.4352 C   0  0  0  0  0  0  0  0  0  0  0  0
    3.5182   -5.9828    3.3120 H   0  0  0  0  0  0  0  0  0  0  0  0
    3.8748   -4.4779    4.1774 H   0  0  0  0  0  0  0  0  0  0  0  0
    1.8297   -4.7135    2.2525 H   0  0  0  0  0  0  0  0  0  0  0  0
    2.6312   -3.2077    2.6525 H   0  0  0  0  0  0  0  0  0  0  0  0
    3.0847   -5.0626    0.3242 H   0  0  0  0  0  0  0  0  0  0  0  0
    2.1328   -2.7275    0.2664 H   0  0  0  0  0  0  0  0  0  0  0  0
    3.1692   -0.8099    0.6592 H   0  0  0  0  0  0  0  0  0  0  0  0
    4.1048   -1.7603    1.7587 H   0  0  0  0  0  0  0  0  0  0  0  0
    5.4144   -0.2015    0.3822 H   0  0  0  0  0  0  0  0  0  0  0  0
    3.9984   -0.3793   -1.6703 H   0  0  0  0  0  0  0  0  0  0  0  0
    5.7004   -0.5796   -2.0317 H   0  0  0  0  0  0  0  0  0  0  0  0
    4.3232   -2.2941   -3.1723 H   0  0  0  0  0  0  0  0  0  0  0  0
    5.6668   -4.2163   -2.5151 H   0  0  0  0  0  0  0  0  0  0  0  0
    6.6013   -2.7757   -2.6629 H   0  0  0  0  0  0  0  0  0  0  0  0
    7.4584   -3.6495   -0.7530 H   0  0  0  0  0  0  0  0  0  0  0  0
    7.2800   -1.5313   -0.0201 H   0  0  0  0  0  0  0  0  0  0  0  0
    6.4824   -2.3177    1.2813 H   0  0  0  0  0  0  0  0  0  0  0  0
    5.3851   -5.3649   -0.6438 H   0  0  0  0  0  0  0  0  0  0  0  0
    6.6938   -5.2439    0.4563 H   0  0  0  0  0  0  0  0  0  0  0  0
    3.3089   -4.0986   -1.6962 H   0  0  0  0  0  0  0  0  0  0  0  0
    2.4293   -2.6234   -1.8973 H   0  0  0  0  0  0  0  0  0  0  0  0
  1  2  2  0
  2 15  1  0
  2  3  1  0
  3  4  1  0
  3 17  1  0
  3 18  1  0
  4  5  1  0
  4 19  1  0
  4 20  1  0
  5 15  1  0
  5  6  1  0
  5 21  1  6
  6 16  1  0
  6  7  1  0
  6 22  1  6
  7  8  1  0
  7 23  1  0
  7 24  1  0
  8 13  1  0
  8  9  1  0
  8 25  1  1
  9 10  1  0
  9 26  1  0
  9 27  1  0
 10 11  1  0
 10 16  1  0
 10 28  1  6
 11 12  1  0
 11 29  1  0
 11 30  1  0
 12 13  1  0
 12 14  1  0
 12 31  1  6
 13 32  1  0
 13 33  1  0
 14 15  1  0
 14 34  1  0
 14 35  1  0
 16 36  1  0
 16 37  1  0
M  END
>  <i_m_ct_stereo_status>  (283) 
1

>  <s_m_source_file>  (283) 
/var/tmp/pbs.5076255.sched01/tmpnby3vxlc/96d7dj3887.sdf

>  <i_m_source_file_index>  (283) 
23

>  <i_lp_mmshare_version>  (283) 
48012

>  <i_f3d_flags>  (283) 
0

>  <s_epik_input>  (283) 
W0NIMl0xW0NIMl1DKD1PKU4yW0NIMl1bQ0BIXShbQ0gyXTMpW0NIMl1bQ0BASF0oW0NIMl00KVtDSDJdW0NASF0zW0NIMl1bQ0BASF00W0NASF0xMg==

>  <s_epik_cmdline>  (283) 
J2VwaWtfcHl0aG9uJywgJy1waHQnLCAnMi4wJywgJy1waCcsICc3LjAnLCAnLXRuJywgJzgnLCAnLW1hJywgJzIwMCcsICctaW1hZScsICc8aW5maWxlLm1hZT4nLCAnLW9tYWUnLCAnPG91dGZpbGUubWFlPic=

>  <r_lp_tautomer_probability>  (283) 
1

>  <r_epik_Ionization_Penalty>  (283) 
3.6684e-07

>  <r_epik_Ionization_Penalty_Charging>  (283) 
0

>  <r_epik_Ionization_Penalty_Neutral>  (283) 
3.6684e-07

>  <r_epik_State_Penalty>  (283) 
-0

>  <r_epik_Charging_Adjusted_Penalty>  (283) 
0

>  <i_epik_Tot_Q>  (283) 
0

>  <i_epik_Tot_abs_Q>  (283) 
0

>  <s_lp_Force_Field>  (283) 
OPLS3e

>  <r_lp_Energy>  (283) 
17.1918

>  <b_lp_Chiralities_Consistent>  (283) 
1

>  <s_lp_Variant>  (283) 
68:0-1

>  <s_i_glide_gridfile>  (283) 
pfpi4k_grid

>  <i_i_glide_lignum>  (283) 
23

>  <i_i_glide_rotatable_bonds>  (283) 
0

>  <r_i_docking_score>  (283) 
-3.51247

>  <r_i_glide_ligand_efficiency>  (283) 
-0.219529

>  <r_i_glide_ligand_efficiency_sa>  (283) 
-0.553179

>  <r_i_glide_ligand_efficiency_ln>  (283) 
-0.93105

>  <r_i_glide_gscore>  (283) 
-3.51247

>  <r_i_glide_lipo>  (283) 
-0.434779

>  <r_i_glide_hbond>  (283) 
0

>  <r_i_glide_metal>  (283) 
-0

>  <r_i_glide_rewards>  (283) 
-1.9795

>  <r_i_glide_evdw>  (283) 
-19.7915

>  <r_i_glide_ecoul>  (283) 
-0.724092

>  <r_i_glide_erotb>  (283) 
0

>  <r_i_glide_esite>  (283) 
0

>  <r_i_glide_emodel>  (283) 
-25.125

>  <r_i_glide_energy>  (283) 
-20.5156

>  <r_i_glide_einternal>  (283) 
0

>  <r_i_glide_intrahb_reward>  (283) 
-0

>  <i_i_glide_confnum>  (283) 
2

>  <i_i_glide_posenum>  (283) 
33

>  <r_i_glide_eff_state_penalty>  (283) 
0

>  <ligand_id>  (283) 
68

>  <original_smiles>  (283) 
O=C1CCC2C3CC4CC(CC(C4)CN12)C3

>  <smiles>  (283) 
[H]C1([H])C(=O)N2C([H])([H])C3([H])C([H])([H])C4([H])C([H])([H])C([H])(C3([H])[H])C([H])([H])C([H])(C4([H])[H])C2([H])C1([H])[H]

$$$$
68:1:0
     RDKit          3D

 37 40  0  0  1  0  0  0  0  0999 V2000
    4.2222   -2.9223    3.1480 O   0  0  0  0  0  0  0  0  0  0  0  0
    4.2589   -2.0702    2.2430 C   0  0  0  0  0  0  0  0  0  0  0  0
    4.8565   -0.7123    2.4919 C   0  0  0  0  0  0  0  0  0  0  0  0
    4.9012   -0.1395    1.0608 C   0  0  0  0  0  0  0  0  0  0  0  0
    3.9096   -0.9514    0.2307 C   0  0  1  0  0  0  0  0  0  0  0  0
    4.3927   -1.1431   -1.2491 C   0  0  2  0  0  0  0  0  0  0  0  0
    5.6581   -1.9659   -1.5106 C   0  0  0  0  0  0  0  0  0  0  0  0
    5.3104   -3.3829   -2.0280 C   0  0  2  0  0  0  0  0  0  0  0  0
    4.4454   -3.3211   -3.3023 C   0  0  0  0  0  0  0  0  0  0  0  0
    3.1342   -2.5824   -2.9812 C   0  0  1  0  0  0  0  0  0  0  0  0
    2.3179   -3.4527   -1.9666 C   0  0  0  0  0  0  0  0  0  0  0  0
    3.1189   -4.0047   -0.7104 C   0  0  1  0  0  0  0  0  0  0  0  0
    4.6370   -4.3082   -0.9779 C   0  0  0  0  0  0  0  0  0  0  0  0
    2.8144   -3.2855    0.6369 C   0  0  0  0  0  0  0  0  0  0  0  0
    3.7607   -2.2161    1.0250 N   0  0  0  0  0  0  0  0  0  0  0  0
    3.4678   -1.1209   -2.5001 C   0  0  0  0  0  0  0  0  0  0  0  0
    4.1819   -0.1404    3.1264 H   0  0  0  0  0  0  0  0  0  0  0  0
    5.8355   -0.7709    2.9604 H   0  0  0  0  0  0  0  0  0  0  0  0
    4.5895    0.9033    1.0239 H   0  0  0  0  0  0  0  0  0  0  0  0
    5.9186   -0.2081    0.6765 H   0  0  0  0  0  0  0  0  0  0  0  0
    2.9403   -0.4525    0.2488 H   0  0  0  0  0  0  0  0  0  0  0  0
    3.7777   -1.9079   -1.0650 H   0  0  0  0  0  0  0  0  0  0  0  0
    6.2153   -1.4586   -2.2846 H   0  0  0  0  0  0  0  0  0  0  0  0
    6.3022   -2.0384   -0.6378 H   0  0  0  0  0  0  0  0  0  0  0  0
    6.2674   -3.8430   -2.2917 H   0  0  0  0  0  0  0  0  0  0  0  0
    4.9805   -2.7941   -4.0866 H   0  0  0  0  0  0  0  0  0  0  0  0
    4.2422   -4.3277   -3.6762 H   0  0  0  0  0  0  0  0  0  0  0  0
    2.5274   -2.5071   -3.8905 H   0  0  0  0  0  0  0  0  0  0  0  0
    1.4568   -2.8897   -1.6279 H   0  0  0  0  0  0  0  0  0  0  0  0
    1.8466   -4.2571   -2.5191 H   0  0  0  0  0  0  0  0  0  0  0  0
    2.6860   -5.0041   -0.5438 H   0  0  0  0  0  0  0  0  0  0  0  0
    4.7587   -5.3428   -1.2846 H   0  0  0  0  0  0  0  0  0  0  0  0
    5.1995   -4.2206   -0.0460 H   0  0  0  0  0  0  0  0  0  0  0  0
    1.8100   -2.8614    0.6339 H   0  0  0  0  0  0  0  0  0  0  0  0
    2.7909   -4.0564    1.4094 H   0  0  0  0  0  0  0  0  0  0  0  0
    2.5308   -0.6030   -2.3200 H   0  0  0  0  0  0  0  0  0  0  0  0
    3.9597   -0.5853   -3.3103 H   0  0  0  0  0  0  0  0  0  0  0  0
  1  2  2  0
  2 15  1  0
  2  3  1  0
  3  4  1  0
  3 17  1  0
  3 18  1  0
  4  5  1  0
  4 19  1  0
  4 20  1  0
  5 15  1  0
  5  6  1  0
  5 21  1  6
  6 16  1  0
  6  7  1  0
  6 22  1  6
  7  8  1  0
  7 23  1  0
  7 24  1  0
  8 13  1  0
  8  9  1  0
  8 25  1  6
  9 10  1  0
  9 26  1  0
  9 27  1  0
 10 11  1  0
 10 16  1  0
 10 28  1  6
 11 12  1  0
 11 29  1  0
 11 30  1  0
 12 13  1  0
 12 14  1  0
 12 31  1  1
 13 32  1  0
 13 33  1  0
 14 15  1  0
 14 34  1  0
 14 35  1  0
 16 36  1  0
 16 37  1  0
M  END
>  <i_m_ct_stereo_status>  (284) 
1

>  <s_m_source_file>  (284) 
/var/tmp/pbs.5076255.sched01/tmpnby3vxlc/96d7dj3887.sdf

>  <i_m_source_file_index>  (284) 
24

>  <i_lp_mmshare_version>  (284) 
48012

>  <i_f3d_flags>  (284) 
0

>  <s_epik_input>  (284) 
W0NIMl0xW0NIMl1DKD1PKU4yW0NIMl1bQ0BIXShbQ0gyXTMpW0NIMl1bQ0BASF0oW0NIMl00KVtDSDJdW0NASF0zW0NIMl1bQ0BASF00W0NASF0xMg==

>  <s_epik_cmdline>  (284) 
J2VwaWtfcHl0aG9uJywgJy1waHQnLCAnMi4wJywgJy1waCcsICc3LjAnLCAnLXRuJywgJzgnLCAnLW1hJywgJzIwMCcsICctaW1hZScsICc8aW5maWxlLm1hZT4nLCAnLW9tYWUnLCAnPG91dGZpbGUubWFlPic=

>  <r_lp_tautomer_probability>  (284) 
1

>  <r_epik_Ionization_Penalty>  (284) 
3.6684e-07

>  <r_epik_Ionization_Penalty_Charging>  (284) 
0

>  <r_epik_Ionization_Penalty_Neutral>  (284) 
3.6684e-07

>  <r_epik_State_Penalty>  (284) 
-0

>  <r_epik_Charging_Adjusted_Penalty>  (284) 
0

>  <i_epik_Tot_Q>  (284) 
0

>  <i_epik_Tot_abs_Q>  (284) 
0

>  <s_lp_Force_Field>  (284) 
OPLS3e

>  <r_lp_Energy>  (284) 
80.1752

>  <b_lp_Chiralities_Consistent>  (284) 
1

>  <s_lp_Variant>  (284) 
68:0-2

>  <s_i_glide_gridfile>  (284) 
pfpi4k_grid

>  <i_i_glide_lignum>  (284) 
24

>  <i_i_glide_rotatable_bonds>  (284) 
0

>  <r_i_docking_score>  (284) 
-3.73159

>  <r_i_glide_ligand_efficiency>  (284) 
-0.233224

>  <r_i_glide_ligand_efficiency_sa>  (284) 
-0.587689

>  <r_i_glide_ligand_efficiency_ln>  (284) 
-0.989133

>  <r_i_glide_gscore>  (284) 
-3.73159

>  <r_i_glide_lipo>  (284) 
-0.717034

>  <r_i_glide_hbond>  (284) 
0

>  <r_i_glide_metal>  (284) 
-0

>  <r_i_glide_rewards>  (284) 
-1.92776

>  <r_i_glide_evdw>  (284) 
-19.3055

>  <r_i_glide_ecoul>  (284) 
-0.715246

>  <r_i_glide_erotb>  (284) 
0

>  <r_i_glide_esite>  (284) 
-0.014234

>  <r_i_glide_emodel>  (284) 
-24.2516

>  <r_i_glide_energy>  (284) 
-20.0207

>  <r_i_glide_einternal>  (284) 
0

>  <r_i_glide_intrahb_reward>  (284) 
-0

>  <i_i_glide_confnum>  (284) 
1

>  <i_i_glide_posenum>  (284) 
22

>  <r_i_glide_eff_state_penalty>  (284) 
0

>  <ligand_id>  (284) 
68

>  <original_smiles>  (284) 
O=C1CCC2C3CC4CC(CC(C4)CN12)C3

>  <smiles>  (284) 
[H]C1([H])C(=O)N2C([H])([H])C3([H])C([H])([H])C4([H])C([H])([H])C([H])(C3([H])[H])C([H])([H])C([H])(C4([H])[H])C2([H])C1([H])[H]

$$$$
68:1:1
     RDKit          3D

 37 40  0  0  1  0  0  0  0  0999 V2000
    5.9032   -5.3965    2.8861 O   0  0  0  0  0  0  0  0  0  0  0  0
    4.8778   -5.0852    2.2682 C   0  0  0  0  0  0  0  0  0  0  0  0
    3.5142   -5.2573    2.8874 C   0  0  0  0  0  0  0  0  0  0  0  0
    2.5864   -4.5169    1.8956 C   0  0  0  0  0  0  0  0  0  0  0  0
    3.3978   -4.4130    0.5847 C   0  0  1  0  0  0  0  0  0  0  0  0
    3.1525   -3.0636   -0.1785 C   0  0  2  0  0  0  0  0  0  0  0  0
    3.5820   -1.7379    0.4668 C   0  0  0  0  0  0  0  0  0  0  0  0
    4.8793   -1.1855   -0.1821 C   0  0  2  0  0  0  0  0  0  0  0  0
    4.7017   -1.0056   -1.7115 C   0  0  0  0  0  0  0  0  0  0  0  0
    4.3922   -2.3669   -2.3462 C   0  0  1  0  0  0  0  0  0  0  0  0
    5.6676   -3.2746   -2.1775 C   0  0  0  0  0  0  0  0  0  0  0  0
    6.2927   -3.3496   -0.7240 C   0  0  1  0  0  0  0  0  0  0  0  0
    6.1648   -2.0264    0.0962 C   0  0  0  0  0  0  0  0  0  0  0  0
    5.9661   -4.6570    0.0718 C   0  0  0  0  0  0  0  0  0  0  0  0
    4.8203   -4.6114    1.0239 N   0  0  0  0  0  0  0  0  0  0  0  0
    3.0480   -2.9284   -1.7275 C   0  0  0  0  0  0  0  0  0  0  0  0
    3.2722   -6.3174    2.9128 H   0  0  0  0  0  0  0  0  0  0  0  0
    3.4585   -4.8548    3.8984 H   0  0  0  0  0  0  0  0  0  0  0  0
    1.6588   -5.0463    1.7428 H   0  0  0  0  0  0  0  0  0  0  0  0
    2.3635   -3.5279    2.2961 H   0  0  0  0  0  0  0  0  0  0  0  0
    3.1436   -5.2540   -0.0610 H   0  0  0  0  0  0  0  0  0  0  0  0
    4.0606   -3.3439   -0.4812 H   0  0  0  0  0  0  0  0  0  0  0  0
    2.7818   -1.0041    0.3298 H   0  0  0  0  0  0  0  0  0  0  0  0
    3.7112   -1.8277    1.5490 H   0  0  0  0  0  0  0  0  0  0  0  0
    5.0513   -0.1925    0.2614 H   0  0  0  0  0  0  0  0  0  0  0  0
    3.8934   -0.3068   -1.9202 H   0  0  0  0  0  0  0  0  0  0  0  0
    5.6062   -0.5841   -2.1424 H   0  0  0  0  0  0  0  0  0  0  0  0
    4.2263   -2.2298   -3.4247 H   0  0  0  0  0  0  0  0  0  0  0  0
    5.3756   -4.2781   -2.4927 H   0  0  0  0  0  0  0  0  0  0  0  0
    6.4260   -2.9679   -2.8747 H   0  0  0  0  0  0  0  0  0  0  0  0
    7.3838   -3.4438   -0.9187 H   0  0  0  0  0  0  0  0  0  0  0  0
    7.0284   -1.4132   -0.0621 H   0  0  0  0  0  0  0  0  0  0  0  0
    6.1815   -2.2590    1.1734 H   0  0  0  0  0  0  0  0  0  0  0  0
    5.7974   -5.4931   -0.6023 H   0  0  0  0  0  0  0  0  0  0  0  0
    6.8635   -4.9273    0.6161 H   0  0  0  0  0  0  0  0  0  0  0  0
    2.7841   -3.8592   -2.2127 H   0  0  0  0  0  0  0  0  0  0  0  0
    2.2395   -2.2508   -1.9745 H   0  0  0  0  0  0  0  0  0  0  0  0
  1  2  2  0
  2 15  1  0
  2  3  1  0
  3  4  1  0
  3 17  1  0
  3 18  1  0
  4  5  1  0
  4 19  1  0
  4 20  1  0
  5 15  1  0
  5  6  1  0
  5 21  1  6
  6 16  1  0
  6  7  1  0
  6 22  1  1
  7  8  1  0
  7 23  1  0
  7 24  1  0
  8 13  1  0
  8  9  1  0
  8 25  1  1
  9 10  1  0
  9 26  1  0
  9 27  1  0
 10 11  1  0
 10 16  1  0
 10 28  1  6
 11 12  1  0
 11 29  1  0
 11 30  1  0
 12 13  1  0
 12 14  1  0
 12 31  1  6
 13 32  1  0
 13 33  1  0
 14 15  1  0
 14 34  1  0
 14 35  1  0
 16 36  1  0
 16 37  1  0
M  END
>  <i_m_ct_stereo_status>  (285) 
1

>  <s_m_source_file>  (285) 
/var/tmp/pbs.5076255.sched01/tmpnby3vxlc/96d7dj3887.sdf

>  <i_m_source_file_index>  (285) 
24

>  <i_lp_mmshare_version>  (285) 
48012

>  <i_f3d_flags>  (285) 
0

>  <s_epik_input>  (285) 
W0NIMl0xW0NIMl1DKD1PKU4yW0NIMl1bQ0BIXShbQ0gyXTMpW0NIMl1bQ0BASF0oW0NIMl00KVtDSDJdW0NASF0zW0NIMl1bQ0BASF00W0NASF0xMg==

>  <s_epik_cmdline>  (285) 
J2VwaWtfcHl0aG9uJywgJy1waHQnLCAnMi4wJywgJy1waCcsICc3LjAnLCAnLXRuJywgJzgnLCAnLW1hJywgJzIwMCcsICctaW1hZScsICc8aW5maWxlLm1hZT4nLCAnLW9tYWUnLCAnPG91dGZpbGUubWFlPic=

>  <r_lp_tautomer_probability>  (285) 
1

>  <r_epik_Ionization_Penalty>  (285) 
3.6684e-07

>  <r_epik_Ionization_Penalty_Charging>  (285) 
0

>  <r_epik_Ionization_Penalty_Neutral>  (285) 
3.6684e-07

>  <r_epik_State_Penalty>  (285) 
-0

>  <r_epik_Charging_Adjusted_Penalty>  (285) 
0

>  <i_epik_Tot_Q>  (285) 
0

>  <i_epik_Tot_abs_Q>  (285) 
0

>  <s_lp_Force_Field>  (285) 
OPLS3e

>  <r_lp_Energy>  (285) 
80.1752

>  <b_lp_Chiralities_Consistent>  (285) 
1

>  <s_lp_Variant>  (285) 
68:0-2

>  <s_i_glide_gridfile>  (285) 
pfpi4k_grid

>  <i_i_glide_lignum>  (285) 
24

>  <i_i_glide_rotatable_bonds>  (285) 
0

>  <r_i_docking_score>  (285) 
-3.55278

>  <r_i_glide_ligand_efficiency>  (285) 
-0.222049

>  <r_i_glide_ligand_efficiency_sa>  (285) 
-0.559528

>  <r_i_glide_ligand_efficiency_ln>  (285) 
-0.941735

>  <r_i_glide_gscore>  (285) 
-3.55278

>  <r_i_glide_lipo>  (285) 
-0.474912

>  <r_i_glide_hbond>  (285) 
0

>  <r_i_glide_metal>  (285) 
-0

>  <r_i_glide_rewards>  (285) 
-1.98093

>  <r_i_glide_evdw>  (285) 
-20.2816

>  <r_i_glide_ecoul>  (285) 
-0.552347

>  <r_i_glide_erotb>  (285) 
0

>  <r_i_glide_esite>  (285) 
0

>  <r_i_glide_emodel>  (285) 
-25.078

>  <r_i_glide_energy>  (285) 
-20.834

>  <r_i_glide_einternal>  (285) 
0

>  <r_i_glide_intrahb_reward>  (285) 
-0

>  <i_i_glide_confnum>  (285) 
2

>  <i_i_glide_posenum>  (285) 
12

>  <r_i_glide_eff_state_penalty>  (285) 
0

>  <ligand_id>  (285) 
68

>  <original_smiles>  (285) 
O=C1CCC2C3CC4CC(CC(C4)CN12)C3

>  <smiles>  (285) 
[H]C1([H])C(=O)N2C([H])([H])C3([H])C([H])([H])C4([H])C([H])([H])C([H])(C3([H])[H])C([H])([H])C([H])(C4([H])[H])C2([H])C1([H])[H]

$$$$
68:1:2
     RDKit          3D

 37 40  0  0  1  0  0  0  0  0999 V2000
    7.1520   -5.8641    2.9186 O   0  0  0  0  0  0  0  0  0  0  0  0
    6.1766   -5.8717    2.1675 C   0  0  0  0  0  0  0  0  0  0  0  0
    5.0786   -6.9037    2.2867 C   0  0  0  0  0  0  0  0  0  0  0  0
    3.9857   -6.3738    1.3525 C   0  0  0  0  0  0  0  0  0  0  0  0
    4.6933   -5.3794    0.4142 C   0  0  1  0  0  0  0  0  0  0  0  0
    3.7946   -4.1419    0.0417 C   0  0  2  0  0  0  0  0  0  0  0  0
    3.3784   -3.1555    1.1504 C   0  0  0  0  0  0  0  0  0  0  0  0
    4.2090   -1.8351    1.0869 C   0  0  2  0  0  0  0  0  0  0  0  0
    4.0746   -1.1772   -0.3006 C   0  0  0  0  0  0  0  0  0  0  0  0
    4.6095   -2.1312   -1.3806 C   0  0  1  0  0  0  0  0  0  0  0  0
    6.1454   -2.3333   -1.1375 C   0  0  0  0  0  0  0  0  0  0  0  0
    6.6291   -2.6294    0.3398 C   0  0  1  0  0  0  0  0  0  0  0  0
    5.7138   -2.0058    1.4457 C   0  0  0  0  0  0  0  0  0  0  0  0
    7.0094   -4.1390    0.5871 C   0  0  0  0  0  0  0  0  0  0  0  0
    5.9595   -5.0361    1.1420 N   0  0  0  0  0  0  0  0  0  0  0  0
    3.7640   -3.4604   -1.3563 C   0  0  0  0  0  0  0  0  0  0  0  0
    5.4686   -7.8609    1.9355 H   0  0  0  0  0  0  0  0  0  0  0  0
    4.7445   -7.0245    3.3210 H   0  0  0  0  0  0  0  0  0  0  0  0
    3.5018   -7.1724    0.7941 H   0  0  0  0  0  0  0  0  0  0  0  0
    3.2232   -5.8740    1.9532 H   0  0  0  0  0  0  0  0  0  0  0  0
    4.9914   -5.9007   -0.4974 H   0  0  0  0  0  0  0  0  0  0  0  0
    4.7340   -3.8048   -0.0466 H   0  0  0  0  0  0  0  0  0  0  0  0
    2.3238   -2.9102    1.0068 H   0  0  0  0  0  0  0  0  0  0  0  0
    3.4514   -3.5975    2.1420 H   0  0  0  0  0  0  0  0  0  0  0  0
    3.7725   -1.1662    1.8296 H   0  0  0  0  0  0  0  0  0  0  0  0
    3.0301   -0.9391   -0.5009 H   0  0  0  0  0  0  0  0  0  0  0  0
    4.6299   -0.2355   -0.3201 H   0  0  0  0  0  0  0  0  0  0  0  0
    4.4794   -1.6762   -2.3643 H   0  0  0  0  0  0  0  0  0  0  0  0
    6.4983   -3.1115   -1.8100 H   0  0  0  0  0  0  0  0  0  0  0  0
    6.6384   -1.4413   -1.4829 H   0  0  0  0  0  0  0  0  0  0  0  0
    7.5855   -2.1103    0.4347 H   0  0  0  0  0  0  0  0  0  0  0  0
    6.1132   -1.0270    1.7164 H   0  0  0  0  0  0  0  0  0  0  0  0
    5.7808   -2.5991    2.3563 H   0  0  0  0  0  0  0  0  0  0  0  0
    7.4076   -4.5945   -0.3144 H   0  0  0  0  0  0  0  0  0  0  0  0
    7.8622   -4.1212    1.2674 H   0  0  0  0  0  0  0  0  0  0  0  0
    4.1177   -4.1401   -2.1338 H   0  0  0  0  0  0  0  0  0  0  0  0
    2.7317   -3.2228   -1.6053 H   0  0  0  0  0  0  0  0  0  0  0  0
  1  2  2  0
  2 15  1  0
  2  3  1  0
  3  4  1  0
  3 17  1  0
  3 18  1  0
  4  5  1  0
  4 19  1  0
  4 20  1  0
  5 15  1  0
  5  6  1  0
  5 21  1  6
  6 16  1  0
  6  7  1  0
  6 22  1  6
  7  8  1  0
  7 23  1  0
  7 24  1  0
  8 13  1  0
  8  9  1  0
  8 25  1  1
  9 10  1  0
  9 26  1  0
  9 27  1  0
 10 11  1  0
 10 16  1  0
 10 28  1  6
 11 12  1  0
 11 29  1  0
 11 30  1  0
 12 13  1  0
 12 14  1  0
 12 31  1  6
 13 32  1  0
 13 33  1  0
 14 15  1  0
 14 34  1  0
 14 35  1  0
 16 36  1  0
 16 37  1  0
M  END
>  <i_m_ct_stereo_status>  (286) 
1

>  <s_m_source_file>  (286) 
/var/tmp/pbs.5076255.sched01/tmpnby3vxlc/96d7dj3887.sdf

>  <i_m_source_file_index>  (286) 
24

>  <i_lp_mmshare_version>  (286) 
48012

>  <i_f3d_flags>  (286) 
0

>  <s_epik_input>  (286) 
W0NIMl0xW0NIMl1DKD1PKU4yW0NIMl1bQ0BIXShbQ0gyXTMpW0NIMl1bQ0BASF0oW0NIMl00KVtDSDJdW0NASF0zW0NIMl1bQ0BASF00W0NASF0xMg==

>  <s_epik_cmdline>  (286) 
J2VwaWtfcHl0aG9uJywgJy1waHQnLCAnMi4wJywgJy1waCcsICc3LjAnLCAnLXRuJywgJzgnLCAnLW1hJywgJzIwMCcsICctaW1hZScsICc8aW5maWxlLm1hZT4nLCAnLW9tYWUnLCAnPG91dGZpbGUubWFlPic=

>  <r_lp_tautomer_probability>  (286) 
1

>  <r_epik_Ionization_Penalty>  (286) 
3.6684e-07

>  <r_epik_Ionization_Penalty_Charging>  (286) 
0

>  <r_epik_Ionization_Penalty_Neutral>  (286) 
3.6684e-07

>  <r_epik_State_Penalty>  (286) 
-0

>  <r_epik_Charging_Adjusted_Penalty>  (286) 
0

>  <i_epik_Tot_Q>  (286) 
0

>  <i_epik_Tot_abs_Q>  (286) 
0

>  <s_lp_Force_Field>  (286) 
OPLS3e

>  <r_lp_Energy>  (286) 
80.1752

>  <b_lp_Chiralities_Consistent>  (286) 
1

>  <s_lp_Variant>  (286) 
68:0-2

>  <s_i_glide_gridfile>  (286) 
pfpi4k_grid

>  <i_i_glide_lignum>  (286) 
24

>  <i_i_glide_rotatable_bonds>  (286) 
0

>  <r_i_docking_score>  (286) 
-3.50681

>  <r_i_glide_ligand_efficiency>  (286) 
-0.219175

>  <r_i_glide_ligand_efficiency_sa>  (286) 
-0.552288

>  <r_i_glide_ligand_efficiency_ln>  (286) 
-0.929549

>  <r_i_glide_gscore>  (286) 
-3.50681

>  <r_i_glide_lipo>  (286) 
-0.487638

>  <r_i_glide_hbond>  (286) 
0

>  <r_i_glide_metal>  (286) 
-0

>  <r_i_glide_rewards>  (286) 
-2.08244

>  <r_i_glide_evdw>  (286) 
-19.3993

>  <r_i_glide_ecoul>  (286) 
0.22157

>  <r_i_glide_erotb>  (286) 
0

>  <r_i_glide_esite>  (286) 
0

>  <r_i_glide_emodel>  (286) 
-23.4068

>  <r_i_glide_energy>  (286) 
-19.1777

>  <r_i_glide_einternal>  (286) 
0

>  <r_i_glide_intrahb_reward>  (286) 
-0

>  <i_i_glide_confnum>  (286) 
2

>  <i_i_glide_posenum>  (286) 
14

>  <r_i_glide_eff_state_penalty>  (286) 
0

>  <ligand_id>  (286) 
68

>  <original_smiles>  (286) 
O=C1CCC2C3CC4CC(CC(C4)CN12)C3

>  <smiles>  (286) 
[H]C1([H])C(=O)N2C([H])([H])C3([H])C([H])([H])C4([H])C([H])([H])C([H])(C3([H])[H])C([H])([H])C([H])(C4([H])[H])C2([H])C1([H])[H]

$$$$
69:0:0
     RDKit          3D

 81 85  0  0  1  0  0  0  0  0999 V2000
    1.9258   -9.1506    7.8880 C   0  0  0  0  0  0  0  0  0  0  0  0
    1.2499   -7.8043    7.5902 C   0  0  0  0  0  0  0  0  0  0  0  0
    0.1299   -7.6267    8.6366 C   0  0  0  0  0  0  0  0  0  0  0  0
    2.2349   -6.6375    7.7849 C   0  0  0  0  0  0  0  0  0  0  0  0
    3.1684   -6.4661    6.5890 C   0  0  0  0  0  0  0  0  0  0  0  0
    2.3414   -6.0933    5.3419 C   0  0  1  0  0  0  0  0  0  0  0  0
    3.2096   -5.5630    4.1903 C   0  0  0  0  0  0  0  0  0  0  0  0
    3.3856   -4.2330    4.1006 C   0  0  0  0  0  0  0  0  0  0  0  0
    4.1626   -3.5151    3.0280 C   0  0  0  0  0  0  0  0  0  0  0  0
    4.9070   -4.4003    1.9886 C   0  0  2  0  0  0  0  0  0  0  0  0
    5.3181   -3.5995    0.6604 C   0  0  2  0  0  0  0  0  0  0  0  0
    6.7326   -4.0876    0.2556 C   0  0  0  0  0  0  0  0  0  0  0  0
    5.4724   -2.0681    0.9531 C   0  0  0  0  0  0  0  0  0  0  0  0
    5.6558   -1.1787   -0.2771 C   0  0  0  0  0  0  0  0  0  0  0  0
    4.4654   -1.3374   -1.2218 C   0  0  1  0  0  0  0  0  0  0  0  0
    4.6475   -0.4477   -2.3149 O   0  0  0  0  0  0  0  0  0  0  0  0
    4.3011   -2.7871   -1.7190 C   0  0  0  0  0  0  0  0  0  0  0  0
    2.9954   -2.8447   -2.5580 C   0  0  0  0  0  0  0  0  0  0  0  0
    5.4184   -3.1666   -2.7263 C   0  0  0  0  0  0  0  0  0  0  0  0
    4.2813   -3.8263   -0.5175 C   0  0  2  0  0  0  0  0  0  0  0  0
    2.8872   -4.1375    0.0746 C   0  0  0  0  0  0  0  0  0  0  0  0
    2.8440   -5.3924    0.9897 C   0  0  0  0  0  0  0  0  0  0  0  0
    4.1480   -5.7629    1.7648 C   0  0  1  0  0  0  0  0  0  0  0  0
    5.0008   -6.7358    0.9004 C   0  0  0  0  0  0  0  0  0  0  0  0
    3.8204   -6.5184    3.1531 C   0  0  1  0  0  0  0  0  0  0  0  0
    5.1222   -7.0632    3.7960 C   0  0  0  0  0  0  0  0  0  0  0  0
    2.8739   -7.7519    2.9319 C   0  0  0  0  0  0  0  0  0  0  0  0
    2.1602   -8.3095    4.1857 C   0  0  0  0  0  0  0  0  0  0  0  0
    1.3641   -7.2259    4.9452 C   0  0  2  0  0  0  0  0  0  0  0  0
    0.2676   -6.6521    4.0079 C   0  0  0  0  0  0  0  0  0  0  0  0
    0.5704   -7.7467    6.1887 C   0  0  0  0  0  0  0  0  0  0  0  0
    2.3396   -9.1702    8.8920 H   0  0  0  0  0  0  0  0  0  0  0  0
    2.7318   -9.3763    7.2027 H   0  0  0  0  0  0  0  0  0  0  0  0
    1.2134   -9.9672    7.8388 H   0  0  0  0  0  0  0  0  0  0  0  0
   -0.3841   -6.6657    8.4904 H   0  0  0  0  0  0  0  0  0  0  0  0
    0.5026   -7.6401    9.6637 H   0  0  0  0  0  0  0  0  0  0  0  0
   -0.6272   -8.4112    8.5368 H   0  0  0  0  0  0  0  0  0  0  0  0
    1.6917   -5.7039    7.9564 H   0  0  0  0  0  0  0  0  0  0  0  0
    2.8297   -6.8122    8.6853 H   0  0  0  0  0  0  0  0  0  0  0  0
    3.8879   -5.6794    6.8123 H   0  0  0  0  0  0  0  0  0  0  0  0
    3.7440   -7.3775    6.4564 H   0  0  0  0  0  0  0  0  0  0  0  0
    1.7157   -5.2539    5.6553 H   0  0  0  0  0  0  0  0  0  0  0  0
    2.9464   -3.5802    4.8392 H   0  0  0  0  0  0  0  0  0  0  0  0
    3.4027   -2.8892    2.5683 H   0  0  0  0  0  0  0  0  0  0  0  0
    4.8810   -2.8568    3.5253 H   0  0  0  0  0  0  0  0  0  0  0  0
    5.8333   -4.6589    2.4989 H   0  0  0  0  0  0  0  0  0  0  0  0
    7.2435   -3.4374   -0.4458 H   0  0  0  0  0  0  0  0  0  0  0  0
    6.6973   -5.0689   -0.1929 H   0  0  0  0  0  0  0  0  0  0  0  0
    7.4054   -4.1676    1.1057 H   0  0  0  0  0  0  0  0  0  0  0  0
    4.5875   -1.6460    1.4205 H   0  0  0  0  0  0  0  0  0  0  0  0
    6.2992   -1.8931    1.6417 H   0  0  0  0  0  0  0  0  0  0  0  0
    5.7206   -0.1424    0.0565 H   0  0  0  0  0  0  0  0  0  0  0  0
    6.5920   -1.3889   -0.7827 H   0  0  0  0  0  0  0  0  0  0  0  0
    3.5559   -1.0367   -0.6996 H   0  0  0  0  0  0  0  0  0  0  0  0
    4.6133    0.4283   -1.9819 H   0  0  0  0  0  0  0  0  0  0  0  0
    2.7546   -3.8546   -2.8861 H   0  0  0  0  0  0  0  0  0  0  0  0
    3.0456   -2.2248   -3.4581 H   0  0  0  0  0  0  0  0  0  0  0  0
    2.1490   -2.4666   -1.9809 H   0  0  0  0  0  0  0  0  0  0  0  0
    5.3638   -4.2151   -3.0202 H   0  0  0  0  0  0  0  0  0  0  0  0
    6.4211   -2.9866   -2.3480 H   0  0  0  0  0  0  0  0  0  0  0  0
    5.3380   -2.5842   -3.6414 H   0  0  0  0  0  0  0  0  0  0  0  0
    4.5377   -4.7528   -1.0215 H   0  0  0  0  0  0  0  0  0  0  0  0
    2.5356   -3.2628    0.6266 H   0  0  0  0  0  0  0  0  0  0  0  0
    2.1429   -4.3106   -0.6972 H   0  0  0  0  0  0  0  0  0  0  0  0
    2.0115   -5.2628    1.6727 H   0  0  0  0  0  0  0  0  0  0  0  0
    2.5765   -6.2418    0.3545 H   0  0  0  0  0  0  0  0  0  0  0  0
    4.6550   -7.7626    0.9458 H   0  0  0  0  0  0  0  0  0  0  0  0
    6.0400   -6.7472    1.2215 H   0  0  0  0  0  0  0  0  0  0  0  0
    5.0013   -6.5154   -0.1560 H   0  0  0  0  0  0  0  0  0  0  0  0
    5.6494   -7.7768    3.1708 H   0  0  0  0  0  0  0  0  0  0  0  0
    4.9264   -7.6002    4.7168 H   0  0  0  0  0  0  0  0  0  0  0  0
    5.8152   -6.2618    4.0491 H   0  0  0  0  0  0  0  0  0  0  0  0
    2.1053   -7.5296    2.1993 H   0  0  0  0  0  0  0  0  0  0  0  0
    3.4229   -8.5780    2.4888 H   0  0  0  0  0  0  0  0  0  0  0  0
    1.4948   -9.1203    3.8923 H   0  0  0  0  0  0  0  0  0  0  0  0
    2.8911   -8.7708    4.8444 H   0  0  0  0  0  0  0  0  0  0  0  0
   -0.3867   -7.4482    3.6408 H   0  0  0  0  0  0  0  0  0  0  0  0
    0.6763   -6.1319    3.1453 H   0  0  0  0  0  0  0  0  0  0  0  0
   -0.3621   -5.9178    4.5224 H   0  0  0  0  0  0  0  0  0  0  0  0
    0.2142   -8.7536    5.9560 H   0  0  0  0  0  0  0  0  0  0  0  0
   -0.3460   -7.1764    6.2839 H   0  0  0  0  0  0  0  0  0  0  0  0
  1  2  1  0
  1 32  1  0
  1 33  1  0
  1 34  1  0
  2 31  1  0
  2  3  1  0
  2  4  1  0
  3 35  1  0
  3 36  1  0
  3 37  1  0
  4  5  1  0
  4 38  1  0
  4 39  1  0
  5  6  1  0
  5 40  1  0
  5 41  1  0
  6 29  1  0
  6  7  1  0
  6 42  1  1
  7 25  1  0
  7  8  2  0
  8  9  1  0
  8 43  1  0
  9 10  1  0
  9 44  1  0
  9 45  1  0
 10 23  1  0
 10 11  1  0
 10 46  1  1
 11 20  1  0
 11 12  1  6
 11 13  1  0
 12 47  1  0
 12 48  1  0
 12 49  1  0
 13 14  1  0
 13 50  1  0
 13 51  1  0
 14 15  1  0
 14 52  1  0
 14 53  1  0
 15 16  1  0
 15 17  1  0
 15 54  1  1
 16 55  1  0
 17 18  1  0
 17 19  1  0
 17 20  1  0
 18 56  1  0
 18 57  1  0
 18 58  1  0
 19 59  1  0
 19 60  1  0
 19 61  1  0
 20 21  1  0
 20 62  1  6
 21 22  1  0
 21 63  1  0
 21 64  1  0
 22 23  1  0
 22 65  1  0
 22 66  1  0
 23 24  1  6
 23 25  1  0
 24 67  1  0
 24 68  1  0
 24 69  1  0
 25 26  1  1
 25 27  1  0
 26 70  1  0
 26 71  1  0
 26 72  1  0
 27 28  1  0
 27 73  1  0
 27 74  1  0
 28 29  1  0
 28 75  1  0
 28 76  1  0
 29 30  1  6
 29 31  1  0
 30 77  1  0
 30 78  1  0
 30 79  1  0
 31 80  1  0
 31 81  1  0
M  END
>  <i_m_ct_stereo_status>  (287) 
1

>  <s_m_source_file>  (287) 
/var/tmp/pbs.5076255.sched01/tmpnby3vxlc/96d7dj3887.sdf

>  <i_m_source_file_index>  (287) 
25

>  <i_lp_mmshare_version>  (287) 
48012

>  <i_f3d_flags>  (287) 
0

>  <s_epik_input>  (287) 
W0NIMl0xW0NIMl1DKFtDSDNdKShbQ0gzXSlbQ0gyXVtDQF0oW0NIM10pKFtDSDJdW0NIMl0yKVtDQEBIXTFDKD1bQ0hdW0NIMl0zKVtDQF0yKFtDSDNdKVtDQF0oW0NIM10pKFtDQEhdM1tDQF00NVtDSDNdKVtDSDJdW0NIMl1bQ0BIXTVDKFtDSDNdKShbQ0gzXSlbQ0BIXShbT0hdKVtDSDJdW0NIMl00

>  <s_epik_cmdline>  (287) 
J2VwaWtfcHl0aG9uJywgJy1waHQnLCAnMi4wJywgJy1waCcsICc3LjAnLCAnLXRuJywgJzgnLCAnLW1hJywgJzIwMCcsICctaW1hZScsICc8aW5maWxlLm1hZT4nLCAnLW9tYWUnLCAnPG91dGZpbGUubWFlPic=

>  <r_lp_tautomer_probability>  (287) 
1

>  <r_epik_Ionization_Penalty>  (287) 
2.97739e-06

>  <r_epik_Ionization_Penalty_Charging>  (287) 
0

>  <r_epik_Ionization_Penalty_Neutral>  (287) 
2.97739e-06

>  <r_epik_State_Penalty>  (287) 
-0

>  <r_epik_Charging_Adjusted_Penalty>  (287) 
0

>  <i_epik_Tot_Q>  (287) 
0

>  <i_epik_Tot_abs_Q>  (287) 
0

>  <s_lp_Force_Field>  (287) 
OPLS3e

>  <r_lp_Energy>  (287) 
99.8973

>  <b_lp_Chiralities_Consistent>  (287) 
1

>  <s_lp_Variant>  (287) 
69:0-1

>  <s_i_glide_gridfile>  (287) 
pfpi4k_grid

>  <i_i_glide_lignum>  (287) 
25

>  <i_i_glide_rotatable_bonds>  (287) 
1

>  <r_i_docking_score>  (287) 
-3.31123

>  <r_i_glide_ligand_efficiency>  (287) 
-0.106814

>  <r_i_glide_ligand_efficiency_sa>  (287) 
-0.335543

>  <r_i_glide_ligand_efficiency_ln>  (287) 
-0.746784

>  <r_i_glide_gscore>  (287) 
-3.31123

>  <r_i_glide_lipo>  (287) 
-0.598974

>  <r_i_glide_hbond>  (287) 
-0.32

>  <r_i_glide_metal>  (287) 
-0

>  <r_i_glide_rewards>  (287) 
-0.499654

>  <r_i_glide_evdw>  (287) 
-31.2117

>  <r_i_glide_ecoul>  (287) 
-2.21345

>  <r_i_glide_erotb>  (287) 
0

>  <r_i_glide_esite>  (287) 
0

>  <r_i_glide_emodel>  (287) 
-39.4001

>  <r_i_glide_energy>  (287) 
-33.4251

>  <r_i_glide_einternal>  (287) 
0.330544

>  <r_i_glide_intrahb_reward>  (287) 
-0

>  <i_i_glide_confnum>  (287) 
1

>  <i_i_glide_posenum>  (287) 
19

>  <r_i_glide_eff_state_penalty>  (287) 
0

>  <ligand_id>  (287) 
69

>  <original_smiles>  (287) 
CC1(C)CCC2C3=CCC4C5(C)CCC(O)C(C)(C)C5CCC4(C)C3(C)CCC2(C)C1

>  <smiles>  (287) 
[H]OC1([H])C([H])([H])C([H])([H])C2(C([H])([H])[H])C([H])(C([H])([H])C([H])([H])C3(C([H])([H])[H])C2([H])C([H])([H])C([H])=C2C4([H])C([H])([H])C([H])([H])C(C([H])([H])[H])(C([H])([H])[H])C([H])([H])C4(C([H])([H])[H])C([H])([H])C([H])([H])C23C([H])([H])[H])C1(C([H])([H])[H])C([H])([H])[H]

$$$$
69:0:1
     RDKit          3D

 81 85  0  0  1  0  0  0  0  0999 V2000
    2.1625   -8.9505    7.7996 C   0  0  0  0  0  0  0  0  0  0  0  0
    1.3501   -7.6833    7.4566 C   0  0  0  0  0  0  0  0  0  0  0  0
    0.2135   -7.5774    8.4926 C   0  0  0  0  0  0  0  0  0  0  0  0
    2.2217   -6.4219    7.6029 C   0  0  0  0  0  0  0  0  0  0  0  0
    3.1331   -6.1954    6.4003 C   0  0  0  0  0  0  0  0  0  0  0  0
    2.2792   -5.9599    5.1443 C   0  0  1  0  0  0  0  0  0  0  0  0
    3.0857   -5.3775    3.9708 C   0  0  0  0  0  0  0  0  0  0  0  0
    3.1361   -4.0458    3.8267 C   0  0  0  0  0  0  0  0  0  0  0  0
    3.8411   -3.2917    2.7299 C   0  0  0  0  0  0  0  0  0  0  0  0
    4.6740   -4.1406    1.7196 C   0  0  2  0  0  0  0  0  0  0  0  0
    5.0037   -3.3523    0.3607 C   0  0  2  0  0  0  0  0  0  0  0  0
    6.4601   -3.6988   -0.0484 C   0  0  0  0  0  0  0  0  0  0  0  0
    5.0000   -1.8097    0.5932 C   0  0  0  0  0  0  0  0  0  0  0  0
    5.0959   -0.9582   -0.6701 C   0  0  0  0  0  0  0  0  0  0  0  0
    3.9363   -1.2681   -1.6138 C   0  0  1  0  0  0  0  0  0  0  0  0
    4.0101   -0.3962   -2.7328 O   0  0  0  0  0  0  0  0  0  0  0  0
    3.9085   -2.7503   -2.0552 C   0  0  0  0  0  0  0  0  0  0  0  0
    2.6119   -2.9514   -2.8824 C   0  0  0  0  0  0  0  0  0  0  0  0
    5.0684   -3.0468   -3.0394 C   0  0  0  0  0  0  0  0  0  0  0  0
    3.9922   -3.7275   -0.8052 C   0  0  2  0  0  0  0  0  0  0  0  0
    2.6360   -4.1440   -0.1908 C   0  0  0  0  0  0  0  0  0  0  0  0
    2.7195   -5.3705    0.7580 C   0  0  0  0  0  0  0  0  0  0  0  0
    4.0491   -5.5731    1.5512 C   0  0  1  0  0  0  0  0  0  0  0  0
    5.0061   -6.4878    0.7246 C   0  0  0  0  0  0  0  0  0  0  0  0
    3.7992   -6.3111    2.9658 C   0  0  1  0  0  0  0  0  0  0  0  0
    5.1468   -6.6956    3.6299 C   0  0  0  0  0  0  0  0  0  0  0  0
    2.9792   -7.6386    2.7913 C   0  0  0  0  0  0  0  0  0  0  0  0
    2.3258   -8.2204    4.0680 C   0  0  0  0  0  0  0  0  0  0  0  0
    1.4158   -7.1929    4.7848 C   0  0  2  0  0  0  0  0  0  0  0  0
    0.2735   -6.7699    3.8291 C   0  0  0  0  0  0  0  0  0  0  0  0
    0.6804   -7.7627    6.0486 C   0  0  0  0  0  0  0  0  0  0  0  0
    2.5727   -8.8878    8.8063 H   0  0  0  0  0  0  0  0  0  0  0  0
    2.9928   -9.1117    7.1246 H   0  0  0  0  0  0  0  0  0  0  0  0
    1.5423   -9.8448    7.7800 H   0  0  0  0  0  0  0  0  0  0  0  0
   -0.3870   -6.6771    8.3101 H   0  0  0  0  0  0  0  0  0  0  0  0
    0.5828   -7.5157    9.5189 H   0  0  0  0  0  0  0  0  0  0  0  0
   -0.4720   -8.4298    8.4280 H   0  0  0  0  0  0  0  0  0  0  0  0
    1.5852   -5.5397    7.7366 H   0  0  0  0  0  0  0  0  0  0  0  0
    2.8234   -6.4969    8.5081 H   0  0  0  0  0  0  0  0  0  0  0  0
    3.7684   -5.3335    6.5918 H   0  0  0  0  0  0  0  0  0  0  0  0
    3.7999   -7.0488    6.3004 H   0  0  0  0  0  0  0  0  0  0  0  0
    1.5697   -5.1742    5.4248 H   0  0  0  0  0  0  0  0  0  0  0  0
    2.6280   -3.4163    4.5430 H   0  0  0  0  0  0  0  0  0  0  0  0
    3.0233   -2.7618    2.2488 H   0  0  0  0  0  0  0  0  0  0  0  0
    4.4852   -2.5471    3.2008 H   0  0  0  0  0  0  0  0  0  0  0  0
    5.6202   -4.2818    2.2394 H   0  0  0  0  0  0  0  0  0  0  0  0
    6.9095   -2.9928   -0.7371 H   0  0  0  0  0  0  0  0  0  0  0  0
    6.5154   -4.6570   -0.5365 H   0  0  0  0  0  0  0  0  0  0  0  0
    7.1371   -3.7264    0.8044 H   0  0  0  0  0  0  0  0  0  0  0  0
    4.0760   -1.4582    1.0450 H   0  0  0  0  0  0  0  0  0  0  0  0
    5.8019   -1.5206    1.2765 H   0  0  0  0  0  0  0  0  0  0  0  0
    5.0256    0.0833   -0.3566 H   0  0  0  0  0  0  0  0  0  0  0  0
    6.0529   -1.0613   -1.1758 H   0  0  0  0  0  0  0  0  0  0  0  0
    3.0169   -1.0540   -1.0754 H   0  0  0  0  0  0  0  0  0  0  0  0
    3.2688    0.1932   -2.7019 H   0  0  0  0  0  0  0  0  0  0  0  0
    2.4668   -3.9837   -3.1865 H   0  0  0  0  0  0  0  0  0  0  0  0
    2.6061   -2.3605   -3.8006 H   0  0  0  0  0  0  0  0  0  0  0  0
    1.7272   -2.6465   -2.3232 H   0  0  0  0  0  0  0  0  0  0  0  0
    5.1250   -4.1051   -3.2967 H   0  0  0  0  0  0  0  0  0  0  0  0
    6.0427   -2.7494   -2.6649 H   0  0  0  0  0  0  0  0  0  0  0  0
    4.9337   -2.5006   -3.9700 H   0  0  0  0  0  0  0  0  0  0  0  0
    4.3418   -4.6405   -1.2655 H   0  0  0  0  0  0  0  0  0  0  0  0
    2.2059   -3.2885    0.3221 H   0  0  0  0  0  0  0  0  0  0  0  0
    1.9134   -4.4175   -0.9576 H   0  0  0  0  0  0  0  0  0  0  0  0
    1.8777   -5.2911    1.4436 H   0  0  0  0  0  0  0  0  0  0  0  0
    2.5383   -6.2593    0.1613 H   0  0  0  0  0  0  0  0  0  0  0  0
    4.7633   -7.5399    0.8074 H   0  0  0  0  0  0  0  0  0  0  0  0
    6.0412   -6.3796    1.0471 H   0  0  0  0  0  0  0  0  0  0  0  0
    4.9934   -6.3059   -0.3370 H   0  0  0  0  0  0  0  0  0  0  0  0
    5.7451   -7.3764    3.0302 H   0  0  0  0  0  0  0  0  0  0  0  0
    5.0030   -7.2168    4.5717 H   0  0  0  0  0  0  0  0  0  0  0  0
    5.7547   -5.8193    3.8527 H   0  0  0  0  0  0  0  0  0  0  0  0
    2.1958   -7.5214    2.0534 H   0  0  0  0  0  0  0  0  0  0  0  0
    3.6123   -8.4231    2.3782 H   0  0  0  0  0  0  0  0  0  0  0  0
    1.7457   -9.1041    3.8054 H   0  0  0  0  0  0  0  0  0  0  0  0
    3.0980   -8.5783    4.7417 H   0  0  0  0  0  0  0  0  0  0  0  0
   -0.2970   -7.6396    3.4917 H   0  0  0  0  0  0  0  0  0  0  0  0
    0.6284   -6.2423    2.9459 H   0  0  0  0  0  0  0  0  0  0  0  0
   -0.4294   -6.0844    4.3176 H   0  0  0  0  0  0  0  0  0  0  0  0
    0.4294   -8.8019    5.8526 H   0  0  0  0  0  0  0  0  0  0  0  0
   -0.2904   -7.2678    6.1257 H   0  0  0  0  0  0  0  0  0  0  0  0
  1  2  1  0
  1 32  1  0
  1 33  1  0
  1 34  1  0
  2 31  1  0
  2  3  1  0
  2  4  1  0
  3 35  1  0
  3 36  1  0
  3 37  1  0
  4  5  1  0
  4 38  1  0
  4 39  1  0
  5  6  1  0
  5 40  1  0
  5 41  1  0
  6 29  1  0
  6  7  1  0
  6 42  1  1
  7 25  1  0
  7  8  2  0
  8  9  1  0
  8 43  1  0
  9 10  1  0
  9 44  1  0
  9 45  1  0
 10 23  1  0
 10 11  1  0
 10 46  1  1
 11 20  1  0
 11 12  1  6
 11 13  1  0
 12 47  1  0
 12 48  1  0
 12 49  1  0
 13 14  1  0
 13 50  1  0
 13 51  1  0
 14 15  1  0
 14 52  1  0
 14 53  1  0
 15 16  1  0
 15 17  1  0
 15 54  1  1
 16 55  1  0
 17 18  1  0
 17 19  1  0
 17 20  1  0
 18 56  1  0
 18 57  1  0
 18 58  1  0
 19 59  1  0
 19 60  1  0
 19 61  1  0
 20 21  1  0
 20 62  1  6
 21 22  1  0
 21 63  1  0
 21 64  1  0
 22 23  1  0
 22 65  1  0
 22 66  1  0
 23 24  1  6
 23 25  1  0
 24 67  1  0
 24 68  1  0
 24 69  1  0
 25 26  1  1
 25 27  1  0
 26 70  1  0
 26 71  1  0
 26 72  1  0
 27 28  1  0
 27 73  1  0
 27 74  1  0
 28 29  1  0
 28 75  1  0
 28 76  1  0
 29 30  1  6
 29 31  1  0
 30 77  1  0
 30 78  1  0
 30 79  1  0
 31 80  1  0
 31 81  1  0
M  END
>  <i_m_ct_stereo_status>  (288) 
1

>  <s_m_source_file>  (288) 
/var/tmp/pbs.5076255.sched01/tmpnby3vxlc/96d7dj3887.sdf

>  <i_m_source_file_index>  (288) 
25

>  <i_lp_mmshare_version>  (288) 
48012

>  <i_f3d_flags>  (288) 
0

>  <s_epik_input>  (288) 
W0NIMl0xW0NIMl1DKFtDSDNdKShbQ0gzXSlbQ0gyXVtDQF0oW0NIM10pKFtDSDJdW0NIMl0yKVtDQEBIXTFDKD1bQ0hdW0NIMl0zKVtDQF0yKFtDSDNdKVtDQF0oW0NIM10pKFtDQEhdM1tDQF00NVtDSDNdKVtDSDJdW0NIMl1bQ0BIXTVDKFtDSDNdKShbQ0gzXSlbQ0BIXShbT0hdKVtDSDJdW0NIMl00

>  <s_epik_cmdline>  (288) 
J2VwaWtfcHl0aG9uJywgJy1waHQnLCAnMi4wJywgJy1waCcsICc3LjAnLCAnLXRuJywgJzgnLCAnLW1hJywgJzIwMCcsICctaW1hZScsICc8aW5maWxlLm1hZT4nLCAnLW9tYWUnLCAnPG91dGZpbGUubWFlPic=

>  <r_lp_tautomer_probability>  (288) 
1

>  <r_epik_Ionization_Penalty>  (288) 
2.97739e-06

>  <r_epik_Ionization_Penalty_Charging>  (288) 
0

>  <r_epik_Ionization_Penalty_Neutral>  (288) 
2.97739e-06

>  <r_epik_State_Penalty>  (288) 
-0

>  <r_epik_Charging_Adjusted_Penalty>  (288) 
0

>  <i_epik_Tot_Q>  (288) 
0

>  <i_epik_Tot_abs_Q>  (288) 
0

>  <s_lp_Force_Field>  (288) 
OPLS3e

>  <r_lp_Energy>  (288) 
99.8973

>  <b_lp_Chiralities_Consistent>  (288) 
1

>  <s_lp_Variant>  (288) 
69:0-1

>  <s_i_glide_gridfile>  (288) 
pfpi4k_grid

>  <i_i_glide_lignum>  (288) 
25

>  <i_i_glide_rotatable_bonds>  (288) 
1

>  <r_i_docking_score>  (288) 
-2.93893

>  <r_i_glide_ligand_efficiency>  (288) 
-0.0948042

>  <r_i_glide_ligand_efficiency_sa>  (288) 
-0.297816

>  <r_i_glide_ligand_efficiency_ln>  (288) 
-0.662819

>  <r_i_glide_gscore>  (288) 
-2.93893

>  <r_i_glide_lipo>  (288) 
-0.574924

>  <r_i_glide_hbond>  (288) 
0

>  <r_i_glide_metal>  (288) 
-0

>  <r_i_glide_rewards>  (288) 
-0.499654

>  <r_i_glide_evdw>  (288) 
-31.712

>  <r_i_glide_ecoul>  (288) 
-1.85833

>  <r_i_glide_erotb>  (288) 
0

>  <r_i_glide_esite>  (288) 
0

>  <r_i_glide_emodel>  (288) 
-38.2347

>  <r_i_glide_energy>  (288) 
-33.5704

>  <r_i_glide_einternal>  (288) 
1.41653

>  <r_i_glide_intrahb_reward>  (288) 
-0

>  <i_i_glide_confnum>  (288) 
2

>  <i_i_glide_posenum>  (288) 
7

>  <r_i_glide_eff_state_penalty>  (288) 
0

>  <ligand_id>  (288) 
69

>  <original_smiles>  (288) 
CC1(C)CCC2C3=CCC4C5(C)CCC(O)C(C)(C)C5CCC4(C)C3(C)CCC2(C)C1

>  <smiles>  (288) 
[H]OC1([H])C([H])([H])C([H])([H])C2(C([H])([H])[H])C([H])(C([H])([H])C([H])([H])C3(C([H])([H])[H])C2([H])C([H])([H])C([H])=C2C4([H])C([H])([H])C([H])([H])C(C([H])([H])[H])(C([H])([H])[H])C([H])([H])C4(C([H])([H])[H])C([H])([H])C([H])([H])C23C([H])([H])[H])C1(C([H])([H])[H])C([H])([H])[H]

$$$$
69:0:2
     RDKit          3D

 81 85  0  0  1  0  0  0  0  0999 V2000
    2.4117   -9.7534    6.8419 C   0  0  0  0  0  0  0  0  0  0  0  0
    1.2991   -8.7810    6.4906 C   0  0  0  0  0  0  0  0  0  0  0  0
    0.0816   -9.1331    7.3491 C   0  0  0  0  0  0  0  0  0  0  0  0
    1.7043   -7.3442    6.8446 C   0  0  0  0  0  0  0  0  0  0  0  0
    2.7024   -6.8000    5.8272 C   0  0  0  0  0  0  0  0  0  0  0  0
    2.0242   -6.6949    4.4513 C   0  0  1  0  0  0  0  0  0  0  0  0
    2.8330   -5.8296    3.4647 C   0  0  0  0  0  0  0  0  0  0  0  0
    2.5628   -4.5262    3.3997 C   0  0  0  0  0  0  0  0  0  0  0  0
    3.2237   -3.5242    2.4815 C   0  0  0  0  0  0  0  0  0  0  0  0
    4.4113   -4.0462    1.6143 C   0  0  2  0  0  0  0  0  0  0  0  0
    4.7553   -3.1071    0.3511 C   0  0  2  0  0  0  0  0  0  0  0  0
    6.2942   -3.0765    0.1693 C   0  0  0  0  0  0  0  0  0  0  0  0
    4.3366   -1.6390    0.6104 C   0  0  0  0  0  0  0  0  0  0  0  0
    4.5064   -0.6897   -0.5879 C   0  0  0  0  0  0  0  0  0  0  0  0
    3.5880   -1.2073   -1.7233 C   0  0  1  0  0  0  0  0  0  0  0  0
    3.6130   -0.2830   -2.8220 O   0  0  0  0  0  0  0  0  0  0  0  0
    3.9539   -2.6222   -2.2231 C   0  0  0  0  0  0  0  0  0  0  0  0
    2.8691   -3.0503   -3.2660 C   0  0  0  0  0  0  0  0  0  0  0  0
    5.2766   -2.5868   -3.0067 C   0  0  0  0  0  0  0  0  0  0  0  0
    4.0417   -3.6116   -0.9895 C   0  0  2  0  0  0  0  0  0  0  0  0
    2.7209   -4.2776   -0.5672 C   0  0  0  0  0  0  0  0  0  0  0  0
    2.9677   -5.5675    0.3062 C   0  0  0  0  0  0  0  0  0  0  0  0
    4.1911   -5.5592    1.2900 C   0  0  1  0  0  0  0  0  0  0  0  0
    5.4525   -6.1440    0.5881 C   0  0  0  0  0  0  0  0  0  0  0  0
    3.9116   -6.4815    2.5816 C   0  0  1  0  0  0  0  0  0  0  0  0
    5.1937   -6.5770    3.4454 C   0  0  0  0  0  0  0  0  0  0  0  0
    3.5021   -7.9500    2.1938 C   0  0  0  0  0  0  0  0  0  0  0  0
    2.8180   -8.7778    3.3109 C   0  0  0  0  0  0  0  0  0  0  0  0
    1.5707   -8.0631    3.8938 C   0  0  2  0  0  0  0  0  0  0  0  0
    0.5264   -7.8648    2.7653 C   0  0  0  0  0  0  0  0  0  0  0  0
    0.8374   -8.8985    5.0010 C   0  0  0  0  0  0  0  0  0  0  0  0
    2.5177   -9.7970    7.9309 H   0  0  0  0  0  0  0  0  0  0  0  0
    3.3926   -9.5440    6.3907 H   0  0  0  0  0  0  0  0  0  0  0  0
    2.0052  -10.6964    6.4937 H   0  0  0  0  0  0  0  0  0  0  0  0
   -0.5835   -8.2718    7.0396 H   0  0  0  0  0  0  0  0  0  0  0  0
    0.2375   -9.1019    8.4450 H   0  0  0  0  0  0  0  0  0  0  0  0
   -0.3679  -10.1138    7.0932 H   0  0  0  0  0  0  0  0  0  0  0  0
    0.8335   -6.6761    6.8932 H   0  0  0  0  0  0  0  0  0  0  0  0
    2.1522   -7.3372    7.8374 H   0  0  0  0  0  0  0  0  0  0  0  0
    3.0631   -5.8273    6.1618 H   0  0  0  0  0  0  0  0  0  0  0  0
    3.5710   -7.4563    5.8108 H   0  0  0  0  0  0  0  0  0  0  0  0
    1.1053   -6.1435    4.6318 H   0  0  0  0  0  0  0  0  0  0  0  0
    1.7976   -4.1053    4.0273 H   0  0  0  0  0  0  0  0  0  0  0  0
    2.3843   -3.1695    1.8953 H   0  0  0  0  0  0  0  0  0  0  0  0
    3.5662   -2.6867    3.0855 H   0  0  0  0  0  0  0  0  0  0  0  0
    5.2742   -4.0019    2.2851 H   0  0  0  0  0  0  0  0  0  0  0  0
    6.6407   -2.2245   -0.3971 H   0  0  0  0  0  0  0  0  0  0  0  0
    6.6760   -3.9519   -0.3493 H   0  0  0  0  0  0  0  0  0  0  0  0
    6.8010   -2.9973    1.1267 H   0  0  0  0  0  0  0  0  0  0  0  0
    3.2809   -1.5717    0.8815 H   0  0  0  0  0  0  0  0  0  0  0  0
    4.8750   -1.2432    1.4668 H   0  0  0  0  0  0  0  0  0  0  0  0
    4.1186    0.2196   -0.2037 H   0  0  0  0  0  0  0  0  0  0  0  0
    5.5445   -0.5029   -0.8577 H   0  0  0  0  0  0  0  0  0  0  0  0
    2.6238   -1.2735   -1.2678 H   0  0  0  0  0  0  0  0  0  0  0  0
    2.9233    0.3608   -2.6751 H   0  0  0  0  0  0  0  0  0  0  0  0
    3.0228   -4.0712   -3.6253 H   0  0  0  0  0  0  0  0  0  0  0  0
    2.8547   -2.4101   -4.1453 H   0  0  0  0  0  0  0  0  0  0  0  0
    1.8655   -2.9737   -2.8524 H   0  0  0  0  0  0  0  0  0  0  0  0
    5.6554   -3.5788   -3.2988 H   0  0  0  0  0  0  0  0  0  0  0  0
    6.0403   -2.0651   -2.4302 H   0  0  0  0  0  0  0  0  0  0  0  0
    5.1110   -1.9966   -3.9105 H   0  0  0  0  0  0  0  0  0  0  0  0
    4.6334   -4.4212   -1.4062 H   0  0  0  0  0  0  0  0  0  0  0  0
    2.0729   -3.5514   -0.0382 H   0  0  0  0  0  0  0  0  0  0  0  0
    2.2036   -4.5778   -1.4455 H   0  0  0  0  0  0  0  0  0  0  0  0
    2.0419   -5.8209    0.8234 H   0  0  0  0  0  0  0  0  0  0  0  0
    3.1978   -6.4111   -0.3135 H   0  0  0  0  0  0  0  0  0  0  0  0
    5.4730   -7.2289    0.5700 H   0  0  0  0  0  0  0  0  0  0  0  0
    6.3774   -5.8341    1.0732 H   0  0  0  0  0  0  0  0  0  0  0  0
    5.5632   -5.8816   -0.4545 H   0  0  0  0  0  0  0  0  0  0  0  0
    6.0324   -7.0390    2.9256 H   0  0  0  0  0  0  0  0  0  0  0  0
    5.0375   -7.1991    4.3223 H   0  0  0  0  0  0  0  0  0  0  0  0
    5.5141   -5.5985    3.8056 H   0  0  0  0  0  0  0  0  0  0  0  0
    2.8433   -7.9567    1.3336 H   0  0  0  0  0  0  0  0  0  0  0  0
    4.3729   -8.5111    1.8638 H   0  0  0  0  0  0  0  0  0  0  0  0
    2.5421   -9.7541    2.9079 H   0  0  0  0  0  0  0  0  0  0  0  0
    3.5473   -8.9948    4.0884 H   0  0  0  0  0  0  0  0  0  0  0  0
    0.2680   -8.8211    2.3023 H   0  0  0  0  0  0  0  0  0  0  0  0
    0.8782   -7.1952    1.9834 H   0  0  0  0  0  0  0  0  0  0  0  0
   -0.3882   -7.4223    3.1602 H   0  0  0  0  0  0  0  0  0  0  0  0
    0.8861   -9.9411    4.7102 H   0  0  0  0  0  0  0  0  0  0  0  0
   -0.2449   -8.6886    4.9355 H   0  0  0  0  0  0  0  0  0  0  0  0
  1  2  1  0
  1 32  1  0
  1 33  1  0
  1 34  1  0
  2 31  1  0
  2  3  1  0
  2  4  1  0
  3 35  1  0
  3 36  1  0
  3 37  1  0
  4  5  1  0
  4 38  1  0
  4 39  1  0
  5  6  1  0
  5 40  1  0
  5 41  1  0
  6 29  1  0
  6  7  1  0
  6 42  1  1
  7 25  1  0
  7  8  2  0
  8  9  1  0
  8 43  1  0
  9 10  1  0
  9 44  1  0
  9 45  1  0
 10 23  1  0
 10 11  1  0
 10 46  1  1
 11 20  1  0
 11 12  1  6
 11 13  1  0
 12 47  1  0
 12 48  1  0
 12 49  1  0
 13 14  1  0
 13 50  1  0
 13 51  1  0
 14 15  1  0
 14 52  1  0
 14 53  1  0
 15 16  1  0
 15 17  1  0
 15 54  1  1
 16 55  1  0
 17 18  1  0
 17 19  1  0
 17 20  1  0
 18 56  1  0
 18 57  1  0
 18 58  1  0
 19 59  1  0
 19 60  1  0
 19 61  1  0
 20 21  1  0
 20 62  1  6
 21 22  1  0
 21 63  1  0
 21 64  1  0
 22 23  1  0
 22 65  1  0
 22 66  1  0
 23 24  1  6
 23 25  1  0
 24 67  1  0
 24 68  1  0
 24 69  1  0
 25 26  1  1
 25 27  1  0
 26 70  1  0
 26 71  1  0
 26 72  1  0
 27 28  1  0
 27 73  1  0
 27 74  1  0
 28 29  1  0
 28 75  1  0
 28 76  1  0
 29 30  1  6
 29 31  1  0
 30 77  1  0
 30 78  1  0
 30 79  1  0
 31 80  1  0
 31 81  1  0
M  END
>  <i_m_ct_stereo_status>  (289) 
1

>  <s_m_source_file>  (289) 
/var/tmp/pbs.5076255.sched01/tmpnby3vxlc/96d7dj3887.sdf

>  <i_m_source_file_index>  (289) 
25

>  <i_lp_mmshare_version>  (289) 
48012

>  <i_f3d_flags>  (289) 
0

>  <s_epik_input>  (289) 
W0NIMl0xW0NIMl1DKFtDSDNdKShbQ0gzXSlbQ0gyXVtDQF0oW0NIM10pKFtDSDJdW0NIMl0yKVtDQEBIXTFDKD1bQ0hdW0NIMl0zKVtDQF0yKFtDSDNdKVtDQF0oW0NIM10pKFtDQEhdM1tDQF00NVtDSDNdKVtDSDJdW0NIMl1bQ0BIXTVDKFtDSDNdKShbQ0gzXSlbQ0BIXShbT0hdKVtDSDJdW0NIMl00

>  <s_epik_cmdline>  (289) 
J2VwaWtfcHl0aG9uJywgJy1waHQnLCAnMi4wJywgJy1waCcsICc3LjAnLCAnLXRuJywgJzgnLCAnLW1hJywgJzIwMCcsICctaW1hZScsICc8aW5maWxlLm1hZT4nLCAnLW9tYWUnLCAnPG91dGZpbGUubWFlPic=

>  <r_lp_tautomer_probability>  (289) 
1

>  <r_epik_Ionization_Penalty>  (289) 
2.97739e-06

>  <r_epik_Ionization_Penalty_Charging>  (289) 
0

>  <r_epik_Ionization_Penalty_Neutral>  (289) 
2.97739e-06

>  <r_epik_State_Penalty>  (289) 
-0

>  <r_epik_Charging_Adjusted_Penalty>  (289) 
0

>  <i_epik_Tot_Q>  (289) 
0

>  <i_epik_Tot_abs_Q>  (289) 
0

>  <s_lp_Force_Field>  (289) 
OPLS3e

>  <r_lp_Energy>  (289) 
99.8973

>  <b_lp_Chiralities_Consistent>  (289) 
1

>  <s_lp_Variant>  (289) 
69:0-1

>  <s_i_glide_gridfile>  (289) 
pfpi4k_grid

>  <i_i_glide_lignum>  (289) 
25

>  <i_i_glide_rotatable_bonds>  (289) 
1

>  <r_i_docking_score>  (289) 
-2.70264

>  <r_i_glide_ligand_efficiency>  (289) 
-0.0871819

>  <r_i_glide_ligand_efficiency_sa>  (289) 
-0.273872

>  <r_i_glide_ligand_efficiency_ln>  (289) 
-0.609528

>  <r_i_glide_gscore>  (289) 
-2.70264

>  <r_i_glide_lipo>  (289) 
-0.484829

>  <r_i_glide_hbond>  (289) 
-0.2057

>  <r_i_glide_metal>  (289) 
-0

>  <r_i_glide_rewards>  (289) 
-0.499654

>  <r_i_glide_evdw>  (289) 
-22.4261

>  <r_i_glide_ecoul>  (289) 
-2.6077

>  <r_i_glide_erotb>  (289) 
0

>  <r_i_glide_esite>  (289) 
0

>  <r_i_glide_emodel>  (289) 
-28.4327

>  <r_i_glide_energy>  (289) 
-25.0337

>  <r_i_glide_einternal>  (289) 
0.732547

>  <r_i_glide_intrahb_reward>  (289) 
-0

>  <i_i_glide_confnum>  (289) 
2

>  <i_i_glide_posenum>  (289) 
6

>  <r_i_glide_eff_state_penalty>  (289) 
0

>  <ligand_id>  (289) 
69

>  <original_smiles>  (289) 
CC1(C)CCC2C3=CCC4C5(C)CCC(O)C(C)(C)C5CCC4(C)C3(C)CCC2(C)C1

>  <smiles>  (289) 
[H]OC1([H])C([H])([H])C([H])([H])C2(C([H])([H])[H])C([H])(C([H])([H])C([H])([H])C3(C([H])([H])[H])C2([H])C([H])([H])C([H])=C2C4([H])C([H])([H])C([H])([H])C(C([H])([H])[H])(C([H])([H])[H])C([H])([H])C4(C([H])([H])[H])C([H])([H])C([H])([H])C23C([H])([H])[H])C1(C([H])([H])[H])C([H])([H])[H]

$$$$
70:0:0
     RDKit          3D

 58 64  0  0  1  0  0  0  0  0999 V2000
   -1.4107   -8.6522    2.4958 Br  0  0  0  0  0  0  0  0  0  0  0  0
   -0.0352   -7.3770    2.8085 C   0  0  0  0  0  0  0  0  0  0  0  0
    0.0949   -6.7822    4.0738 C   0  0  0  0  0  0  0  0  0  0  0  0
    1.1131   -5.8428    4.3196 C   0  0  0  0  0  0  0  0  0  0  0  0
    2.0132   -5.4796    3.2915 C   0  0  0  0  0  0  0  0  0  0  0  0
    1.8700   -6.0793    2.0191 C   0  0  0  0  0  0  0  0  0  0  0  0
    0.8540   -7.0254    1.7718 C   0  0  0  0  0  0  0  0  0  0  0  0
    2.7893   -5.7591    1.0134 N   0  0  0  0  0  0  0  0  0  0  0  0
    4.1474   -5.4355    1.4390 C   0  0  0  0  0  0  0  0  0  0  0  0
    4.8026   -6.6688    2.1409 C   0  0  0  0  0  0  0  0  0  0  0  0
    6.2738   -6.4192    2.5264 C   0  0  0  0  0  0  0  0  0  0  0  0
    7.1124   -6.0598    1.2944 C   0  0  0  0  0  0  0  0  0  0  0  0
    6.4899   -4.8657    0.5769 C   0  0  0  0  0  0  0  0  0  0  0  0
    5.0092   -5.1109    0.1952 C   0  0  0  0  0  0  0  0  0  0  0  0
    4.0861   -4.2564    2.3847 N   0  0  1  0  0  0  0  0  0  0  0  0
    3.8923   -2.9168    1.7343 N   0  0  0  0  0  0  0  0  0  0  0  0
    5.0397   -2.0302    1.9272 C   0  0  0  0  0  0  0  0  0  0  0  0
    4.7495   -0.6327    1.3821 C   0  0  0  0  0  0  0  0  0  0  0  0
    3.5917    0.0271    2.1197 C   0  0  0  0  0  0  0  0  0  0  0  0
    2.3567   -0.8767    2.0885 C   0  0  0  0  0  0  0  0  0  0  0  0
    2.6344   -2.3911    2.2638 C   0  0  2  0  0  0  0  0  0  0  0  0
    2.4937   -2.9981    3.6597 C   0  0  2  0  0  0  0  0  0  0  0  0
    3.2060   -2.2700    4.8360 C   0  0  0  0  0  0  0  0  0  0  0  0
    3.8961   -3.3709    5.5427 C   0  0  0  0  0  0  0  0  0  0  0  0
    4.5534   -3.4581    6.7398 C   0  0  0  0  0  0  0  0  0  0  0  0
    5.1018   -5.0876    7.0086 S   0  0  0  0  0  0  0  0  0  0  0  0
    4.4328   -5.6219    5.4874 C   0  0  0  0  0  0  0  0  0  0  0  0
    3.8498   -4.5768    4.8184 C   0  0  0  0  0  0  0  0  0  0  0  0
    3.1036   -4.4079    3.5279 C   0  0  1  0  0  0  0  0  0  0  0  0
   -0.5875   -7.0679    4.8661 H   0  0  0  0  0  0  0  0  0  0  0  0
    1.1927   -5.3838    5.2983 H   0  0  0  0  0  0  0  0  0  0  0  0
    0.7632   -7.4952    0.8047 H   0  0  0  0  0  0  0  0  0  0  0  0
    2.4932   -5.5382    0.0700 H   0  0  0  0  0  0  0  0  0  0  0  0
    4.2603   -6.9966    3.0289 H   0  0  0  0  0  0  0  0  0  0  0  0
    4.7662   -7.5251    1.4679 H   0  0  0  0  0  0  0  0  0  0  0  0
    6.3286   -5.6131    3.2666 H   0  0  0  0  0  0  0  0  0  0  0  0
    6.6885   -7.3005    3.0251 H   0  0  0  0  0  0  0  0  0  0  0  0
    8.1148   -5.7872    1.6093 H   0  0  0  0  0  0  0  0  0  0  0  0
    7.2083   -6.9222    0.6367 H   0  0  0  0  0  0  0  0  0  0  0  0
    6.6048   -4.0304    1.2542 H   0  0  0  0  0  0  0  0  0  0  0  0
    7.0749   -4.6186   -0.3112 H   0  0  0  0  0  0  0  0  0  0  0  0
    4.9345   -5.9408   -0.5027 H   0  0  0  0  0  0  0  0  0  0  0  0
    4.6127   -4.2614   -0.3610 H   0  0  0  0  0  0  0  0  0  0  0  0
    5.3222   -1.9864    2.9750 H   0  0  0  0  0  0  0  0  0  0  0  0
    5.8990   -2.3550    1.3637 H   0  0  0  0  0  0  0  0  0  0  0  0
    5.6419   -0.0170    1.4928 H   0  0  0  0  0  0  0  0  0  0  0  0
    4.5395   -0.6943    0.3158 H   0  0  0  0  0  0  0  0  0  0  0  0
    3.8831    0.2362    3.1470 H   0  0  0  0  0  0  0  0  0  0  0  0
    3.3548    0.9835    1.6557 H   0  0  0  0  0  0  0  0  0  0  0  0
    1.6253   -0.5486    2.8361 H   0  0  0  0  0  0  0  0  0  0  0  0
    1.8678   -0.7479    1.1257 H   0  0  0  0  0  0  0  0  0  0  0  0
    1.8698   -2.8892    1.6784 H   0  0  0  0  0  0  0  0  0  0  0  0
    1.4451   -3.0816    3.9366 H   0  0  0  0  0  0  0  0  0  0  0  0
    3.9472   -1.5458    4.5010 H   0  0  0  0  0  0  0  0  0  0  0  0
    2.5030   -1.7405    5.4848 H   0  0  0  0  0  0  0  0  0  0  0  0
    4.7243   -2.6761    7.4712 H   0  0  0  0  0  0  0  0  0  0  0  0
    4.5094   -6.6642    5.2024 H   0  0  0  0  0  0  0  0  0  0  0  0
    4.9947   -4.1931    2.8161 H   0  0  0  0  0  0  0  0  0  0  0  0
  1  2  1  0
  2  7  2  0
  2  3  1  0
  3  4  2  0
  3 30  1  0
  4  5  1  0
  4 31  1  0
 29  5  1  6
  5  6  2  0
  6  7  1  0
  6  8  1  0
  7 32  1  0
  8  9  1  0
  8 33  1  0
  9 14  1  0
  9 10  1  0
  9 15  1  0
 10 11  1  0
 10 34  1  0
 10 35  1  0
 11 12  1  0
 11 36  1  0
 11 37  1  0
 12 13  1  0
 12 38  1  0
 12 39  1  0
 13 14  1  0
 13 40  1  0
 13 41  1  0
 14 42  1  0
 14 43  1  0
 15 29  1  0
 15 16  1  0
 15 58  1  1
 16 21  1  0
 16 17  1  0
 17 18  1  0
 17 44  1  0
 17 45  1  0
 18 19  1  0
 18 46  1  0
 18 47  1  0
 19 20  1  0
 19 48  1  0
 19 49  1  0
 20 21  1  0
 20 50  1  0
 20 51  1  0
 21 22  1  0
 21 52  1  6
 22 29  1  0
 22 23  1  0
 22 53  1  1
 23 24  1  0
 23 54  1  0
 23 55  1  0
 24 28  1  0
 24 25  2  0
 25 26  1  0
 25 56  1  0
 26 27  1  0
 27 28  2  0
 27 57  1  0
 28 29  1  0
M  CHG  1  15   1
M  END
>  <i_m_ct_stereo_status>  (290) 
1

>  <s_m_source_file>  (290) 
/var/tmp/pbs.5076255.sched01/tmpnby3vxlc/96d7dj3887.sdf

>  <i_m_source_file_index>  (290) 
26

>  <i_lp_mmshare_version>  (290) 
48012

>  <i_f3d_flags>  (290) 
0

>  <s_epik_input>  (290) 
W0NIMl0xW0NIMl1bQ0gyXVtDSDJdTjJbQ0BIXTFbQ0BIXShbQ0gyXWMzYzRbY0hdc1tjSF0zKVtDQEBdNChjNWMoW05IXTYpW2NIXWMoQnIpW2NIXVtjSF01KU4yQzY3W0NIMl1bQ0gyXVtDSDJdW0NIMl1bQ0gyXTc=

>  <s_epik_cmdline>  (290) 
J2VwaWtfcHl0aG9uJywgJy1waHQnLCAnMi4wJywgJy1waCcsICc3LjAnLCAnLXRuJywgJzgnLCAnLW1hJywgJzIwMCcsICctaW1hZScsICc8aW5maWxlLm1hZT4nLCAnLW9tYWUnLCAnPG91dGZpbGUubWFlPic=

>  <r_epik_Ionization_Penalty>  (290) 
0.257313

>  <r_epik_Ionization_Penalty_Charging>  (290) 
0.257307

>  <r_epik_Ionization_Penalty_Neutral>  (290) 
5.78746e-06

>  <r_epik_State_Penalty>  (290) 
0.316953

>  <r_epik_Charging_Adjusted_Penalty>  (290) 
0.57426

>  <i_epik_Tot_Q>  (290) 
1

>  <i_epik_Tot_abs_Q>  (290) 
1

>  <s_lp_Force_Field>  (290) 
OPLS3e

>  <r_lp_Energy>  (290) 
48.6094

>  <b_lp_Chiralities_Consistent>  (290) 
1

>  <s_lp_Variant>  (290) 
70:0-1

>  <s_i_glide_gridfile>  (290) 
pfpi4k_grid

>  <i_i_glide_lignum>  (290) 
26

>  <i_i_glide_rotatable_bonds>  (290) 
0

>  <r_i_docking_score>  (290) 
-2.61239

>  <r_i_glide_ligand_efficiency>  (290) 
-0.0900823

>  <r_i_glide_ligand_efficiency_sa>  (290) 
-0.276761

>  <r_i_glide_ligand_efficiency_ln>  (290) 
-0.59817

>  <r_i_glide_gscore>  (290) 
-2.61239

>  <r_i_glide_lipo>  (290) 
-0.583224

>  <r_i_glide_hbond>  (290) 
0

>  <r_i_glide_metal>  (290) 
-0

>  <r_i_glide_rewards>  (290) 
-0.232117

>  <r_i_glide_evdw>  (290) 
-29.3217

>  <r_i_glide_ecoul>  (290) 
-2.09758

>  <r_i_glide_erotb>  (290) 
0

>  <r_i_glide_esite>  (290) 
-0.0163216

>  <r_i_glide_emodel>  (290) 
-35.1332

>  <r_i_glide_energy>  (290) 
-31.4193

>  <r_i_glide_einternal>  (290) 
0

>  <r_i_glide_intrahb_reward>  (290) 
-0

>  <i_i_glide_confnum>  (290) 
2

>  <i_i_glide_posenum>  (290) 
8

>  <r_i_glide_eff_state_penalty>  (290) 
0

>  <ligand_id>  (290) 
70

>  <original_smiles>  (290) 
Brc1ccc2c(c1)NC1(CCCCC1)N1N3CCCCC3C3Cc4cscc4C231

>  <smiles>  (290) 
[H]c1sc([H])c2c1C([H])([H])C1([H])C3([H])N(C([H])([H])C([H])([H])C([H])([H])C3([H])[H])[N+]3([H])C21c1c([H])c([H])c(Br)c([H])c1N([H])C31C([H])([H])C([H])([H])C([H])([H])C([H])([H])C1([H])[H]

$$$$
70:0:1
     RDKit          3D

 58 64  0  0  1  0  0  0  0  0999 V2000
   -0.2091   -7.9206    4.2589 Br  0  0  0  0  0  0  0  0  0  0  0  0
    1.0215   -6.6351    3.5919 C   0  0  0  0  0  0  0  0  0  0  0  0
    0.7822   -5.2633    3.7992 C   0  0  0  0  0  0  0  0  0  0  0  0
    1.6801   -4.2950    3.3062 C   0  0  0  0  0  0  0  0  0  0  0  0
    2.8365   -4.6894    2.6031 C   0  0  0  0  0  0  0  0  0  0  0  0
    3.0696   -6.0717    2.3998 C   0  0  0  0  0  0  0  0  0  0  0  0
    2.1710   -7.0424    2.8887 C   0  0  0  0  0  0  0  0  0  0  0  0
    4.2324   -6.4696    1.7474 N   0  0  0  0  0  0  0  0  0  0  0  0
    5.4144   -5.6323    1.9462 C   0  0  0  0  0  0  0  0  0  0  0  0
    5.8251   -5.6071    3.4515 C   0  0  0  0  0  0  0  0  0  0  0  0
    6.3171   -6.9589    3.9943 C   0  0  0  0  0  0  0  0  0  0  0  0
    7.4730   -7.5117    3.1586 C   0  0  0  0  0  0  0  0  0  0  0  0
    7.0780   -7.5975    1.6833 C   0  0  0  0  0  0  0  0  0  0  0  0
    6.6040   -6.2300    1.1463 C   0  0  0  0  0  0  0  0  0  0  0  0
    5.0884   -4.2444    1.4717 N   0  0  1  0  0  0  0  0  0  0  0  0
    5.0960   -4.0852   -0.0329 N   0  0  0  0  0  0  0  0  0  0  0  0
    6.1555   -3.1717   -0.4654 C   0  0  0  0  0  0  0  0  0  0  0  0
    6.0470   -2.9011   -1.9765 C   0  0  0  0  0  0  0  0  0  0  0  0
    4.7183   -2.2263   -2.3311 C   0  0  0  0  0  0  0  0  0  0  0  0
    3.5411   -3.0425   -1.8065 C   0  0  0  0  0  0  0  0  0  0  0  0
    3.7473   -3.6601   -0.4080 C   0  0  2  0  0  0  0  0  0  0  0  0
    3.2016   -2.9157    0.8067 C   0  0  2  0  0  0  0  0  0  0  0  0
    3.5300   -1.3986    0.9309 C   0  0  0  0  0  0  0  0  0  0  0  0
    3.9776   -1.2778    2.3332 C   0  0  0  0  0  0  0  0  0  0  0  0
    4.2475   -0.2082    3.1406 C   0  0  0  0  0  0  0  0  0  0  0  0
    4.6963   -0.7605    4.7365 S   0  0  0  0  0  0  0  0  0  0  0  0
    4.5110   -2.4392    4.2683 C   0  0  0  0  0  0  0  0  0  0  0  0
    4.1436   -2.5292    2.9497 C   0  0  0  0  0  0  0  0  0  0  0  0
    3.8234   -3.6543    2.0205 C   0  0  1  0  0  0  0  0  0  0  0  0
   -0.1024   -4.9557    4.3394 H   0  0  0  0  0  0  0  0  0  0  0  0
    1.4639   -3.2420    3.4465 H   0  0  0  0  0  0  0  0  0  0  0  0
    2.3713   -8.0970    2.7482 H   0  0  0  0  0  0  0  0  0  0  0  0
    4.2091   -7.1732    1.0207 H   0  0  0  0  0  0  0  0  0  0  0  0
    6.6116   -4.8716    3.5952 H   0  0  0  0  0  0  0  0  0  0  0  0
    5.0243   -5.2687    4.1033 H   0  0  0  0  0  0  0  0  0  0  0  0
    6.6298   -6.8476    5.0331 H   0  0  0  0  0  0  0  0  0  0  0  0
    5.4886   -7.6681    4.0015 H   0  0  0  0  0  0  0  0  0  0  0  0
    8.3477   -6.8722    3.2677 H   0  0  0  0  0  0  0  0  0  0  0  0
    7.7593   -8.4956    3.5264 H   0  0  0  0  0  0  0  0  0  0  0  0
    7.9315   -7.9403    1.0983 H   0  0  0  0  0  0  0  0  0  0  0  0
    6.2965   -8.3487    1.5536 H   0  0  0  0  0  0  0  0  0  0  0  0
    6.3223   -6.3406    0.0994 H   0  0  0  0  0  0  0  0  0  0  0  0
    7.4517   -5.5407    1.1564 H   0  0  0  0  0  0  0  0  0  0  0  0
    6.1172   -2.2387    0.0928 H   0  0  0  0  0  0  0  0  0  0  0  0
    7.1280   -3.6201   -0.2498 H   0  0  0  0  0  0  0  0  0  0  0  0
    6.8752   -2.2660   -2.2882 H   0  0  0  0  0  0  0  0  0  0  0  0
    6.1613   -3.8334   -2.5322 H   0  0  0  0  0  0  0  0  0  0  0  0
    4.6887   -1.2183   -1.9246 H   0  0  0  0  0  0  0  0  0  0  0  0
    4.6352   -2.1208   -3.4111 H   0  0  0  0  0  0  0  0  0  0  0  0
    2.6334   -2.4437   -1.8097 H   0  0  0  0  0  0  0  0  0  0  0  0
    3.3486   -3.8471   -2.5087 H   0  0  0  0  0  0  0  0  0  0  0  0
    3.1894   -4.5954   -0.4309 H   0  0  0  0  0  0  0  0  0  0  0  0
    2.1151   -2.9941    0.8378 H   0  0  0  0  0  0  0  0  0  0  0  0
    4.3362   -1.0932    0.2674 H   0  0  0  0  0  0  0  0  0  0  0  0
    2.6650   -0.7714    0.7080 H   0  0  0  0  0  0  0  0  0  0  0  0
    4.1885    0.8476    2.9098 H   0  0  0  0  0  0  0  0  0  0  0  0
    4.6669   -3.2211    4.9987 H   0  0  0  0  0  0  0  0  0  0  0  0
    5.8318   -3.6341    1.7802 H   0  0  0  0  0  0  0  0  0  0  0  0
  1  2  1  0
  2  7  2  0
  2  3  1  0
  3  4  2  0
  3 30  1  0
  4  5  1  0
  4 31  1  0
 29  5  1  1
  5  6  2  0
  6  7  1  0
  6  8  1  0
  7 32  1  0
  8  9  1  0
  8 33  1  0
  9 14  1  0
  9 10  1  0
  9 15  1  0
 10 11  1  0
 10 34  1  0
 10 35  1  0
 11 12  1  0
 11 36  1  0
 11 37  1  0
 12 13  1  0
 12 38  1  0
 12 39  1  0
 13 14  1  0
 13 40  1  0
 13 41  1  0
 14 42  1  0
 14 43  1  0
 15 29  1  0
 15 16  1  0
 15 58  1  1
 16 21  1  0
 16 17  1  0
 17 18  1  0
 17 44  1  0
 17 45  1  0
 18 19  1  0
 18 46  1  0
 18 47  1  0
 19 20  1  0
 19 48  1  0
 19 49  1  0
 20 21  1  0
 20 50  1  0
 20 51  1  0
 21 22  1  0
 21 52  1  6
 22 29  1  0
 22 23  1  0
 22 53  1  1
 23 24  1  0
 23 54  1  0
 23 55  1  0
 24 28  1  0
 24 25  2  0
 25 26  1  0
 25 56  1  0
 26 27  1  0
 27 28  2  0
 27 57  1  0
 28 29  1  0
M  CHG  1  15   1
M  END
>  <i_m_ct_stereo_status>  (291) 
1

>  <s_m_source_file>  (291) 
/var/tmp/pbs.5076255.sched01/tmpnby3vxlc/96d7dj3887.sdf

>  <i_m_source_file_index>  (291) 
26

>  <i_lp_mmshare_version>  (291) 
48012

>  <i_f3d_flags>  (291) 
0

>  <s_epik_input>  (291) 
W0NIMl0xW0NIMl1bQ0gyXVtDSDJdTjJbQ0BIXTFbQ0BIXShbQ0gyXWMzYzRbY0hdc1tjSF0zKVtDQEBdNChjNWMoW05IXTYpW2NIXWMoQnIpW2NIXVtjSF01KU4yQzY3W0NIMl1bQ0gyXVtDSDJdW0NIMl1bQ0gyXTc=

>  <s_epik_cmdline>  (291) 
J2VwaWtfcHl0aG9uJywgJy1waHQnLCAnMi4wJywgJy1waCcsICc3LjAnLCAnLXRuJywgJzgnLCAnLW1hJywgJzIwMCcsICctaW1hZScsICc8aW5maWxlLm1hZT4nLCAnLW9tYWUnLCAnPG91dGZpbGUubWFlPic=

>  <r_epik_Ionization_Penalty>  (291) 
0.257313

>  <r_epik_Ionization_Penalty_Charging>  (291) 
0.257307

>  <r_epik_Ionization_Penalty_Neutral>  (291) 
5.78746e-06

>  <r_epik_State_Penalty>  (291) 
0.316953

>  <r_epik_Charging_Adjusted_Penalty>  (291) 
0.57426

>  <i_epik_Tot_Q>  (291) 
1

>  <i_epik_Tot_abs_Q>  (291) 
1

>  <s_lp_Force_Field>  (291) 
OPLS3e

>  <r_lp_Energy>  (291) 
48.6094

>  <b_lp_Chiralities_Consistent>  (291) 
1

>  <s_lp_Variant>  (291) 
70:0-1

>  <s_i_glide_gridfile>  (291) 
pfpi4k_grid

>  <i_i_glide_lignum>  (291) 
26

>  <i_i_glide_rotatable_bonds>  (291) 
0

>  <r_i_docking_score>  (291) 
-2.6036

>  <r_i_glide_ligand_efficiency>  (291) 
-0.0897793

>  <r_i_glide_ligand_efficiency_sa>  (291) 
-0.275831

>  <r_i_glide_ligand_efficiency_ln>  (291) 
-0.596158

>  <r_i_glide_gscore>  (291) 
-2.6036

>  <r_i_glide_lipo>  (291) 
-0.472583

>  <r_i_glide_hbond>  (291) 
0

>  <r_i_glide_metal>  (291) 
-0

>  <r_i_glide_rewards>  (291) 
-0.239742

>  <r_i_glide_evdw>  (291) 
-29.4798

>  <r_i_glide_ecoul>  (291) 
-2.78189

>  <r_i_glide_erotb>  (291) 
0

>  <r_i_glide_esite>  (291) 
0

>  <r_i_glide_emodel>  (291) 
-36.714

>  <r_i_glide_energy>  (291) 
-32.2617

>  <r_i_glide_einternal>  (291) 
0

>  <r_i_glide_intrahb_reward>  (291) 
-0

>  <i_i_glide_confnum>  (291) 
3

>  <i_i_glide_posenum>  (291) 
32

>  <r_i_glide_eff_state_penalty>  (291) 
0

>  <ligand_id>  (291) 
70

>  <original_smiles>  (291) 
Brc1ccc2c(c1)NC1(CCCCC1)N1N3CCCCC3C3Cc4cscc4C231

>  <smiles>  (291) 
[H]c1sc([H])c2c1C([H])([H])C1([H])C3([H])N(C([H])([H])C([H])([H])C([H])([H])C3([H])[H])[N+]3([H])C21c1c([H])c([H])c(Br)c([H])c1N([H])C31C([H])([H])C([H])([H])C([H])([H])C([H])([H])C1([H])[H]

$$$$
70:0:2
     RDKit          3D

 58 64  0  0  1  0  0  0  0  0999 V2000
   -0.6506   -8.8686    2.8747 Br  0  0  0  0  0  0  0  0  0  0  0  0
    0.6913   -7.5251    2.7624 C   0  0  0  0  0  0  0  0  0  0  0  0
    0.4547   -6.2490    3.3258 C   0  0  0  0  0  0  0  0  0  0  0  0
    1.4344   -5.2422    3.2518 C   0  0  0  0  0  0  0  0  0  0  0  0
    2.6750   -5.4938    2.6214 C   0  0  0  0  0  0  0  0  0  0  0  0
    2.9103   -6.7789    2.0709 C   0  0  0  0  0  0  0  0  0  0  0  0
    1.9206   -7.7866    2.1320 C   0  0  0  0  0  0  0  0  0  0  0  0
    4.1539   -7.0470    1.5024 N   0  0  0  0  0  0  0  0  0  0  0  0
    5.3022   -6.3425    2.0684 C   0  0  0  0  0  0  0  0  0  0  0  0
    5.5030   -6.7736    3.5608 C   0  0  0  0  0  0  0  0  0  0  0  0
    6.7683   -6.1594    4.1852 C   0  0  0  0  0  0  0  0  0  0  0  0
    8.0281   -6.5693    3.4017 C   0  0  0  0  0  0  0  0  0  0  0  0
    7.8722   -6.2058    1.9301 C   0  0  0  0  0  0  0  0  0  0  0  0
    6.5813   -6.7844    1.3145 C   0  0  0  0  0  0  0  0  0  0  0  0
    5.0698   -4.8642    1.9545 N   0  0  1  0  0  0  0  0  0  0  0  0
    5.2969   -4.2925    0.5733 N   0  0  0  0  0  0  0  0  0  0  0  0
    6.4100   -3.3286    0.5554 C   0  0  0  0  0  0  0  0  0  0  0  0
    6.5188   -2.6500   -0.8098 C   0  0  0  0  0  0  0  0  0  0  0  0
    5.2743   -1.8309   -1.1258 C   0  0  0  0  0  0  0  0  0  0  0  0
    4.0249   -2.7088   -1.0138 C   0  0  0  0  0  0  0  0  0  0  0  0
    4.0222   -3.7079    0.1713 C   0  0  2  0  0  0  0  0  0  0  0  0
    3.3196   -3.3089    1.4716 C   0  0  2  0  0  0  0  0  0  0  0  0
    3.6630   -1.9109    2.0754 C   0  0  0  0  0  0  0  0  0  0  0  0
    3.9156   -2.2172    3.5013 C   0  0  0  0  0  0  0  0  0  0  0  0
    4.0962   -1.4360    4.6059 C   0  0  0  0  0  0  0  0  0  0  0  0
    4.2985   -2.4412    6.0160 S   0  0  0  0  0  0  0  0  0  0  0  0
    4.1325   -3.9039    5.0728 C   0  0  0  0  0  0  0  0  0  0  0  0
    3.9645   -3.5985    3.7460 C   0  0  0  0  0  0  0  0  0  0  0  0
    3.7480   -4.3919    2.4927 C   0  0  1  0  0  0  0  0  0  0  0  0
   -0.4856   -6.0656    3.8232 H   0  0  0  0  0  0  0  0  0  0  0  0
    1.2241   -4.2620    3.6658 H   0  0  0  0  0  0  0  0  0  0  0  0
    2.1172   -8.7671    1.7208 H   0  0  0  0  0  0  0  0  0  0  0  0
    4.2031   -7.5065    0.6014 H   0  0  0  0  0  0  0  0  0  0  0  0
    4.6463   -6.5316    4.1928 H   0  0  0  0  0  0  0  0  0  0  0  0
    5.5874   -7.8584    3.6214 H   0  0  0  0  0  0  0  0  0  0  0  0
    6.6639   -5.0680    4.2042 H   0  0  0  0  0  0  0  0  0  0  0  0
    6.8570   -6.4587    5.2324 H   0  0  0  0  0  0  0  0  0  0  0  0
    8.8825   -6.0242    3.7962 H   0  0  0  0  0  0  0  0  0  0  0  0
    8.2302   -7.6372    3.5274 H   0  0  0  0  0  0  0  0  0  0  0  0
    7.8759   -5.1236    1.9225 H   0  0  0  0  0  0  0  0  0  0  0  0
    8.7369   -6.5344    1.3487 H   0  0  0  0  0  0  0  0  0  0  0  0
    6.6366   -7.8757    1.3137 H   0  0  0  0  0  0  0  0  0  0  0  0
    6.5189   -6.5048    0.2667 H   0  0  0  0  0  0  0  0  0  0  0  0
    6.3110   -2.5954    1.3532 H   0  0  0  0  0  0  0  0  0  0  0  0
    7.3744   -3.8065    0.6546 H   0  0  0  0  0  0  0  0  0  0  0  0
    7.3964   -2.0033   -0.7957 H   0  0  0  0  0  0  0  0  0  0  0  0
    6.6932   -3.4044   -1.5748 H   0  0  0  0  0  0  0  0  0  0  0  0
    5.2111   -0.9897   -0.4419 H   0  0  0  0  0  0  0  0  0  0  0  0
    5.3462   -1.4233   -2.1315 H   0  0  0  0  0  0  0  0  0  0  0  0
    3.1289   -2.0827   -0.9602 H   0  0  0  0  0  0  0  0  0  0  0  0
    3.9299   -3.2978   -1.9262 H   0  0  0  0  0  0  0  0  0  0  0  0
    3.4509   -4.5655   -0.1837 H   0  0  0  0  0  0  0  0  0  0  0  0
    2.2385   -3.3283    1.3493 H   0  0  0  0  0  0  0  0  0  0  0  0
    4.5631   -1.4734    1.6425 H   0  0  0  0  0  0  0  0  0  0  0  0
    2.8530   -1.1900    1.9392 H   0  0  0  0  0  0  0  0  0  0  0  0
    4.1040   -0.3567    4.6750 H   0  0  0  0  0  0  0  0  0  0  0  0
    4.1662   -4.8647    5.5619 H   0  0  0  0  0  0  0  0  0  0  0  0
    5.7767   -4.4273    2.5229 H   0  0  0  0  0  0  0  0  0  0  0  0
  1  2  1  0
  2  7  2  0
  2  3  1  0
  3  4  2  0
  3 30  1  0
  4  5  1  0
  4 31  1  0
 29  5  1  1
  5  6  2  0
  6  7  1  0
  6  8  1  0
  7 32  1  0
  8  9  1  0
  8 33  1  0
  9 14  1  0
  9 10  1  0
  9 15  1  0
 10 11  1  0
 10 34  1  0
 10 35  1  0
 11 12  1  0
 11 36  1  0
 11 37  1  0
 12 13  1  0
 12 38  1  0
 12 39  1  0
 13 14  1  0
 13 40  1  0
 13 41  1  0
 14 42  1  0
 14 43  1  0
 15 29  1  0
 15 16  1  0
 15 58  1  1
 16 21  1  0
 16 17  1  0
 17 18  1  0
 17 44  1  0
 17 45  1  0
 18 19  1  0
 18 46  1  0
 18 47  1  0
 19 20  1  0
 19 48  1  0
 19 49  1  0
 20 21  1  0
 20 50  1  0
 20 51  1  0
 21 22  1  0
 21 52  1  6
 22 29  1  0
 22 23  1  0
 22 53  1  6
 23 24  1  0
 23 54  1  0
 23 55  1  0
 24 28  1  0
 24 25  2  0
 25 26  1  0
 25 56  1  0
 26 27  1  0
 27 28  2  0
 27 57  1  0
 28 29  1  0
M  CHG  1  15   1
M  END
>  <i_m_ct_stereo_status>  (292) 
1

>  <s_m_source_file>  (292) 
/var/tmp/pbs.5076255.sched01/tmpnby3vxlc/96d7dj3887.sdf

>  <i_m_source_file_index>  (292) 
26

>  <i_lp_mmshare_version>  (292) 
48012

>  <i_f3d_flags>  (292) 
0

>  <s_epik_input>  (292) 
W0NIMl0xW0NIMl1bQ0gyXVtDSDJdTjJbQ0BIXTFbQ0BIXShbQ0gyXWMzYzRbY0hdc1tjSF0zKVtDQEBdNChjNWMoW05IXTYpW2NIXWMoQnIpW2NIXVtjSF01KU4yQzY3W0NIMl1bQ0gyXVtDSDJdW0NIMl1bQ0gyXTc=

>  <s_epik_cmdline>  (292) 
J2VwaWtfcHl0aG9uJywgJy1waHQnLCAnMi4wJywgJy1waCcsICc3LjAnLCAnLXRuJywgJzgnLCAnLW1hJywgJzIwMCcsICctaW1hZScsICc8aW5maWxlLm1hZT4nLCAnLW9tYWUnLCAnPG91dGZpbGUubWFlPic=

>  <r_epik_Ionization_Penalty>  (292) 
0.257313

>  <r_epik_Ionization_Penalty_Charging>  (292) 
0.257307

>  <r_epik_Ionization_Penalty_Neutral>  (292) 
5.78746e-06

>  <r_epik_State_Penalty>  (292) 
0.316953

>  <r_epik_Charging_Adjusted_Penalty>  (292) 
0.57426

>  <i_epik_Tot_Q>  (292) 
1

>  <i_epik_Tot_abs_Q>  (292) 
1

>  <s_lp_Force_Field>  (292) 
OPLS3e

>  <r_lp_Energy>  (292) 
48.6094

>  <b_lp_Chiralities_Consistent>  (292) 
1

>  <s_lp_Variant>  (292) 
70:0-1

>  <s_i_glide_gridfile>  (292) 
pfpi4k_grid

>  <i_i_glide_lignum>  (292) 
26

>  <i_i_glide_rotatable_bonds>  (292) 
0

>  <r_i_docking_score>  (292) 
-2.12798

>  <r_i_glide_ligand_efficiency>  (292) 
-0.0733788

>  <r_i_glide_ligand_efficiency_sa>  (292) 
-0.225443

>  <r_i_glide_ligand_efficiency_ln>  (292) 
-0.487254

>  <r_i_glide_gscore>  (292) 
-2.12798

>  <r_i_glide_lipo>  (292) 
-0.212071

>  <r_i_glide_hbond>  (292) 
0

>  <r_i_glide_metal>  (292) 
-0

>  <r_i_glide_rewards>  (292) 
-0.233351

>  <r_i_glide_evdw>  (292) 
-29.2197

>  <r_i_glide_ecoul>  (292) 
-1.47718

>  <r_i_glide_erotb>  (292) 
0

>  <r_i_glide_esite>  (292) 
0

>  <r_i_glide_emodel>  (292) 
-33.8508

>  <r_i_glide_energy>  (292) 
-30.6969

>  <r_i_glide_einternal>  (292) 
0

>  <r_i_glide_intrahb_reward>  (292) 
-0

>  <i_i_glide_confnum>  (292) 
4

>  <i_i_glide_posenum>  (292) 
15

>  <r_i_glide_eff_state_penalty>  (292) 
0

>  <ligand_id>  (292) 
70

>  <original_smiles>  (292) 
Brc1ccc2c(c1)NC1(CCCCC1)N1N3CCCCC3C3Cc4cscc4C231

>  <smiles>  (292) 
[H]c1sc([H])c2c1C([H])([H])C1([H])C3([H])N(C([H])([H])C([H])([H])C([H])([H])C3([H])[H])[N+]3([H])C21c1c([H])c([H])c(Br)c([H])c1N([H])C31C([H])([H])C([H])([H])C([H])([H])C([H])([H])C1([H])[H]

$$$$
70:1:0
     RDKit          3D

 57 63  0  0  1  0  0  0  0  0999 V2000
    3.8043   -0.9649   -4.5148 Br  0  0  0  0  0  0  0  0  0  0  0  0
    4.0619   -2.0315   -2.9725 C   0  0  0  0  0  0  0  0  0  0  0  0
    4.9808   -3.1181   -2.9613 C   0  0  0  0  0  0  0  0  0  0  0  0
    5.1241   -3.8491   -1.7542 C   0  0  0  0  0  0  0  0  0  0  0  0
    4.3913   -3.5624   -0.6106 C   0  0  0  0  0  0  0  0  0  0  0  0
    3.5078   -2.4680   -0.6356 C   0  0  0  0  0  0  0  0  0  0  0  0
    3.3548   -1.6970   -1.8205 C   0  0  0  0  0  0  0  0  0  0  0  0
    2.8030   -2.1340    0.4988 N   0  0  0  0  0  0  0  0  0  0  0  0
    3.4328   -2.3666    1.8058 C   0  0  0  0  0  0  0  0  0  0  0  0
    4.7028   -1.4844    1.8883 C   0  0  0  0  0  0  0  0  0  0  0  0
    5.4082   -1.6188    3.2393 C   0  0  0  0  0  0  0  0  0  0  0  0
    4.4841   -1.2255    4.4017 C   0  0  0  0  0  0  0  0  0  0  0  0
    3.2078   -2.0511    4.3337 C   0  0  0  0  0  0  0  0  0  0  0  0
    2.4998   -1.9059    2.9628 C   0  0  0  0  0  0  0  0  0  0  0  0
    3.7273   -3.8355    1.8765 N   0  0  0  0  0  0  0  0  0  0  0  0
    2.6086   -4.6906    2.2068 N   0  0  0  0  0  0  0  0  0  0  0  0
    2.6896   -5.3808    3.5103 C   0  0  0  0  0  0  0  0  0  0  0  0
    1.5637   -6.3464    3.7523 C   0  0  0  0  0  0  0  0  0  0  0  0
    1.5297   -7.4401    2.6997 C   0  0  0  0  0  0  0  0  0  0  0  0
    1.4842   -6.8112    1.2929 C   0  0  0  0  0  0  0  0  0  0  0  0
    2.4265   -5.6143    1.0809 C   0  0  2  0  0  0  0  0  0  0  0  0
    3.8022   -5.8083    0.4476 C   0  0  2  0  0  0  0  0  0  0  0  0
    4.7299   -6.8734    1.1083 C   0  0  0  0  0  0  0  0  0  0  0  0
    5.9864   -6.1264    1.3048 C   0  0  0  0  0  0  0  0  0  0  0  0
    7.2616   -6.5293    1.6600 C   0  0  0  0  0  0  0  0  0  0  0  0
    8.3280   -5.1554    1.6251 S   0  0  0  0  0  0  0  0  0  0  0  0
    7.0290   -4.0539    1.2142 C   0  0  0  0  0  0  0  0  0  0  0  0
    5.8519   -4.7636    1.0803 C   0  0  0  0  0  0  0  0  0  0  0  0
    4.4528   -4.4146    0.6765 C   0  0  1  0  0  0  0  0  0  0  0  0
    5.5649   -3.3813   -3.8197 H   0  0  0  0  0  0  0  0  0  0  0  0
    5.7922   -4.6852   -1.7023 H   0  0  0  0  0  0  0  0  0  0  0  0
    2.6369   -0.8839   -1.8713 H   0  0  0  0  0  0  0  0  0  0  0  0
    2.2222   -1.3171    0.4113 H   0  0  0  0  0  0  0  0  0  0  0  0
    5.4283   -1.6747    1.0966 H   0  0  0  0  0  0  0  0  0  0  0  0
    4.4289   -0.4421    1.7545 H   0  0  0  0  0  0  0  0  0  0  0  0
    5.7589   -2.6543    3.3298 H   0  0  0  0  0  0  0  0  0  0  0  0
    6.2909   -0.9799    3.2156 H   0  0  0  0  0  0  0  0  0  0  0  0
    4.9971   -1.5005    5.3244 H   0  0  0  0  0  0  0  0  0  0  0  0
    4.2896   -0.1503    4.3945 H   0  0  0  0  0  0  0  0  0  0  0  0
    3.6064   -3.0602    4.4923 H   0  0  0  0  0  0  0  0  0  0  0  0
    2.5263   -1.8278    5.1528 H   0  0  0  0  0  0  0  0  0  0  0  0
    2.1760   -0.8825    2.7900 H   0  0  0  0  0  0  0  0  0  0  0  0
    1.5581   -2.4391    2.9742 H   0  0  0  0  0  0  0  0  0  0  0  0
    3.6517   -5.8562    3.5745 H   0  0  0  0  0  0  0  0  0  0  0  0
    2.5593   -4.6807    4.3360 H   0  0  0  0  0  0  0  0  0  0  0  0
    1.6843   -6.7935    4.7441 H   0  0  0  0  0  0  0  0  0  0  0  0
    0.6263   -5.7897    3.7501 H   0  0  0  0  0  0  0  0  0  0  0  0
    2.4202   -8.0558    2.8016 H   0  0  0  0  0  0  0  0  0  0  0  0
    0.6531   -8.0739    2.8401 H   0  0  0  0  0  0  0  0  0  0  0  0
    1.7292   -7.5913    0.5711 H   0  0  0  0  0  0  0  0  0  0  0  0
    0.4591   -6.4983    1.0668 H   0  0  0  0  0  0  0  0  0  0  0  0
    1.9191   -5.0092    0.3254 H   0  0  0  0  0  0  0  0  0  0  0  0
    3.7763   -6.0309   -0.6312 H   0  0  0  0  0  0  0  0  0  0  0  0
    4.3582   -7.1766    2.0777 H   0  0  0  0  0  0  0  0  0  0  0  0
    4.8637   -7.7483    0.4805 H   0  0  0  0  0  0  0  0  0  0  0  0
    7.6124   -7.5289    1.8650 H   0  0  0  0  0  0  0  0  0  0  0  0
    7.2242   -3.0025    1.0871 H   0  0  0  0  0  0  0  0  0  0  0  0
  1  2  1  0
  2  7  2  0
  2  3  1  0
  3  4  2  0
  3 30  1  0
  4  5  1  0
  4 31  1  0
 29  5  1  6
  5  6  2  0
  6  7  1  0
  6  8  1  0
  7 32  1  0
  8  9  1  0
  8 33  1  0
  9 14  1  0
  9 10  1  0
  9 15  1  0
 10 11  1  0
 10 34  1  0
 10 35  1  0
 11 12  1  0
 11 36  1  0
 11 37  1  0
 12 13  1  0
 12 38  1  0
 12 39  1  0
 13 14  1  0
 13 40  1  0
 13 41  1  0
 14 42  1  0
 14 43  1  0
 15 29  1  0
 15 16  1  0
 16 21  1  0
 16 17  1  0
 17 18  1  0
 17 44  1  0
 17 45  1  0
 18 19  1  0
 18 46  1  0
 18 47  1  0
 19 20  1  0
 19 48  1  0
 19 49  1  0
 20 21  1  0
 20 50  1  0
 20 51  1  0
 21 22  1  0
 21 52  1  6
 22 29  1  0
 22 23  1  0
 22 53  1  6
 23 24  1  0
 23 54  1  0
 23 55  1  0
 24 28  1  0
 24 25  2  0
 25 26  1  0
 25 56  1  0
 26 27  1  0
 27 28  2  0
 27 57  1  0
 28 29  1  0
M  END
>  <i_m_ct_stereo_status>  (293) 
1

>  <s_m_source_file>  (293) 
/var/tmp/pbs.5076255.sched01/tmpnby3vxlc/96d7dj3887.sdf

>  <i_m_source_file_index>  (293) 
27

>  <i_lp_mmshare_version>  (293) 
48012

>  <i_f3d_flags>  (293) 
0

>  <s_epik_input>  (293) 
W0NIMl0xW0NIMl1bQ0gyXVtDSDJdTjJbQ0BIXTFbQ0BIXShbQ0gyXWMzYzRbY0hdc1tjSF0zKVtDQEBdNChjNWMoW05IXTYpW2NIXWMoQnIpW2NIXVtjSF01KU4yQzY3W0NIMl1bQ0gyXVtDSDJdW0NIMl1bQ0gyXTc=

>  <s_epik_cmdline>  (293) 
J2VwaWtfcHl0aG9uJywgJy1waHQnLCAnMi4wJywgJy1waCcsICc3LjAnLCAnLXRuJywgJzgnLCAnLW1hJywgJzIwMCcsICctaW1hZScsICc8aW5maWxlLm1hZT4nLCAnLW9tYWUnLCAnPG91dGZpbGUubWFlPic=

>  <r_epik_Ionization_Penalty>  (293) 
0.812766

>  <r_epik_Ionization_Penalty_Charging>  (293) 
0

>  <r_epik_Ionization_Penalty_Neutral>  (293) 
0.812766

>  <r_epik_State_Penalty>  (293) 
0.702023

>  <r_epik_Charging_Adjusted_Penalty>  (293) 
0.702023

>  <i_epik_Tot_Q>  (293) 
0

>  <i_epik_Tot_abs_Q>  (293) 
0

>  <s_lp_Force_Field>  (293) 
OPLS3e

>  <r_lp_Energy>  (293) 
55.4047

>  <b_lp_Chiralities_Consistent>  (293) 
1

>  <s_lp_Variant>  (293) 
70:0-2

>  <s_i_glide_gridfile>  (293) 
pfpi4k_grid

>  <i_i_glide_lignum>  (293) 
27

>  <i_i_glide_rotatable_bonds>  (293) 
0

>  <r_i_docking_score>  (293) 
-3.13334

>  <r_i_glide_ligand_efficiency>  (293) 
-0.108046

>  <r_i_glide_ligand_efficiency_sa>  (293) 
-0.331953

>  <r_i_glide_ligand_efficiency_ln>  (293) 
-0.717456

>  <r_i_glide_gscore>  (293) 
-3.13334

>  <r_i_glide_lipo>  (293) 
-0.965949

>  <r_i_glide_hbond>  (293) 
-0.0942783

>  <r_i_glide_metal>  (293) 
-0

>  <r_i_glide_rewards>  (293) 
-0.207523

>  <r_i_glide_evdw>  (293) 
-29.5633

>  <r_i_glide_ecoul>  (293) 
-2.05171

>  <r_i_glide_erotb>  (293) 
0

>  <r_i_glide_esite>  (293) 
-0.0796734

>  <r_i_glide_emodel>  (293) 
-37.0842

>  <r_i_glide_energy>  (293) 
-31.615

>  <r_i_glide_einternal>  (293) 
0

>  <r_i_glide_intrahb_reward>  (293) 
-0

>  <i_i_glide_confnum>  (293) 
4

>  <i_i_glide_posenum>  (293) 
28

>  <r_i_glide_eff_state_penalty>  (293) 
0

>  <ligand_id>  (293) 
70

>  <original_smiles>  (293) 
Brc1ccc2c(c1)NC1(CCCCC1)N1N3CCCCC3C3Cc4cscc4C231

>  <smiles>  (293) 
[H]c1sc([H])c2c1C([H])([H])C1([H])C23c2c([H])c([H])c(Br)c([H])c2N([H])C2(N3N3C([H])([H])C([H])([H])C([H])([H])C([H])([H])C31[H])C([H])([H])C([H])([H])C([H])([H])C([H])([H])C2([H])[H]

$$$$
70:1:1
     RDKit          3D

 57 63  0  0  1  0  0  0  0  0999 V2000
    3.8076   -1.1034   -4.1714 Br  0  0  0  0  0  0  0  0  0  0  0  0
    4.0704   -2.1896   -2.6307 C   0  0  0  0  0  0  0  0  0  0  0  0
    4.8828   -3.3408   -2.6696 C   0  0  0  0  0  0  0  0  0  0  0  0
    5.0170   -4.1394   -1.5188 C   0  0  0  0  0  0  0  0  0  0  0  0
    4.3688   -3.8029   -0.3213 C   0  0  0  0  0  0  0  0  0  0  0  0
    3.5773   -2.6347   -0.2806 C   0  0  0  0  0  0  0  0  0  0  0  0
    3.4295   -1.8358   -1.4335 C   0  0  0  0  0  0  0  0  0  0  0  0
    2.9913   -2.2560    0.9238 N   0  0  0  0  0  0  0  0  0  0  0  0
    3.7066   -2.6148    2.1517 C   0  0  0  0  0  0  0  0  0  0  0  0
    5.0752   -1.8690    2.2006 C   0  0  0  0  0  0  0  0  0  0  0  0
    4.9184   -0.3452    2.3398 C   0  0  0  0  0  0  0  0  0  0  0  0
    4.0910    0.0272    3.5728 C   0  0  0  0  0  0  0  0  0  0  0  0
    2.7233   -0.6502    3.5280 C   0  0  0  0  0  0  0  0  0  0  0  0
    2.8690   -2.1634    3.3859 C   0  0  0  0  0  0  0  0  0  0  0  0
    3.8874   -4.0987    2.1642 N   0  0  0  0  0  0  0  0  0  0  0  0
    2.7081   -4.8422    2.5458 N   0  0  0  0  0  0  0  0  0  0  0  0
    2.8415   -5.5416    3.8350 C   0  0  0  0  0  0  0  0  0  0  0  0
    1.6248   -6.4249    4.1426 C   0  0  0  0  0  0  0  0  0  0  0  0
    1.4258   -7.4852    3.0519 C   0  0  0  0  0  0  0  0  0  0  0  0
    1.3605   -6.8550    1.6551 C   0  0  0  0  0  0  0  0  0  0  0  0
    2.3693   -5.7087    1.4195 C   0  0  2  0  0  0  0  0  0  0  0  0
    3.6737   -6.0182    0.7114 C   0  0  2  0  0  0  0  0  0  0  0  0
    4.5289   -7.1923    1.2668 C   0  0  0  0  0  0  0  0  0  0  0  0
    5.8725   -6.5846    1.4072 C   0  0  0  0  0  0  0  0  0  0  0  0
    7.1101   -7.1030    1.6604 C   0  0  0  0  0  0  0  0  0  0  0  0
    8.3064   -5.8333    1.6520 S   0  0  0  0  0  0  0  0  0  0  0  0
    7.0915   -4.6182    1.3192 C   0  0  0  0  0  0  0  0  0  0  0  0
    5.8518   -5.1914    1.2353 C   0  0  0  0  0  0  0  0  0  0  0  0
    4.4698   -4.6996    0.9239 C   0  0  1  0  0  0  0  0  0  0  0  0
    5.3857   -3.6239   -3.5812 H   0  0  0  0  0  0  0  0  0  0  0  0
    5.5911   -5.0456   -1.5290 H   0  0  0  0  0  0  0  0  0  0  0  0
    2.8234   -0.9423   -1.4059 H   0  0  0  0  0  0  0  0  0  0  0  0
    2.5579   -1.3440    0.9236 H   0  0  0  0  0  0  0  0  0  0  0  0
    5.6742   -2.2504    3.0298 H   0  0  0  0  0  0  0  0  0  0  0  0
    5.6699   -2.0526    1.3059 H   0  0  0  0  0  0  0  0  0  0  0  0
    5.9074    0.1090    2.4083 H   0  0  0  0  0  0  0  0  0  0  0  0
    4.4568    0.0690    1.4406 H   0  0  0  0  0  0  0  0  0  0  0  0
    4.6247   -0.2888    4.4671 H   0  0  0  0  0  0  0  0  0  0  0  0
    3.9671    1.1050    3.6327 H   0  0  0  0  0  0  0  0  0  0  0  0
    2.1674   -0.4374    4.4382 H   0  0  0  0  0  0  0  0  0  0  0  0
    2.1251   -0.2583    2.7037 H   0  0  0  0  0  0  0  0  0  0  0  0
    1.8554   -2.5734    3.3503 H   0  0  0  0  0  0  0  0  0  0  0  0
    3.3311   -2.5554    4.2945 H   0  0  0  0  0  0  0  0  0  0  0  0
    3.7512   -6.1393    3.8240 H   0  0  0  0  0  0  0  0  0  0  0  0
    2.9661   -4.7971    4.6287 H   0  0  0  0  0  0  0  0  0  0  0  0
    1.7684   -6.9148    5.1071 H   0  0  0  0  0  0  0  0  0  0  0  0
    0.7330   -5.7974    4.2350 H   0  0  0  0  0  0  0  0  0  0  0  0
    2.2377   -8.2078    3.0893 H   0  0  0  0  0  0  0  0  0  0  0  0
    0.5066   -8.0392    3.2393 H   0  0  0  0  0  0  0  0  0  0  0  0
    1.4930   -7.6205    0.8881 H   0  0  0  0  0  0  0  0  0  0  0  0
    0.3583   -6.4601    1.5005 H   0  0  0  0  0  0  0  0  0  0  0  0
    1.8595   -5.0440    0.7205 H   0  0  0  0  0  0  0  0  0  0  0  0
    3.5120   -6.2102   -0.3427 H   0  0  0  0  0  0  0  0  0  0  0  0
    4.1819   -7.5124    2.2482 H   0  0  0  0  0  0  0  0  0  0  0  0
    4.5233   -8.0600    0.6047 H   0  0  0  0  0  0  0  0  0  0  0  0
    7.3894   -8.1370    1.8186 H   0  0  0  0  0  0  0  0  0  0  0  0
    7.3750   -3.5843    1.2106 H   0  0  0  0  0  0  0  0  0  0  0  0
  1  2  1  0
  2  7  2  0
  2  3  1  0
  3  4  2  0
  3 30  1  0
  4  5  1  0
  4 31  1  0
 29  5  1  6
  5  6  2  0
  6  7  1  0
  6  8  1  0
  7 32  1  0
  8  9  1  0
  8 33  1  0
  9 14  1  0
  9 10  1  0
  9 15  1  0
 10 11  1  0
 10 34  1  0
 10 35  1  0
 11 12  1  0
 11 36  1  0
 11 37  1  0
 12 13  1  0
 12 38  1  0
 12 39  1  0
 13 14  1  0
 13 40  1  0
 13 41  1  0
 14 42  1  0
 14 43  1  0
 15 29  1  0
 15 16  1  0
 16 21  1  0
 16 17  1  0
 17 18  1  0
 17 44  1  0
 17 45  1  0
 18 19  1  0
 18 46  1  0
 18 47  1  0
 19 20  1  0
 19 48  1  0
 19 49  1  0
 20 21  1  0
 20 50  1  0
 20 51  1  0
 21 22  1  0
 21 52  1  6
 22 29  1  0
 22 23  1  0
 22 53  1  6
 23 24  1  0
 23 54  1  0
 23 55  1  0
 24 28  1  0
 24 25  2  0
 25 26  1  0
 25 56  1  0
 26 27  1  0
 27 28  2  0
 27 57  1  0
 28 29  1  0
M  END
>  <i_m_ct_stereo_status>  (294) 
1

>  <s_m_source_file>  (294) 
/var/tmp/pbs.5076255.sched01/tmpnby3vxlc/96d7dj3887.sdf

>  <i_m_source_file_index>  (294) 
27

>  <i_lp_mmshare_version>  (294) 
48012

>  <i_f3d_flags>  (294) 
0

>  <s_epik_input>  (294) 
W0NIMl0xW0NIMl1bQ0gyXVtDSDJdTjJbQ0BIXTFbQ0BIXShbQ0gyXWMzYzRbY0hdc1tjSF0zKVtDQEBdNChjNWMoW05IXTYpW2NIXWMoQnIpW2NIXVtjSF01KU4yQzY3W0NIMl1bQ0gyXVtDSDJdW0NIMl1bQ0gyXTc=

>  <s_epik_cmdline>  (294) 
J2VwaWtfcHl0aG9uJywgJy1waHQnLCAnMi4wJywgJy1waCcsICc3LjAnLCAnLXRuJywgJzgnLCAnLW1hJywgJzIwMCcsICctaW1hZScsICc8aW5maWxlLm1hZT4nLCAnLW9tYWUnLCAnPG91dGZpbGUubWFlPic=

>  <r_epik_Ionization_Penalty>  (294) 
0.812766

>  <r_epik_Ionization_Penalty_Charging>  (294) 
0

>  <r_epik_Ionization_Penalty_Neutral>  (294) 
0.812766

>  <r_epik_State_Penalty>  (294) 
0.702023

>  <r_epik_Charging_Adjusted_Penalty>  (294) 
0.702023

>  <i_epik_Tot_Q>  (294) 
0

>  <i_epik_Tot_abs_Q>  (294) 
0

>  <s_lp_Force_Field>  (294) 
OPLS3e

>  <r_lp_Energy>  (294) 
55.4047

>  <b_lp_Chiralities_Consistent>  (294) 
1

>  <s_lp_Variant>  (294) 
70:0-2

>  <s_i_glide_gridfile>  (294) 
pfpi4k_grid

>  <i_i_glide_lignum>  (294) 
27

>  <i_i_glide_rotatable_bonds>  (294) 
0

>  <r_i_docking_score>  (294) 
-3.11049

>  <r_i_glide_ligand_efficiency>  (294) 
-0.107258

>  <r_i_glide_ligand_efficiency_sa>  (294) 
-0.329531

>  <r_i_glide_ligand_efficiency_ln>  (294) 
-0.712222

>  <r_i_glide_gscore>  (294) 
-3.11049

>  <r_i_glide_lipo>  (294) 
-1.00132

>  <r_i_glide_hbond>  (294) 
0

>  <r_i_glide_metal>  (294) 
-0

>  <r_i_glide_rewards>  (294) 
-0.205345

>  <r_i_glide_evdw>  (294) 
-35.1341

>  <r_i_glide_ecoul>  (294) 
-0.679579

>  <r_i_glide_erotb>  (294) 
0

>  <r_i_glide_esite>  (294) 
-0.0451783

>  <r_i_glide_emodel>  (294) 
-42.4207

>  <r_i_glide_energy>  (294) 
-35.8137

>  <r_i_glide_einternal>  (294) 
0

>  <r_i_glide_intrahb_reward>  (294) 
-0

>  <i_i_glide_confnum>  (294) 
1

>  <i_i_glide_posenum>  (294) 
5

>  <r_i_glide_eff_state_penalty>  (294) 
0

>  <ligand_id>  (294) 
70

>  <original_smiles>  (294) 
Brc1ccc2c(c1)NC1(CCCCC1)N1N3CCCCC3C3Cc4cscc4C231

>  <smiles>  (294) 
[H]c1sc([H])c2c1C([H])([H])C1([H])C23c2c([H])c([H])c(Br)c([H])c2N([H])C2(N3N3C([H])([H])C([H])([H])C([H])([H])C([H])([H])C31[H])C([H])([H])C([H])([H])C([H])([H])C([H])([H])C2([H])[H]

$$$$
70:1:2
     RDKit          3D

 57 63  0  0  1  0  0  0  0  0999 V2000
   -0.1968   -8.0502    3.9592 Br  0  0  0  0  0  0  0  0  0  0  0  0
    1.0876   -6.7559    3.4207 C   0  0  0  0  0  0  0  0  0  0  0  0
    0.8711   -5.3954    3.7017 C   0  0  0  0  0  0  0  0  0  0  0  0
    1.7942   -4.4252    3.2845 C   0  0  0  0  0  0  0  0  0  0  0  0
    2.9516   -4.8038    2.5801 C   0  0  0  0  0  0  0  0  0  0  0  0
    3.1834   -6.1762    2.3198 C   0  0  0  0  0  0  0  0  0  0  0  0
    2.2488   -7.1488    2.7259 C   0  0  0  0  0  0  0  0  0  0  0  0
    4.3757   -6.5620    1.7004 N   0  0  0  0  0  0  0  0  0  0  0  0
    5.5477   -5.7246    1.9657 C   0  0  0  0  0  0  0  0  0  0  0  0
    5.9188   -5.7989    3.4787 C   0  0  0  0  0  0  0  0  0  0  0  0
    6.4078   -7.1944    3.9164 C   0  0  0  0  0  0  0  0  0  0  0  0
    7.5981   -7.6679    3.0734 C   0  0  0  0  0  0  0  0  0  0  0  0
    7.2442   -7.6523    1.5886 C   0  0  0  0  0  0  0  0  0  0  0  0
    6.7631   -6.2641    1.1567 C   0  0  0  0  0  0  0  0  0  0  0  0
    5.2264   -4.3277    1.5374 N   0  0  0  0  0  0  0  0  0  0  0  0
    5.2895   -4.1072    0.1115 N   0  0  0  0  0  0  0  0  0  0  0  0
    6.3870   -3.2191   -0.3052 C   0  0  0  0  0  0  0  0  0  0  0  0
    6.3400   -2.9095   -1.8094 C   0  0  0  0  0  0  0  0  0  0  0  0
    5.0171   -2.2289   -2.1866 C   0  0  0  0  0  0  0  0  0  0  0  0
    3.8088   -3.0475   -1.7156 C   0  0  0  0  0  0  0  0  0  0  0  0
    3.9590   -3.6808   -0.3145 C   0  0  2  0  0  0  0  0  0  0  0  0
    3.3329   -2.9696    0.8750 C   0  0  2  0  0  0  0  0  0  0  0  0
    3.6930   -1.4676    1.0629 C   0  0  0  0  0  0  0  0  0  0  0  0
    4.1287   -1.4022    2.4779 C   0  0  0  0  0  0  0  0  0  0  0  0
    4.3813   -0.3639    3.3312 C   0  0  0  0  0  0  0  0  0  0  0  0
    4.8232   -0.9737    4.9051 S   0  0  0  0  0  0  0  0  0  0  0  0
    4.6640   -2.6316    4.3663 C   0  0  0  0  0  0  0  0  0  0  0  0
    4.2972   -2.6744    3.0468 C   0  0  0  0  0  0  0  0  0  0  0  0
    3.9516   -3.7562    2.0681 C   0  0  1  0  0  0  0  0  0  0  0  0
   -0.0170   -5.1001    4.2382 H   0  0  0  0  0  0  0  0  0  0  0  0
    1.6124   -3.3805    3.4854 H   0  0  0  0  0  0  0  0  0  0  0  0
    2.4248   -8.1975    2.5206 H   0  0  0  0  0  0  0  0  0  0  0  0
    4.5743   -7.5512    1.7207 H   0  0  0  0  0  0  0  0  0  0  0  0
    6.6889   -5.0605    3.6987 H   0  0  0  0  0  0  0  0  0  0  0  0
    5.0762   -5.5358    4.1182 H   0  0  0  0  0  0  0  0  0  0  0  0
    6.6882   -7.1646    4.9715 H   0  0  0  0  0  0  0  0  0  0  0  0
    5.5909   -7.9136    3.8441 H   0  0  0  0  0  0  0  0  0  0  0  0
    8.4474   -7.0078    3.2468 H   0  0  0  0  0  0  0  0  0  0  0  0
    7.9026   -8.6678    3.3729 H   0  0  0  0  0  0  0  0  0  0  0  0
    8.1162   -7.9236    0.9960 H   0  0  0  0  0  0  0  0  0  0  0  0
    6.4806   -8.4006    1.3687 H   0  0  0  0  0  0  0  0  0  0  0  0
    6.5229   -6.3046    0.0910 H   0  0  0  0  0  0  0  0  0  0  0  0
    7.6005   -5.5703    1.2464 H   0  0  0  0  0  0  0  0  0  0  0  0
    6.3378   -2.2991    0.2746 H   0  0  0  0  0  0  0  0  0  0  0  0
    7.3441   -3.6941   -0.0595 H   0  0  0  0  0  0  0  0  0  0  0  0
    7.1833   -2.2712   -2.0778 H   0  0  0  0  0  0  0  0  0  0  0  0
    6.4625   -3.8355   -2.3789 H   0  0  0  0  0  0  0  0  0  0  0  0
    4.9706   -1.2309   -1.7554 H   0  0  0  0  0  0  0  0  0  0  0  0
    4.9618   -2.1112   -3.2678 H   0  0  0  0  0  0  0  0  0  0  0  0
    2.8964   -2.4445   -1.7432 H   0  0  0  0  0  0  0  0  0  0  0  0
    3.6466   -3.8549   -2.4267 H   0  0  0  0  0  0  0  0  0  0  0  0
    3.3964   -4.6134   -0.3847 H   0  0  0  0  0  0  0  0  0  0  0  0
    2.2451   -3.0531    0.8669 H   0  0  0  0  0  0  0  0  0  0  0  0
    4.5255   -1.1696    0.4290 H   0  0  0  0  0  0  0  0  0  0  0  0
    2.8517   -0.8088    0.8473 H   0  0  0  0  0  0  0  0  0  0  0  0
    4.3008    0.6955    3.1331 H   0  0  0  0  0  0  0  0  0  0  0  0
    4.8310   -3.4443    5.0547 H   0  0  0  0  0  0  0  0  0  0  0  0
  1  2  1  0
  2  7  2  0
  2  3  1  0
  3  4  2  0
  3 30  1  0
  4  5  1  0
  4 31  1  0
 29  5  1  1
  5  6  2  0
  6  7  1  0
  6  8  1  0
  7 32  1  0
  8  9  1  0
  8 33  1  0
  9 14  1  0
  9 10  1  0
  9 15  1  0
 10 11  1  0
 10 34  1  0
 10 35  1  0
 11 12  1  0
 11 36  1  0
 11 37  1  0
 12 13  1  0
 12 38  1  0
 12 39  1  0
 13 14  1  0
 13 40  1  0
 13 41  1  0
 14 42  1  0
 14 43  1  0
 15 29  1  0
 15 16  1  0
 16 21  1  0
 16 17  1  0
 17 18  1  0
 17 44  1  0
 17 45  1  0
 18 19  1  0
 18 46  1  0
 18 47  1  0
 19 20  1  0
 19 48  1  0
 19 49  1  0
 20 21  1  0
 20 50  1  0
 20 51  1  0
 21 22  1  0
 21 52  1  6
 22 29  1  0
 22 23  1  0
 22 53  1  6
 23 24  1  0
 23 54  1  0
 23 55  1  0
 24 28  1  0
 24 25  2  0
 25 26  1  0
 25 56  1  0
 26 27  1  0
 27 28  2  0
 27 57  1  0
 28 29  1  0
M  END
>  <i_m_ct_stereo_status>  (295) 
1

>  <s_m_source_file>  (295) 
/var/tmp/pbs.5076255.sched01/tmpnby3vxlc/96d7dj3887.sdf

>  <i_m_source_file_index>  (295) 
27

>  <i_lp_mmshare_version>  (295) 
48012

>  <i_f3d_flags>  (295) 
0

>  <s_epik_input>  (295) 
W0NIMl0xW0NIMl1bQ0gyXVtDSDJdTjJbQ0BIXTFbQ0BIXShbQ0gyXWMzYzRbY0hdc1tjSF0zKVtDQEBdNChjNWMoW05IXTYpW2NIXWMoQnIpW2NIXVtjSF01KU4yQzY3W0NIMl1bQ0gyXVtDSDJdW0NIMl1bQ0gyXTc=

>  <s_epik_cmdline>  (295) 
J2VwaWtfcHl0aG9uJywgJy1waHQnLCAnMi4wJywgJy1waCcsICc3LjAnLCAnLXRuJywgJzgnLCAnLW1hJywgJzIwMCcsICctaW1hZScsICc8aW5maWxlLm1hZT4nLCAnLW9tYWUnLCAnPG91dGZpbGUubWFlPic=

>  <r_epik_Ionization_Penalty>  (295) 
0.812766

>  <r_epik_Ionization_Penalty_Charging>  (295) 
0

>  <r_epik_Ionization_Penalty_Neutral>  (295) 
0.812766

>  <r_epik_State_Penalty>  (295) 
0.702023

>  <r_epik_Charging_Adjusted_Penalty>  (295) 
0.702023

>  <i_epik_Tot_Q>  (295) 
0

>  <i_epik_Tot_abs_Q>  (295) 
0

>  <s_lp_Force_Field>  (295) 
OPLS3e

>  <r_lp_Energy>  (295) 
55.4047

>  <b_lp_Chiralities_Consistent>  (295) 
1

>  <s_lp_Variant>  (295) 
70:0-2

>  <s_i_glide_gridfile>  (295) 
pfpi4k_grid

>  <i_i_glide_lignum>  (295) 
27

>  <i_i_glide_rotatable_bonds>  (295) 
0

>  <r_i_docking_score>  (295) 
-2.5055

>  <r_i_glide_ligand_efficiency>  (295) 
-0.0863964

>  <r_i_glide_ligand_efficiency_sa>  (295) 
-0.265437

>  <r_i_glide_ligand_efficiency_ln>  (295) 
-0.573695

>  <r_i_glide_gscore>  (295) 
-2.5055

>  <r_i_glide_lipo>  (295) 
-0.432866

>  <r_i_glide_hbond>  (295) 
0

>  <r_i_glide_metal>  (295) 
-0

>  <r_i_glide_rewards>  (295) 
-0.379539

>  <r_i_glide_evdw>  (295) 
-30.7794

>  <r_i_glide_ecoul>  (295) 
-1.02747

>  <r_i_glide_erotb>  (295) 
0

>  <r_i_glide_esite>  (295) 
0

>  <r_i_glide_emodel>  (295) 
-37.0933

>  <r_i_glide_energy>  (295) 
-31.8068

>  <r_i_glide_einternal>  (295) 
0

>  <r_i_glide_intrahb_reward>  (295) 
-0

>  <i_i_glide_confnum>  (295) 
3

>  <i_i_glide_posenum>  (295) 
33

>  <r_i_glide_eff_state_penalty>  (295) 
0

>  <ligand_id>  (295) 
70

>  <original_smiles>  (295) 
Brc1ccc2c(c1)NC1(CCCCC1)N1N3CCCCC3C3Cc4cscc4C231

>  <smiles>  (295) 
[H]c1sc([H])c2c1C([H])([H])C1([H])C23c2c([H])c([H])c(Br)c([H])c2N([H])C2(N3N3C([H])([H])C([H])([H])C([H])([H])C([H])([H])C31[H])C([H])([H])C([H])([H])C([H])([H])C([H])([H])C2([H])[H]

$$$$
70:2:0
     RDKit          3D

 58 64  0  0  1  0  0  0  0  0999 V2000
   -1.3044   -8.3691    2.4880 Br  0  0  0  0  0  0  0  0  0  0  0  0
    0.1130   -7.1251    2.7358 C   0  0  0  0  0  0  0  0  0  0  0  0
    0.3314   -6.5507    4.0041 C   0  0  0  0  0  0  0  0  0  0  0  0
    1.3640   -5.6159    4.1901 C   0  0  0  0  0  0  0  0  0  0  0  0
    2.1914   -5.2272    3.1146 C   0  0  0  0  0  0  0  0  0  0  0  0
    1.9692   -5.8168    1.8345 C   0  0  0  0  0  0  0  0  0  0  0  0
    0.9366   -6.7570    1.6502 C   0  0  0  0  0  0  0  0  0  0  0  0
    2.8025   -5.4618    0.7638 N   0  0  0  0  0  0  0  0  0  0  0  0
    4.1641   -5.0643    1.1163 C   0  0  0  0  0  0  0  0  0  0  0  0
    4.9221   -6.2782    1.7473 C   0  0  0  0  0  0  0  0  0  0  0  0
    6.3889   -5.9672    2.0946 C   0  0  0  0  0  0  0  0  0  0  0  0
    7.1580   -5.4996    0.8559 C   0  0  0  0  0  0  0  0  0  0  0  0
    6.4376   -4.3200    0.2044 C   0  0  0  0  0  0  0  0  0  0  0  0
    4.9603   -4.6536   -0.1518 C   0  0  0  0  0  0  0  0  0  0  0  0
    4.0833   -3.9235    2.0470 N   0  0  0  0  0  0  0  0  0  0  0  0
    3.6095   -2.6424    1.4104 N   0  0  2  0  0  0  0  0  0  0  0  0
    4.6948   -1.6322    1.2087 C   0  0  0  0  0  0  0  0  0  0  0  0
    4.1721   -0.2543    0.8382 C   0  0  0  0  0  0  0  0  0  0  0  0
    3.2779    0.2938    1.9393 C   0  0  0  0  0  0  0  0  0  0  0  0
    2.1029   -0.6691    2.1408 C   0  0  0  0  0  0  0  0  0  0  0  0
    2.4870   -2.1669    2.2346 C   0  0  2  0  0  0  0  0  0  0  0  0
    2.7080   -2.7910    3.5974 C   0  0  2  0  0  0  0  0  0  0  0  0
    3.6648   -2.0889    4.6089 C   0  0  0  0  0  0  0  0  0  0  0  0
    4.3533   -3.2367    5.2425 C   0  0  0  0  0  0  0  0  0  0  0  0
    5.1333   -3.3677    6.3643 C   0  0  0  0  0  0  0  0  0  0  0  0
    5.6349   -5.0312    6.5369 S   0  0  0  0  0  0  0  0  0  0  0  0
    4.7532   -5.5158    5.1076 C   0  0  0  0  0  0  0  0  0  0  0  0
    4.1495   -4.4287    4.5352 C   0  0  0  0  0  0  0  0  0  0  0  0
    3.3186   -4.1930    3.2967 C   0  0  1  0  0  0  0  0  0  0  0  0
   -0.2969   -6.8479    4.8332 H   0  0  0  0  0  0  0  0  0  0  0  0
    1.5226   -5.1853    5.1706 H   0  0  0  0  0  0  0  0  0  0  0  0
    0.7632   -7.2050    0.6759 H   0  0  0  0  0  0  0  0  0  0  0  0
    2.7612   -6.0794   -0.0364 H   0  0  0  0  0  0  0  0  0  0  0  0
    4.4217   -6.6797    2.6267 H   0  0  0  0  0  0  0  0  0  0  0  0
    4.9078   -7.1127    1.0450 H   0  0  0  0  0  0  0  0  0  0  0  0
    6.4274   -5.2002    2.8705 H   0  0  0  0  0  0  0  0  0  0  0  0
    6.8648   -6.8482    2.5240 H   0  0  0  0  0  0  0  0  0  0  0  0
    8.1578   -5.1845    1.1530 H   0  0  0  0  0  0  0  0  0  0  0  0
    7.2641   -6.3094    0.1394 H   0  0  0  0  0  0  0  0  0  0  0  0
    6.5292   -3.5227    0.9450 H   0  0  0  0  0  0  0  0  0  0  0  0
    6.9629   -3.9737   -0.6903 H   0  0  0  0  0  0  0  0  0  0  0  0
    4.9399   -5.4728   -0.8700 H   0  0  0  0  0  0  0  0  0  0  0  0
    4.4957   -3.8311   -0.7019 H   0  0  0  0  0  0  0  0  0  0  0  0
    5.3449   -1.5686    2.0837 H   0  0  0  0  0  0  0  0  0  0  0  0
    5.3086   -1.9042    0.3564 H   0  0  0  0  0  0  0  0  0  0  0  0
    5.0177    0.4157    0.6730 H   0  0  0  0  0  0  0  0  0  0  0  0
    3.6338   -0.3220   -0.1069 H   0  0  0  0  0  0  0  0  0  0  0  0
    3.8517    0.4160    2.8571 H   0  0  0  0  0  0  0  0  0  0  0  0
    2.9084    1.2785    1.6534 H   0  0  0  0  0  0  0  0  0  0  0  0
    1.5311   -0.3814    3.0234 H   0  0  0  0  0  0  0  0  0  0  0  0
    1.4310   -0.5466    1.2850 H   0  0  0  0  0  0  0  0  0  0  0  0
    1.6202   -2.6960    1.8278 H   0  0  0  0  0  0  0  0  0  0  0  0
    1.7613   -2.8985    4.1136 H   0  0  0  0  0  0  0  0  0  0  0  0
    4.4114   -1.4677    4.1033 H   0  0  0  0  0  0  0  0  0  0  0  0
    3.1339   -1.4665    5.3307 H   0  0  0  0  0  0  0  0  0  0  0  0
    5.4354   -2.6118    7.0680 H   0  0  0  0  0  0  0  0  0  0  0  0
    4.7747   -6.5422    4.7800 H   0  0  0  0  0  0  0  0  0  0  0  0
    3.2347   -2.9054    0.5060 H   0  0  0  0  0  0  0  0  0  0  0  0
  1  2  1  0
  2  7  2  0
  2  3  1  0
  3  4  2  0
  3 30  1  0
  4  5  1  0
  4 31  1  0
 29  5  1  6
  5  6  2  0
  6  7  1  0
  6  8  1  0
  7 32  1  0
  8  9  1  0
  8 33  1  0
  9 14  1  0
  9 10  1  0
  9 15  1  0
 10 11  1  0
 10 34  1  0
 10 35  1  0
 11 12  1  0
 11 36  1  0
 11 37  1  0
 12 13  1  0
 12 38  1  0
 12 39  1  0
 13 14  1  0
 13 40  1  0
 13 41  1  0
 14 42  1  0
 14 43  1  0
 15 29  1  0
 15 16  1  0
 16 21  1  0
 16 17  1  0
 16 58  1  6
 17 18  1  0
 17 44  1  0
 17 45  1  0
 18 19  1  0
 18 46  1  0
 18 47  1  0
 19 20  1  0
 19 48  1  0
 19 49  1  0
 20 21  1  0
 20 50  1  0
 20 51  1  0
 21 22  1  0
 21 52  1  6
 22 29  1  0
 22 23  1  0
 22 53  1  1
 23 24  1  0
 23 54  1  0
 23 55  1  0
 24 28  1  0
 24 25  2  0
 25 26  1  0
 25 56  1  0
 26 27  1  0
 27 28  2  0
 27 57  1  0
 28 29  1  0
M  CHG  1  16   1
M  END
>  <i_m_ct_stereo_status>  (296) 
1

>  <s_m_source_file>  (296) 
/var/tmp/pbs.5076255.sched01/tmpnby3vxlc/96d7dj3887.sdf

>  <i_m_source_file_index>  (296) 
28

>  <i_lp_mmshare_version>  (296) 
48012

>  <i_f3d_flags>  (296) 
0

>  <s_epik_input>  (296) 
W0NIMl0xW0NIMl1bQ0gyXVtDSDJdTjJbQ0BIXTFbQ0BIXShbQ0gyXWMzYzRbY0hdc1tjSF0zKVtDQEBdNChjNWMoW05IXTYpW2NIXWMoQnIpW2NIXVtjSF01KU4yQzY3W0NIMl1bQ0gyXVtDSDJdW0NIMl1bQ0gyXTc=

>  <s_epik_cmdline>  (296) 
J2VwaWtfcHl0aG9uJywgJy1waHQnLCAnMi4wJywgJy1waCcsICc3LjAnLCAnLXRuJywgJzgnLCAnLW1hJywgJzIwMCcsICctaW1hZScsICc8aW5maWxlLm1hZT4nLCAnLW9tYWUnLCAnPG91dGZpbGUubWFlPic=

>  <r_epik_Ionization_Penalty>  (296) 
0.780183

>  <r_epik_Ionization_Penalty_Charging>  (296) 
0.780092

>  <r_epik_Ionization_Penalty_Neutral>  (296) 
9.12026e-05

>  <r_epik_State_Penalty>  (296) 
1.33717

>  <r_epik_Charging_Adjusted_Penalty>  (296) 
2.11727

>  <i_epik_Tot_Q>  (296) 
1

>  <i_epik_Tot_abs_Q>  (296) 
1

>  <s_lp_Force_Field>  (296) 
OPLS3e

>  <r_lp_Energy>  (296) 
50.4852

>  <b_lp_Chiralities_Consistent>  (296) 
1

>  <s_lp_Variant>  (296) 
70:0-3

>  <s_i_glide_gridfile>  (296) 
pfpi4k_grid

>  <i_i_glide_lignum>  (296) 
28

>  <i_i_glide_rotatable_bonds>  (296) 
0

>  <r_i_docking_score>  (296) 
-2.79459

>  <r_i_glide_ligand_efficiency>  (296) 
-0.0963651

>  <r_i_glide_ligand_efficiency_sa>  (296) 
-0.296064

>  <r_i_glide_ligand_efficiency_ln>  (296) 
-0.63989

>  <r_i_glide_gscore>  (296) 
-2.79459

>  <r_i_glide_lipo>  (296) 
-0.519096

>  <r_i_glide_hbond>  (296) 
0

>  <r_i_glide_metal>  (296) 
-0

>  <r_i_glide_rewards>  (296) 
-0.233897

>  <r_i_glide_evdw>  (296) 
-29.8689

>  <r_i_glide_ecoul>  (296) 
-3.43662

>  <r_i_glide_erotb>  (296) 
0

>  <r_i_glide_esite>  (296) 
-0.0326575

>  <r_i_glide_emodel>  (296) 
-38.6432

>  <r_i_glide_energy>  (296) 
-33.3055

>  <r_i_glide_einternal>  (296) 
0

>  <r_i_glide_intrahb_reward>  (296) 
-0

>  <i_i_glide_confnum>  (296) 
4

>  <i_i_glide_posenum>  (296) 
8

>  <r_i_glide_eff_state_penalty>  (296) 
0

>  <ligand_id>  (296) 
70

>  <original_smiles>  (296) 
Brc1ccc2c(c1)NC1(CCCCC1)N1N3CCCCC3C3Cc4cscc4C231

>  <smiles>  (296) 
[H]c1sc([H])c2c1C([H])([H])C1([H])C23c2c([H])c([H])c(Br)c([H])c2N([H])C2(N3[N+]3([H])C([H])([H])C([H])([H])C([H])([H])C([H])([H])C13[H])C([H])([H])C([H])([H])C([H])([H])C([H])([H])C2([H])[H]

$$$$
70:2:1
     RDKit          3D

 58 64  0  0  1  0  0  0  0  0999 V2000
   -0.7047   -8.8362    2.5083 Br  0  0  0  0  0  0  0  0  0  0  0  0
    0.4941   -7.3903    2.7719 C   0  0  0  0  0  0  0  0  0  0  0  0
    0.8625   -7.0125    4.0797 C   0  0  0  0  0  0  0  0  0  0  0  0
    1.7211   -5.9181    4.2844 C   0  0  0  0  0  0  0  0  0  0  0  0
    2.2146   -5.1700    3.1914 C   0  0  0  0  0  0  0  0  0  0  0  0
    1.8482   -5.5755    1.8743 C   0  0  0  0  0  0  0  0  0  0  0  0
    1.0024   -6.6752    1.6697 C   0  0  0  0  0  0  0  0  0  0  0  0
    2.3660   -4.8744    0.7735 N   0  0  0  0  0  0  0  0  0  0  0  0
    3.6587   -4.2240    0.9647 C   0  0  0  0  0  0  0  0  0  0  0  0
    4.7530   -5.3114    1.1978 C   0  0  0  0  0  0  0  0  0  0  0  0
    6.1665   -4.7316    1.3560 C   0  0  0  0  0  0  0  0  0  0  0  0
    6.5487   -3.8889    0.1402 C   0  0  0  0  0  0  0  0  0  0  0  0
    5.4960   -2.8199   -0.1372 C   0  0  0  0  0  0  0  0  0  0  0  0
    4.0731   -3.4234   -0.3013 C   0  0  0  0  0  0  0  0  0  0  0  0
    3.5537   -3.3018    2.1118 N   0  0  0  0  0  0  0  0  0  0  0  0
    2.7165   -2.0682    1.8487 N   0  0  2  0  0  0  0  0  0  0  0  0
    3.5155   -0.8118    1.6895 C   0  0  0  0  0  0  0  0  0  0  0  0
    2.6656    0.4515    1.7197 C   0  0  0  0  0  0  0  0  0  0  0  0
    1.9412    0.5769    3.0493 C   0  0  0  0  0  0  0  0  0  0  0  0
    1.0455   -0.6514    3.2322 C   0  0  0  0  0  0  0  0  0  0  0  0
    1.7234   -2.0155    2.9411 C   0  0  2  0  0  0  0  0  0  0  0  0
    2.3443   -2.7947    4.0860 C   0  0  2  0  0  0  0  0  0  0  0  0
    3.3362   -2.0729    5.0491 C   0  0  0  0  0  0  0  0  0  0  0  0
    4.3434   -3.1281    5.3032 C   0  0  0  0  0  0  0  0  0  0  0  0
    5.3524   -3.2622    6.2239 C   0  0  0  0  0  0  0  0  0  0  0  0
    6.1868   -4.7745    5.9649 S   0  0  0  0  0  0  0  0  0  0  0  0
    5.1395   -5.1952    4.6274 C   0  0  0  0  0  0  0  0  0  0  0  0
    4.2290   -4.1918    4.3975 C   0  0  0  0  0  0  0  0  0  0  0  0
    3.1334   -3.9458    3.3873 C   0  0  1  0  0  0  0  0  0  0  0  0
    0.4896   -7.5804    4.9206 H   0  0  0  0  0  0  0  0  0  0  0  0
    1.9903   -5.6298    5.2939 H   0  0  0  0  0  0  0  0  0  0  0  0
    0.7155   -6.9782    0.6670 H   0  0  0  0  0  0  0  0  0  0  0  0
    2.3040   -5.3527   -0.1166 H   0  0  0  0  0  0  0  0  0  0  0  0
    4.5369   -5.9635    2.0405 H   0  0  0  0  0  0  0  0  0  0  0  0
    4.7502   -5.9904    0.3460 H   0  0  0  0  0  0  0  0  0  0  0  0
    6.2198   -4.1214    2.2552 H   0  0  0  0  0  0  0  0  0  0  0  0
    6.8836   -5.5423    1.4950 H   0  0  0  0  0  0  0  0  0  0  0  0
    7.5166   -3.4139    0.3080 H   0  0  0  0  0  0  0  0  0  0  0  0
    6.6392   -4.5498   -0.7128 H   0  0  0  0  0  0  0  0  0  0  0  0
    5.5863   -2.1621    0.7293 H   0  0  0  0  0  0  0  0  0  0  0  0
    5.7517   -2.2277   -1.0168 H   0  0  0  0  0  0  0  0  0  0  0  0
    4.0603   -4.0974   -1.1582 H   0  0  0  0  0  0  0  0  0  0  0  0
    3.3546   -2.6472   -0.5840 H   0  0  0  0  0  0  0  0  0  0  0  0
    4.3079   -0.7586    2.4394 H   0  0  0  0  0  0  0  0  0  0  0  0
    3.9760   -0.7900    0.7073 H   0  0  0  0  0  0  0  0  0  0  0  0
    3.3193    1.3092    1.5623 H   0  0  0  0  0  0  0  0  0  0  0  0
    1.9528    0.4279    0.8916 H   0  0  0  0  0  0  0  0  0  0  0  0
    2.6685    0.6682    3.8591 H   0  0  0  0  0  0  0  0  0  0  0  0
    1.3367    1.4872    3.0360 H   0  0  0  0  0  0  0  0  0  0  0  0
    0.6221   -0.6626    4.2353 H   0  0  0  0  0  0  0  0  0  0  0  0
    0.2147   -0.5459    2.5343 H   0  0  0  0  0  0  0  0  0  0  0  0
    0.9114   -2.6518    2.5863 H   0  0  0  0  0  0  0  0  0  0  0  0
    1.5571   -3.2056    4.7165 H   0  0  0  0  0  0  0  0  0  0  0  0
    3.8233   -1.2209    4.5690 H   0  0  0  0  0  0  0  0  0  0  0  0
    2.8553   -1.7258    5.9651 H   0  0  0  0  0  0  0  0  0  0  0  0
    5.6400   -2.5815    7.0113 H   0  0  0  0  0  0  0  0  0  0  0  0
    5.2912   -6.1175    4.0881 H   0  0  0  0  0  0  0  0  0  0  0  0
    2.2168   -2.2400    0.9839 H   0  0  0  0  0  0  0  0  0  0  0  0
  1  2  1  0
  2  7  2  0
  2  3  1  0
  3  4  2  0
  3 30  1  0
  4  5  1  0
  4 31  1  0
 29  5  1  6
  5  6  2  0
  6  7  1  0
  6  8  1  0
  7 32  1  0
  8  9  1  0
  8 33  1  0
  9 14  1  0
  9 10  1  0
  9 15  1  0
 10 11  1  0
 10 34  1  0
 10 35  1  0
 11 12  1  0
 11 36  1  0
 11 37  1  0
 12 13  1  0
 12 38  1  0
 12 39  1  0
 13 14  1  0
 13 40  1  0
 13 41  1  0
 14 42  1  0
 14 43  1  0
 15 29  1  0
 15 16  1  0
 16 21  1  0
 16 17  1  0
 16 58  1  6
 17 18  1  0
 17 44  1  0
 17 45  1  0
 18 19  1  0
 18 46  1  0
 18 47  1  0
 19 20  1  0
 19 48  1  0
 19 49  1  0
 20 21  1  0
 20 50  1  0
 20 51  1  0
 21 22  1  0
 21 52  1  6
 22 29  1  0
 22 23  1  0
 22 53  1  1
 23 24  1  0
 23 54  1  0
 23 55  1  0
 24 28  1  0
 24 25  2  0
 25 26  1  0
 25 56  1  0
 26 27  1  0
 27 28  2  0
 27 57  1  0
 28 29  1  0
M  CHG  1  16   1
M  END
>  <i_m_ct_stereo_status>  (297) 
1

>  <s_m_source_file>  (297) 
/var/tmp/pbs.5076255.sched01/tmpnby3vxlc/96d7dj3887.sdf

>  <i_m_source_file_index>  (297) 
28

>  <i_lp_mmshare_version>  (297) 
48012

>  <i_f3d_flags>  (297) 
0

>  <s_epik_input>  (297) 
W0NIMl0xW0NIMl1bQ0gyXVtDSDJdTjJbQ0BIXTFbQ0BIXShbQ0gyXWMzYzRbY0hdc1tjSF0zKVtDQEBdNChjNWMoW05IXTYpW2NIXWMoQnIpW2NIXVtjSF01KU4yQzY3W0NIMl1bQ0gyXVtDSDJdW0NIMl1bQ0gyXTc=

>  <s_epik_cmdline>  (297) 
J2VwaWtfcHl0aG9uJywgJy1waHQnLCAnMi4wJywgJy1waCcsICc3LjAnLCAnLXRuJywgJzgnLCAnLW1hJywgJzIwMCcsICctaW1hZScsICc8aW5maWxlLm1hZT4nLCAnLW9tYWUnLCAnPG91dGZpbGUubWFlPic=

>  <r_epik_Ionization_Penalty>  (297) 
0.780183

>  <r_epik_Ionization_Penalty_Charging>  (297) 
0.780092

>  <r_epik_Ionization_Penalty_Neutral>  (297) 
9.12026e-05

>  <r_epik_State_Penalty>  (297) 
1.33717

>  <r_epik_Charging_Adjusted_Penalty>  (297) 
2.11727

>  <i_epik_Tot_Q>  (297) 
1

>  <i_epik_Tot_abs_Q>  (297) 
1

>  <s_lp_Force_Field>  (297) 
OPLS3e

>  <r_lp_Energy>  (297) 
50.4852

>  <b_lp_Chiralities_Consistent>  (297) 
1

>  <s_lp_Variant>  (297) 
70:0-3

>  <s_i_glide_gridfile>  (297) 
pfpi4k_grid

>  <i_i_glide_lignum>  (297) 
28

>  <i_i_glide_rotatable_bonds>  (297) 
0

>  <r_i_docking_score>  (297) 
-2.59208

>  <r_i_glide_ligand_efficiency>  (297) 
-0.0893819

>  <r_i_glide_ligand_efficiency_sa>  (297) 
-0.27461

>  <r_i_glide_ligand_efficiency_ln>  (297) 
-0.59352

>  <r_i_glide_gscore>  (297) 
-2.59208

>  <r_i_glide_lipo>  (297) 
-0.299982

>  <r_i_glide_hbond>  (297) 
0

>  <r_i_glide_metal>  (297) 
-0

>  <r_i_glide_rewards>  (297) 
-0.199483

>  <r_i_glide_evdw>  (297) 
-27.5513

>  <r_i_glide_ecoul>  (297) 
-4.32247

>  <r_i_glide_erotb>  (297) 
0

>  <r_i_glide_esite>  (297) 
-0.066673

>  <r_i_glide_emodel>  (297) 
-36.777

>  <r_i_glide_energy>  (297) 
-31.8738

>  <r_i_glide_einternal>  (297) 
0

>  <r_i_glide_intrahb_reward>  (297) 
-0

>  <i_i_glide_confnum>  (297) 
2

>  <i_i_glide_posenum>  (297) 
15

>  <r_i_glide_eff_state_penalty>  (297) 
0

>  <ligand_id>  (297) 
70

>  <original_smiles>  (297) 
Brc1ccc2c(c1)NC1(CCCCC1)N1N3CCCCC3C3Cc4cscc4C231

>  <smiles>  (297) 
[H]c1sc([H])c2c1C([H])([H])C1([H])C23c2c([H])c([H])c(Br)c([H])c2N([H])C2(N3[N+]3([H])C([H])([H])C([H])([H])C([H])([H])C([H])([H])C13[H])C([H])([H])C([H])([H])C([H])([H])C([H])([H])C2([H])[H]

$$$$
70:2:2
     RDKit          3D

 58 64  0  0  1  0  0  0  0  0999 V2000
    1.4121   -7.9240    1.6796 Br  0  0  0  0  0  0  0  0  0  0  0  0
    1.9141   -6.1944    2.2621 C   0  0  0  0  0  0  0  0  0  0  0  0
    1.9135   -5.8801    3.6346 C   0  0  0  0  0  0  0  0  0  0  0  0
    2.2930   -4.5942    4.0651 C   0  0  0  0  0  0  0  0  0  0  0  0
    2.6564   -3.6022    3.1253 C   0  0  0  0  0  0  0  0  0  0  0  0
    2.6472   -3.9341    1.7480 C   0  0  0  0  0  0  0  0  0  0  0  0
    2.2845   -5.2256    1.3163 C   0  0  0  0  0  0  0  0  0  0  0  0
    3.0365   -2.9832    0.8040 N   0  0  0  0  0  0  0  0  0  0  0  0
    4.0057   -1.9935    1.2611 C   0  0  0  0  0  0  0  0  0  0  0  0
    5.3647   -2.6824    1.6166 C   0  0  0  0  0  0  0  0  0  0  0  0
    6.0796   -3.2690    0.3857 C   0  0  0  0  0  0  0  0  0  0  0  0
    6.3047   -2.2025   -0.6869 C   0  0  0  0  0  0  0  0  0  0  0  0
    4.9867   -1.5299   -1.0747 C   0  0  0  0  0  0  0  0  0  0  0  0
    4.2771   -0.9523    0.1480 C   0  0  0  0  0  0  0  0  0  0  0  0
    3.4321   -1.2975    2.4260 N   0  0  0  0  0  0  0  0  0  0  0  0
    2.2707   -0.3920    2.0863 N   0  0  2  0  0  0  0  0  0  0  0  0
    2.6259    1.0551    2.1616 C   0  0  0  0  0  0  0  0  0  0  0  0
    1.3967    1.9643    2.1011 C   0  0  0  0  0  0  0  0  0  0  0  0
    0.4665    1.6926    3.2775 C   0  0  0  0  0  0  0  0  0  0  0  0
    0.0224    0.2329    3.2234 C   0  0  0  0  0  0  0  0  0  0  0  0
    1.1587   -0.7909    2.9697 C   0  0  2  0  0  0  0  0  0  0  0  0
    1.8257   -1.4507    4.1617 C   0  0  2  0  0  0  0  0  0  0  0  0
    2.3431   -0.5648    5.3365 C   0  0  0  0  0  0  0  0  0  0  0  0
    3.6063   -1.2449    5.7102 C   0  0  0  0  0  0  0  0  0  0  0  0
    4.4424   -1.1613    6.7880 C   0  0  0  0  0  0  0  0  0  0  0  0
    5.7778   -2.2709    6.5917 S   0  0  0  0  0  0  0  0  0  0  0  0
    5.1627   -2.8312    5.0549 C   0  0  0  0  0  0  0  0  0  0  0  0
    4.0093   -2.1700    4.7321 C   0  0  0  0  0  0  0  0  0  0  0  0
    3.0663   -2.1831    3.5636 C   0  0  1  0  0  0  0  0  0  0  0  0
    1.6387   -6.6362    4.3554 H   0  0  0  0  0  0  0  0  0  0  0  0
    2.2942   -4.3640    5.1213 H   0  0  0  0  0  0  0  0  0  0  0  0
    2.2822   -5.4762    0.2629 H   0  0  0  0  0  0  0  0  0  0  0  0
    3.2478   -3.3515   -0.1123 H   0  0  0  0  0  0  0  0  0  0  0  0
    6.0241   -1.9703    2.1154 H   0  0  0  0  0  0  0  0  0  0  0  0
    5.2366   -3.5027    2.3208 H   0  0  0  0  0  0  0  0  0  0  0  0
    7.0324   -3.7020    0.6886 H   0  0  0  0  0  0  0  0  0  0  0  0
    5.4937   -4.0913   -0.0233 H   0  0  0  0  0  0  0  0  0  0  0  0
    6.9964   -1.4559   -0.2980 H   0  0  0  0  0  0  0  0  0  0  0  0
    6.7654   -2.6488   -1.5670 H   0  0  0  0  0  0  0  0  0  0  0  0
    5.1628   -0.7257   -1.7872 H   0  0  0  0  0  0  0  0  0  0  0  0
    4.3279   -2.2421   -1.5706 H   0  0  0  0  0  0  0  0  0  0  0  0
    3.3493   -0.5153   -0.2209 H   0  0  0  0  0  0  0  0  0  0  0  0
    4.8875   -0.1423    0.5554 H   0  0  0  0  0  0  0  0  0  0  0  0
    3.1933    1.2749    3.0662 H   0  0  0  0  0  0  0  0  0  0  0  0
    3.2810    1.3100    1.3345 H   0  0  0  0  0  0  0  0  0  0  0  0
    1.7096    3.0105    2.1033 H   0  0  0  0  0  0  0  0  0  0  0  0
    0.8490    1.8012    1.1672 H   0  0  0  0  0  0  0  0  0  0  0  0
    0.9654    1.9238    4.2197 H   0  0  0  0  0  0  0  0  0  0  0  0
   -0.4067    2.3428    3.2055 H   0  0  0  0  0  0  0  0  0  0  0  0
   -0.5208   -0.0306    4.1295 H   0  0  0  0  0  0  0  0  0  0  0  0
   -0.6952    0.1575    2.4080 H   0  0  0  0  0  0  0  0  0  0  0  0
    0.6792   -1.6111    2.4314 H   0  0  0  0  0  0  0  0  0  0  0  0
    1.1465   -2.1720    4.6147 H   0  0  0  0  0  0  0  0  0  0  0  0
    2.5650    0.4500    5.0036 H   0  0  0  0  0  0  0  0  0  0  0  0
    1.6325   -0.5048    6.1628 H   0  0  0  0  0  0  0  0  0  0  0  0
    4.3623   -0.5325    7.6622 H   0  0  0  0  0  0  0  0  0  0  0  0
    5.7005   -3.5811    4.4958 H   0  0  0  0  0  0  0  0  0  0  0  0
    2.0022   -0.6245    1.1360 H   0  0  0  0  0  0  0  0  0  0  0  0
  1  2  1  0
  2  7  2  0
  2  3  1  0
  3  4  2  0
  3 30  1  0
  4  5  1  0
  4 31  1  0
 29  5  1  6
  5  6  2  0
  6  7  1  0
  6  8  1  0
  7 32  1  0
  8  9  1  0
  8 33  1  0
  9 14  1  0
  9 10  1  0
  9 15  1  0
 10 11  1  0
 10 34  1  0
 10 35  1  0
 11 12  1  0
 11 36  1  0
 11 37  1  0
 12 13  1  0
 12 38  1  0
 12 39  1  0
 13 14  1  0
 13 40  1  0
 13 41  1  0
 14 42  1  0
 14 43  1  0
 15 29  1  0
 15 16  1  0
 16 21  1  0
 16 17  1  0
 16 58  1  6
 17 18  1  0
 17 44  1  0
 17 45  1  0
 18 19  1  0
 18 46  1  0
 18 47  1  0
 19 20  1  0
 19 48  1  0
 19 49  1  0
 20 21  1  0
 20 50  1  0
 20 51  1  0
 21 22  1  0
 21 52  1  6
 22 29  1  0
 22 23  1  0
 22 53  1  1
 23 24  1  0
 23 54  1  0
 23 55  1  0
 24 28  1  0
 24 25  2  0
 25 26  1  0
 25 56  1  0
 26 27  1  0
 27 28  2  0
 27 57  1  0
 28 29  1  0
M  CHG  1  16   1
M  END
>  <i_m_ct_stereo_status>  (298) 
1

>  <s_m_source_file>  (298) 
/var/tmp/pbs.5076255.sched01/tmpnby3vxlc/96d7dj3887.sdf

>  <i_m_source_file_index>  (298) 
28

>  <i_lp_mmshare_version>  (298) 
48012

>  <i_f3d_flags>  (298) 
0

>  <s_epik_input>  (298) 
W0NIMl0xW0NIMl1bQ0gyXVtDSDJdTjJbQ0BIXTFbQ0BIXShbQ0gyXWMzYzRbY0hdc1tjSF0zKVtDQEBdNChjNWMoW05IXTYpW2NIXWMoQnIpW2NIXVtjSF01KU4yQzY3W0NIMl1bQ0gyXVtDSDJdW0NIMl1bQ0gyXTc=

>  <s_epik_cmdline>  (298) 
J2VwaWtfcHl0aG9uJywgJy1waHQnLCAnMi4wJywgJy1waCcsICc3LjAnLCAnLXRuJywgJzgnLCAnLW1hJywgJzIwMCcsICctaW1hZScsICc8aW5maWxlLm1hZT4nLCAnLW9tYWUnLCAnPG91dGZpbGUubWFlPic=

>  <r_epik_Ionization_Penalty>  (298) 
0.780183

>  <r_epik_Ionization_Penalty_Charging>  (298) 
0.780092

>  <r_epik_Ionization_Penalty_Neutral>  (298) 
9.12026e-05

>  <r_epik_State_Penalty>  (298) 
1.33717

>  <r_epik_Charging_Adjusted_Penalty>  (298) 
2.11727

>  <i_epik_Tot_Q>  (298) 
1

>  <i_epik_Tot_abs_Q>  (298) 
1

>  <s_lp_Force_Field>  (298) 
OPLS3e

>  <r_lp_Energy>  (298) 
50.4852

>  <b_lp_Chiralities_Consistent>  (298) 
1

>  <s_lp_Variant>  (298) 
70:0-3

>  <s_i_glide_gridfile>  (298) 
pfpi4k_grid

>  <i_i_glide_lignum>  (298) 
28

>  <i_i_glide_rotatable_bonds>  (298) 
0

>  <r_i_docking_score>  (298) 
-2.50191

>  <r_i_glide_ligand_efficiency>  (298) 
-0.0862726

>  <r_i_glide_ligand_efficiency_sa>  (298) 
-0.265057

>  <r_i_glide_ligand_efficiency_ln>  (298) 
-0.572873

>  <r_i_glide_gscore>  (298) 
-2.50191

>  <r_i_glide_lipo>  (298) 
-0.187217

>  <r_i_glide_hbond>  (298) 
-0.0494672

>  <r_i_glide_metal>  (298) 
-0

>  <r_i_glide_rewards>  (298) 
-0.194474

>  <r_i_glide_evdw>  (298) 
-27.8293

>  <r_i_glide_ecoul>  (298) 
-4.06697

>  <r_i_glide_erotb>  (298) 
0

>  <r_i_glide_esite>  (298) 
-0.0692392

>  <r_i_glide_emodel>  (298) 
-36.9113

>  <r_i_glide_energy>  (298) 
-31.8963

>  <r_i_glide_einternal>  (298) 
0

>  <r_i_glide_intrahb_reward>  (298) 
-0

>  <i_i_glide_confnum>  (298) 
3

>  <i_i_glide_posenum>  (298) 
28

>  <r_i_glide_eff_state_penalty>  (298) 
0

>  <ligand_id>  (298) 
70

>  <original_smiles>  (298) 
Brc1ccc2c(c1)NC1(CCCCC1)N1N3CCCCC3C3Cc4cscc4C231

>  <smiles>  (298) 
[H]c1sc([H])c2c1C([H])([H])C1([H])C23c2c([H])c([H])c(Br)c([H])c2N([H])C2(N3[N+]3([H])C([H])([H])C([H])([H])C([H])([H])C([H])([H])C13[H])C([H])([H])C([H])([H])C([H])([H])C([H])([H])C2([H])[H]

$$$$
71:1:0
     RDKit          3D

 69 73  0  0  1  0  0  0  0  0999 V2000
    3.3029   -6.2174    4.8027 C   0  0  0  0  0  0  0  0  0  0  0  0
    3.7307   -4.7749    4.5540 C   0  0  0  0  0  0  0  0  0  0  0  0
    4.8462   -4.5031    4.1144 O   0  0  0  0  0  0  0  0  0  0  0  0
    2.7663   -3.8866    4.8655 O   0  0  0  0  0  0  0  0  0  0  0  0
    2.9489   -2.4909    4.6256 C   0  0  2  0  0  0  0  0  0  0  0  0
    2.1184   -1.6077    5.5912 C   0  0  0  0  0  0  0  0  0  0  0  0
    2.5798   -0.8823    6.6110 C   0  0  0  0  0  0  0  0  0  0  0  0
    3.5081    0.2283    6.2565 C   0  0  0  0  0  0  0  0  0  0  0  0
    2.7745    1.4635    5.6109 C   0  0  1  0  0  0  0  0  0  0  0  0
    3.8531    2.4880    5.1025 C   0  0  0  0  0  0  0  0  0  0  0  0
    4.9691    2.7654    6.1386 C   0  0  0  0  0  0  0  0  0  0  0  0
    3.3089    3.8730    4.7143 C   0  0  0  0  0  0  0  0  0  0  0  0
    1.3728    1.3468    4.7777 C   0  0  1  0  0  0  0  0  0  0  0  0
    1.1996    1.0897    3.2992 C   0  0  2  0  0  0  0  0  0  0  0  0
    2.1306    1.8130    2.2804 C   0  0  0  0  0  0  0  0  0  0  0  0
   -0.2355    1.8342    3.0619 C   0  0  0  0  0  0  0  0  0  0  0  0
   -0.9432    2.8232    4.1808 C   0  0  0  0  0  0  0  0  0  0  0  0
   -0.3408    4.2540    4.0792 C   0  0  0  0  0  0  0  0  0  0  0  0
   -2.3971    3.0689    3.6899 C   0  0  0  0  0  0  0  0  0  0  0  0
   -0.9986    2.4486    5.7905 C   0  0  0  0  0  0  0  0  0  0  0  0
   -0.3172    1.1331    6.4459 C   0  0  0  0  0  0  0  0  0  0  0  0
    0.2245    0.3192    5.2791 C   0  0  1  0  0  0  0  0  0  0  0  0
   -1.2435   -0.0622    4.7126 C   0  0  0  0  0  0  0  0  0  0  0  0
    0.9285   -1.0489    4.8645 C   0  0  2  0  0  0  0  0  0  0  0  0
    0.0001   -2.3503    4.8538 C   0  0  0  0  0  0  0  0  0  0  0  0
    1.5149   -0.4908    3.4586 C   0  0  2  0  0  0  0  0  0  0  0  0
    3.0018   -0.6862    3.0040 C   0  0  0  0  0  0  0  0  0  0  0  0
    2.6726   -2.1045    3.1393 C   0  0  2  0  0  0  0  0  0  0  0  0
    1.3187   -1.6942    2.6951 O   0  0  0  0  0  0  0  0  0  0  0  0
    2.4208   -6.4563    4.2081 H   0  0  0  0  0  0  0  0  0  0  0  0
    3.0587   -6.3659    5.8548 H   0  0  0  0  0  0  0  0  0  0  0  0
    4.0959   -6.9177    4.5316 H   0  0  0  0  0  0  0  0  0  0  0  0
    3.9900   -2.2749    4.8743 H   0  0  0  0  0  0  0  0  0  0  0  0
    1.8171   -0.4298    7.2191 H   0  0  0  0  0  0  0  0  0  0  0  0
    3.9411    0.5358    7.2096 H   0  0  0  0  0  0  0  0  0  0  0  0
    4.3558   -0.1316    5.6733 H   0  0  0  0  0  0  0  0  0  0  0  0
    2.4318    1.9663    6.5145 H   0  0  0  0  0  0  0  0  0  0  0  0
    4.3503    2.0491    4.2421 H   0  0  0  0  0  0  0  0  0  0  0  0
    4.5551    3.1364    7.0774 H   0  0  0  0  0  0  0  0  0  0  0  0
    5.6563    3.5322    5.7753 H   0  0  0  0  0  0  0  0  0  0  0  0
    5.5826    1.8915    6.3580 H   0  0  0  0  0  0  0  0  0  0  0  0
    2.7588    4.3261    5.5368 H   0  0  0  0  0  0  0  0  0  0  0  0
    2.6530    3.8499    3.8571 H   0  0  0  0  0  0  0  0  0  0  0  0
    4.1132    4.5558    4.4444 H   0  0  0  0  0  0  0  0  0  0  0  0
    1.1919    2.3886    4.9193 H   0  0  0  0  0  0  0  0  0  0  0  0
    3.1873    1.7669    2.5083 H   0  0  0  0  0  0  0  0  0  0  0  0
    1.9035    2.8692    2.1467 H   0  0  0  0  0  0  0  0  0  0  0  0
    1.9929    1.3758    1.2914 H   0  0  0  0  0  0  0  0  0  0  0  0
   -0.1385    2.4807    2.1898 H   0  0  0  0  0  0  0  0  0  0  0  0
   -0.9524    1.1625    2.5970 H   0  0  0  0  0  0  0  0  0  0  0  0
   -0.9884    4.9932    4.5497 H   0  0  0  0  0  0  0  0  0  0  0  0
   -0.2016    4.5729    3.0450 H   0  0  0  0  0  0  0  0  0  0  0  0
    0.6160    4.3655    4.5772 H   0  0  0  0  0  0  0  0  0  0  0  0
   -2.9387    3.7344    4.3639 H   0  0  0  0  0  0  0  0  0  0  0  0
   -2.9917    2.1627    3.5980 H   0  0  0  0  0  0  0  0  0  0  0  0
   -2.4063    3.5388    2.7043 H   0  0  0  0  0  0  0  0  0  0  0  0
   -0.5916    3.2963    6.3471 H   0  0  0  0  0  0  0  0  0  0  0  0
   -2.0449    2.4441    6.1055 H   0  0  0  0  0  0  0  0  0  0  0  0
    0.4577    1.4205    7.1533 H   0  0  0  0  0  0  0  0  0  0  0  0
   -1.0446    0.5812    7.0412 H   0  0  0  0  0  0  0  0  0  0  0  0
   -1.7526   -0.7682    5.3656 H   0  0  0  0  0  0  0  0  0  0  0  0
   -1.2455   -0.4883    3.7128 H   0  0  0  0  0  0  0  0  0  0  0  0
   -2.0321    0.6661    4.6627 H   0  0  0  0  0  0  0  0  0  0  0  0
   -0.7402   -2.4117    4.0613 H   0  0  0  0  0  0  0  0  0  0  0  0
   -0.5015   -2.4706    5.8140 H   0  0  0  0  0  0  0  0  0  0  0  0
    0.5207   -3.2868    4.7088 H   0  0  0  0  0  0  0  0  0  0  0  0
    3.2282   -0.4565    1.9665 H   0  0  0  0  0  0  0  0  0  0  0  0
    3.7855   -0.3187    3.6546 H   0  0  0  0  0  0  0  0  0  0  0  0
    3.2145   -2.6861    2.3922 H   0  0  0  0  0  0  0  0  0  0  0  0
  1  2  1  0
  1 30  1  0
  1 31  1  0
  1 32  1  0
  2  3  2  0
  2  4  1  0
  4  5  1  0
  5 28  1  0
  5  6  1  0
  5 33  1  1
  6 24  1  0
  6  7  2  0
  7  8  1  0
  7 34  1  0
  8  9  1  0
  8 35  1  0
  8 36  1  0
  9 10  1  0
  9 13  1  0
  9 37  1  1
 10 11  1  0
 10 12  1  0
 10 38  1  0
 11 39  1  0
 11 40  1  0
 11 41  1  0
 12 42  1  0
 12 43  1  0
 12 44  1  0
 13 22  1  0
 13 14  1  0
 13 45  1  6
 14 26  1  0
 14 15  1  6
 14 16  1  0
 15 46  1  0
 15 47  1  0
 15 48  1  0
 16 17  1  0
 16 49  1  0
 16 50  1  0
 17 18  1  0
 17 19  1  0
 17 20  1  0
 18 51  1  0
 18 52  1  0
 18 53  1  0
 19 54  1  0
 19 55  1  0
 19 56  1  0
 20 21  1  0
 20 57  1  0
 20 58  1  0
 21 22  1  0
 21 59  1  0
 21 60  1  0
 22 23  1  6
 22 24  1  0
 23 61  1  0
 23 62  1  0
 23 63  1  0
 24 25  1  6
 24 26  1  0
 25 64  1  0
 25 65  1  0
 25 66  1  0
 26 29  1  6
 26 27  1  0
 27 28  1  0
 27 67  1  0
 27 68  1  0
 28 29  1  0
 28 69  1  6
M  END
>  <i_m_ct_stereo_status>  (299) 
1

>  <s_m_source_file>  (299) 
/var/tmp/pbs.5076255.sched01/tmpnby3vxlc/96d7dj3887.sdf

>  <i_m_source_file_index>  (299) 
30

>  <i_lp_mmshare_version>  (299) 
48012

>  <i_f3d_flags>  (299) 
0

>  <s_epik_input>  (299) 
W0NIM11bQ0hdKFtDSDNdKVtDQEBIXTFbQ0gyXVtDSF09QyhbQ0BIXShbQ0BASF0oTzIpW0NIMl0zKU9DKD1PKVtDSDNdKVtDQEBdNChbQ0gzXSlDKFtDSDNdKShbQ0BASF0xQzUoW0NAQF0yMzQpW0NIM10pW0NIMl1bQ0gyXUMoW0NIMl01KShbQ0gzXSlbQ0gzXQ==

>  <s_epik_cmdline>  (299) 
J2VwaWtfcHl0aG9uJywgJy1waHQnLCAnMi4wJywgJy1waCcsICc3LjAnLCAnLXRuJywgJzgnLCAnLW1hJywgJzIwMCcsICctaW1hZScsICc8aW5maWxlLm1hZT4nLCAnLW9tYWUnLCAnPG91dGZpbGUubWFlPic=

>  <r_lp_tautomer_probability>  (299) 
1

>  <r_epik_Ionization_Penalty>  (299) 
1.99995e-12

>  <r_epik_Ionization_Penalty_Charging>  (299) 
0

>  <r_epik_Ionization_Penalty_Neutral>  (299) 
1.99995e-12

>  <r_epik_State_Penalty>  (299) 
-0

>  <r_epik_Charging_Adjusted_Penalty>  (299) 
0

>  <i_epik_Tot_Q>  (299) 
0

>  <i_epik_Tot_abs_Q>  (299) 
0

>  <s_epik_Chemistry_Notes>  (299) 
This compound has an ester and may undergo hydrolysis at high or low pH.

>  <s_lp_Force_Field>  (299) 
OPLS3e

>  <r_lp_Energy>  (299) 
308.266

>  <b_lp_Chiralities_Consistent>  (299) 
1

>  <s_lp_Variant>  (299) 
71:0-2

>  <s_i_glide_gridfile>  (299) 
pfpi4k_grid

>  <i_i_glide_lignum>  (299) 
30

>  <i_i_glide_rotatable_bonds>  (299) 
3

>  <r_i_docking_score>  (299) 
-1.28493

>  <r_i_glide_ligand_efficiency>  (299) 
-0.044308

>  <r_i_glide_ligand_efficiency_sa>  (299) 
-0.136128

>  <r_i_glide_ligand_efficiency_ln>  (299) 
-0.294217

>  <r_i_glide_gscore>  (299) 
-1.28493

>  <r_i_glide_lipo>  (299) 
-0.0670707

>  <r_i_glide_hbond>  (299) 
0

>  <r_i_glide_metal>  (299) 
-0

>  <r_i_glide_rewards>  (299) 
-0.677768

>  <r_i_glide_evdw>  (299) 
-17.9321

>  <r_i_glide_ecoul>  (299) 
1.56227

>  <r_i_glide_erotb>  (299) 
0.122173

>  <r_i_glide_esite>  (299) 
0

>  <r_i_glide_emodel>  (299) 
-17.5221

>  <r_i_glide_energy>  (299) 
-16.3698

>  <r_i_glide_einternal>  (299) 
0.0964739

>  <r_i_glide_intrahb_reward>  (299) 
-0

>  <i_i_glide_confnum>  (299) 
2

>  <i_i_glide_posenum>  (299) 
8

>  <r_i_glide_eff_state_penalty>  (299) 
0

>  <ligand_id>  (299) 
71

>  <original_smiles>  (299) 
CC(=O)OC1C2=CCC(C(C)C)C3C4(C)CC(C)(C)CCC3(C)C2(C)C42CC1O2

>  <smiles>  (299) 
[H]C1=C2C([H])(OC(=O)C([H])([H])[H])C3([H])OC4(C3([H])[H])C2(C([H])([H])[H])C2(C([H])([H])[H])C([H])([H])C([H])([H])C(C([H])([H])[H])(C([H])([H])[H])C([H])([H])C4(C([H])([H])[H])C2([H])C([H])(C([H])(C([H])([H])[H])C([H])([H])[H])C1([H])[H]

$$$$
71:1:1
     RDKit          3D

 69 73  0  0  1  0  0  0  0  0999 V2000
    5.1069   -4.0539    4.0672 C   0  0  0  0  0  0  0  0  0  0  0  0
    3.8255   -4.6284    4.6761 C   0  0  0  0  0  0  0  0  0  0  0  0
    3.7103   -5.8392    4.8396 O   0  0  0  0  0  0  0  0  0  0  0  0
    2.8603   -3.7348    5.0211 O   0  0  0  0  0  0  0  0  0  0  0  0
    2.9523   -2.3353    4.7530 C   0  0  2  0  0  0  0  0  0  0  0  0
    2.1153   -1.4555    5.7163 C   0  0  0  0  0  0  0  0  0  0  0  0
    2.5840   -0.7034    6.7056 C   0  0  0  0  0  0  0  0  0  0  0  0
    3.4891    0.4154    6.2994 C   0  0  0  0  0  0  0  0  0  0  0  0
    2.7300    1.6187    5.6262 C   0  0  1  0  0  0  0  0  0  0  0  0
    3.7808    2.6478    5.0713 C   0  0  0  0  0  0  0  0  0  0  0  0
    4.9008    2.9898    6.0859 C   0  0  0  0  0  0  0  0  0  0  0  0
    3.1957    4.0018    4.6298 C   0  0  0  0  0  0  0  0  0  0  0  0
    1.3171    1.4498    4.8208 C   0  0  1  0  0  0  0  0  0  0  0  0
    1.1150    1.1631    3.3511 C   0  0  2  0  0  0  0  0  0  0  0  0
    2.0288    1.8657    2.2940 C   0  0  0  0  0  0  0  0  0  0  0  0
   -0.3311    1.8638    3.1106 C   0  0  0  0  0  0  0  0  0  0  0  0
   -1.0407    2.8648    4.2142 C   0  0  0  0  0  0  0  0  0  0  0  0
   -0.4630    4.3010    4.0621 C   0  0  0  0  0  0  0  0  0  0  0  0
   -2.5016    3.0617    3.7367 C   0  0  0  0  0  0  0  0  0  0  0  0
   -1.0614    2.5384    5.8376 C   0  0  0  0  0  0  0  0  0  0  0  0
   -0.3502    1.2586    6.5236 C   0  0  0  0  0  0  0  0  0  0  0  0
    0.1835    0.4185    5.3705 C   0  0  1  0  0  0  0  0  0  0  0  0
   -1.2828   -0.0081    4.8318 C   0  0  0  0  0  0  0  0  0  0  0  0
    0.8990   -0.9404    4.9978 C   0  0  2  0  0  0  0  0  0  0  0  0
    0.0103   -2.2739    5.0226 C   0  0  0  0  0  0  0  0  0  0  0  0
    1.4503   -0.4100    3.5589 C   0  0  2  0  0  0  0  0  0  0  0  0
    2.9399   -0.5991    3.0895 C   0  0  0  0  0  0  0  0  0  0  0  0
    2.6200   -2.0154    3.2465 C   0  0  2  0  0  0  0  0  0  0  0  0
    1.2471   -1.6123    2.7931 O   0  0  0  0  0  0  0  0  0  0  0  0
    5.5720   -3.3381    4.7473 H   0  0  0  0  0  0  0  0  0  0  0  0
    4.9147   -3.5575    3.1166 H   0  0  0  0  0  0  0  0  0  0  0  0
    5.8333   -4.8466    3.8683 H   0  0  0  0  0  0  0  0  0  0  0  0
    3.9799   -2.0582    4.9852 H   0  0  0  0  0  0  0  0  0  0  0  0
    1.8291   -0.2422    7.3235 H   0  0  0  0  0  0  0  0  0  0  0  0
    3.9367    0.7567    7.2326 H   0  0  0  0  0  0  0  0  0  0  0  0
    4.3386    0.0545    5.7179 H   0  0  0  0  0  0  0  0  0  0  0  0
    2.3912    2.1387    6.5213 H   0  0  0  0  0  0  0  0  0  0  0  0
    4.2795    2.1874    4.2236 H   0  0  0  0  0  0  0  0  0  0  0  0
    4.4865    3.3867    7.0144 H   0  0  0  0  0  0  0  0  0  0  0  0
    5.5680    3.7565    5.6860 H   0  0  0  0  0  0  0  0  0  0  0  0
    5.5354    2.1384    6.3332 H   0  0  0  0  0  0  0  0  0  0  0  0
    2.6436    4.4738    5.4427 H   0  0  0  0  0  0  0  0  0  0  0  0
    2.5342    3.9207    3.7767 H   0  0  0  0  0  0  0  0  0  0  0  0
    3.9820    4.6949    4.3277 H   0  0  0  0  0  0  0  0  0  0  0  0
    1.1202    2.4925    4.9350 H   0  0  0  0  0  0  0  0  0  0  0  0
    3.0883    1.8384    2.5077 H   0  0  0  0  0  0  0  0  0  0  0  0
    1.7883    2.9172    2.1476 H   0  0  0  0  0  0  0  0  0  0  0  0
    1.8842    1.3966    1.3184 H   0  0  0  0  0  0  0  0  0  0  0  0
   -0.2583    2.4836    2.2182 H   0  0  0  0  0  0  0  0  0  0  0  0
   -1.0372    1.1574    2.6802 H   0  0  0  0  0  0  0  0  0  0  0  0
   -1.1195    5.0395    4.5222 H   0  0  0  0  0  0  0  0  0  0  0  0
   -0.3452    4.5919    3.0178 H   0  0  0  0  0  0  0  0  0  0  0  0
    0.4969    4.4447    4.5450 H   0  0  0  0  0  0  0  0  0  0  0  0
   -3.0281    3.7387    4.4076 H   0  0  0  0  0  0  0  0  0  0  0  0
   -3.0838    2.1434    3.6797 H   0  0  0  0  0  0  0  0  0  0  0  0
   -2.5387    3.5040    2.7391 H   0  0  0  0  0  0  0  0  0  0  0  0
   -0.6628    3.4085    6.3645 H   0  0  0  0  0  0  0  0  0  0  0  0
   -2.1024    2.5222    6.1706 H   0  0  0  0  0  0  0  0  0  0  0  0
    0.4362    1.5767    7.2062 H   0  0  0  0  0  0  0  0  0  0  0  0
   -1.0531    0.7067    7.1481 H   0  0  0  0  0  0  0  0  0  0  0  0
   -1.7620   -0.7076    5.5143 H   0  0  0  0  0  0  0  0  0  0  0  0
   -1.2861   -0.4678    3.8462 H   0  0  0  0  0  0  0  0  0  0  0  0
   -2.0841    0.7020    4.7750 H   0  0  0  0  0  0  0  0  0  0  0  0
   -0.7384   -2.3782    4.2339 H   0  0  0  0  0  0  0  0  0  0  0  0
   -0.4774   -2.3790    5.9933 H   0  0  0  0  0  0  0  0  0  0  0  0
    0.5553   -3.2026    4.9038 H   0  0  0  0  0  0  0  0  0  0  0  0
    3.1659   -0.3856    2.0473 H   0  0  0  0  0  0  0  0  0  0  0  0
    3.7307   -0.2095    3.7157 H   0  0  0  0  0  0  0  0  0  0  0  0
    3.1394   -2.6179    2.5056 H   0  0  0  0  0  0  0  0  0  0  0  0
  1  2  1  0
  1 30  1  0
  1 31  1  0
  1 32  1  0
  2  3  2  0
  2  4  1  0
  4  5  1  0
  5 28  1  0
  5  6  1  0
  5 33  1  6
  6 24  1  0
  6  7  2  0
  7  8  1  0
  7 34  1  0
  8  9  1  0
  8 35  1  0
  8 36  1  0
  9 10  1  0
  9 13  1  0
  9 37  1  1
 10 11  1  0
 10 12  1  0
 10 38  1  0
 11 39  1  0
 11 40  1  0
 11 41  1  0
 12 42  1  0
 12 43  1  0
 12 44  1  0
 13 22  1  0
 13 14  1  0
 13 45  1  6
 14 26  1  0
 14 15  1  6
 14 16  1  0
 15 46  1  0
 15 47  1  0
 15 48  1  0
 16 17  1  0
 16 49  1  0
 16 50  1  0
 17 18  1  0
 17 19  1  0
 17 20  1  0
 18 51  1  0
 18 52  1  0
 18 53  1  0
 19 54  1  0
 19 55  1  0
 19 56  1  0
 20 21  1  0
 20 57  1  0
 20 58  1  0
 21 22  1  0
 21 59  1  0
 21 60  1  0
 22 23  1  6
 22 24  1  0
 23 61  1  0
 23 62  1  0
 23 63  1  0
 24 25  1  6
 24 26  1  0
 25 64  1  0
 25 65  1  0
 25 66  1  0
 26 29  1  6
 26 27  1  0
 27 28  1  0
 27 67  1  0
 27 68  1  0
 28 29  1  0
 28 69  1  6
M  END
>  <i_m_ct_stereo_status>  (300) 
1

>  <s_m_source_file>  (300) 
/var/tmp/pbs.5076255.sched01/tmpnby3vxlc/96d7dj3887.sdf

>  <i_m_source_file_index>  (300) 
30

>  <i_lp_mmshare_version>  (300) 
48012

>  <i_f3d_flags>  (300) 
0

>  <s_epik_input>  (300) 
W0NIM11bQ0hdKFtDSDNdKVtDQEBIXTFbQ0gyXVtDSF09QyhbQ0BIXShbQ0BASF0oTzIpW0NIMl0zKU9DKD1PKVtDSDNdKVtDQEBdNChbQ0gzXSlDKFtDSDNdKShbQ0BASF0xQzUoW0NAQF0yMzQpW0NIM10pW0NIMl1bQ0gyXUMoW0NIMl01KShbQ0gzXSlbQ0gzXQ==

>  <s_epik_cmdline>  (300) 
J2VwaWtfcHl0aG9uJywgJy1waHQnLCAnMi4wJywgJy1waCcsICc3LjAnLCAnLXRuJywgJzgnLCAnLW1hJywgJzIwMCcsICctaW1hZScsICc8aW5maWxlLm1hZT4nLCAnLW9tYWUnLCAnPG91dGZpbGUubWFlPic=

>  <r_lp_tautomer_probability>  (300) 
1

>  <r_epik_Ionization_Penalty>  (300) 
1.99995e-12

>  <r_epik_Ionization_Penalty_Charging>  (300) 
0

>  <r_epik_Ionization_Penalty_Neutral>  (300) 
1.99995e-12

>  <r_epik_State_Penalty>  (300) 
-0

>  <r_epik_Charging_Adjusted_Penalty>  (300) 
0

>  <i_epik_Tot_Q>  (300) 
0

>  <i_epik_Tot_abs_Q>  (300) 
0

>  <s_epik_Chemistry_Notes>  (300) 
This compound has an ester and may undergo hydrolysis at high or low pH.

>  <s_lp_Force_Field>  (300) 
OPLS3e

>  <r_lp_Energy>  (300) 
308.266

>  <b_lp_Chiralities_Consistent>  (300) 
1

>  <s_lp_Variant>  (300) 
71:0-2

>  <s_i_glide_gridfile>  (300) 
pfpi4k_grid

>  <i_i_glide_lignum>  (300) 
30

>  <i_i_glide_rotatable_bonds>  (300) 
3

>  <r_i_docking_score>  (300) 
-1.21361

>  <r_i_glide_ligand_efficiency>  (300) 
-0.0418485

>  <r_i_glide_ligand_efficiency_sa>  (300) 
-0.128572

>  <r_i_glide_ligand_efficiency_ln>  (300) 
-0.277885

>  <r_i_glide_gscore>  (300) 
-1.21361

>  <r_i_glide_lipo>  (300) 
-0.0311378

>  <r_i_glide_hbond>  (300) 
0

>  <r_i_glide_metal>  (300) 
-0

>  <r_i_glide_rewards>  (300) 
-0.677768

>  <r_i_glide_evdw>  (300) 
-17.9813

>  <r_i_glide_ecoul>  (300) 
1.8146

>  <r_i_glide_erotb>  (300) 
0.122173

>  <r_i_glide_esite>  (300) 
0

>  <r_i_glide_emodel>  (300) 
-14.5544

>  <r_i_glide_energy>  (300) 
-16.1667

>  <r_i_glide_einternal>  (300) 
5.24925

>  <r_i_glide_intrahb_reward>  (300) 
-0

>  <i_i_glide_confnum>  (300) 
2

>  <i_i_glide_posenum>  (300) 
13

>  <r_i_glide_eff_state_penalty>  (300) 
0

>  <ligand_id>  (300) 
71

>  <original_smiles>  (300) 
CC(=O)OC1C2=CCC(C(C)C)C3C4(C)CC(C)(C)CCC3(C)C2(C)C42CC1O2

>  <smiles>  (300) 
[H]C1=C2C([H])(OC(=O)C([H])([H])[H])C3([H])OC4(C3([H])[H])C2(C([H])([H])[H])C2(C([H])([H])[H])C([H])([H])C([H])([H])C(C([H])([H])[H])(C([H])([H])[H])C([H])([H])C4(C([H])([H])[H])C2([H])C([H])(C([H])(C([H])([H])[H])C([H])([H])[H])C1([H])[H]

$$$$
72:0:0
     RDKit          3D

 27 29  0  0  1  0  0  0  0  0999 V2000
    0.1281    1.7444    2.4779 C   0  0  0  0  0  0  0  0  0  0  0  0
   -1.3811    1.7086    2.7372 C   0  0  0  0  0  0  0  0  0  0  0  0
   -1.6420    1.9802    4.1087 O   0  0  0  0  0  0  0  0  0  0  0  0
   -1.9760    3.2249    4.5016 C   0  0  0  0  0  0  0  0  0  0  0  0
   -2.1470    4.1934    3.7634 O   0  0  0  0  0  0  0  0  0  0  0  0
   -2.1983    3.3354    5.9821 C   0  0  2  0  0  0  0  0  0  0  0  0
   -1.0619    3.8866    6.8327 C   0  0  1  0  0  0  0  0  0  0  0  0
   -1.1814    4.3535    8.2896 C   0  0  1  0  0  0  0  0  0  0  0  0
   -2.6344    4.2890    8.7177 C   0  0  0  0  0  0  0  0  0  0  0  0
   -2.9690    2.9918    8.7807 C   0  0  0  0  0  0  0  0  0  0  0  0
   -1.7360    2.1963    8.3983 C   0  0  2  0  0  0  0  0  0  0  0  0
   -0.6673    3.1044    9.0228 C   0  0  0  0  0  0  0  0  0  0  0  0
   -1.4362    2.4057    6.9137 C   0  0  1  0  0  0  0  0  0  0  0  0
    0.3467    1.5150    1.4329 H   0  0  0  0  0  0  0  0  0  0  0  0
    0.6561    1.0220    3.1011 H   0  0  0  0  0  0  0  0  0  0  0  0
    0.5365    2.7346    2.6851 H   0  0  0  0  0  0  0  0  0  0  0  0
   -1.9099    2.4023    2.0832 H   0  0  0  0  0  0  0  0  0  0  0  0
   -1.7637    0.7147    2.5022 H   0  0  0  0  0  0  0  0  0  0  0  0
   -3.2123    3.6180    6.2569 H   0  0  0  0  0  0  0  0  0  0  0  0
   -0.1045    4.1031    6.3512 H   0  0  0  0  0  0  0  0  0  0  0  0
   -0.6601    5.2847    8.5170 H   0  0  0  0  0  0  0  0  0  0  0  0
   -3.2696    5.1398    8.8956 H   0  0  0  0  0  0  0  0  0  0  0  0
   -3.9305    2.5749    9.0232 H   0  0  0  0  0  0  0  0  0  0  0  0
   -1.7157    1.1574    8.7209 H   0  0  0  0  0  0  0  0  0  0  0  0
    0.3575    2.8284    8.7784 H   0  0  0  0  0  0  0  0  0  0  0  0
   -0.7685    3.1806   10.1097 H   0  0  0  0  0  0  0  0  0  0  0  0
   -0.6978    1.7210    6.4922 H   0  0  0  0  0  0  0  0  0  0  0  0
  1  2  1  0
  1 14  1  0
  1 15  1  0
  1 16  1  0
  2  3  1  0
  2 17  1  0
  2 18  1  0
  3  4  1  0
  4  5  2  0
  4  6  1  0
  6 13  1  0
  6  7  1  0
  6 19  1  6
  7 13  1  0
  7  8  1  0
  7 20  1  6
  8 12  1  0
  8  9  1  0
  8 21  1  6
  9 10  2  0
  9 22  1  0
 10 11  1  0
 10 23  1  0
 11 12  1  0
 11 13  1  0
 11 24  1  1
 12 25  1  0
 12 26  1  0
 13 27  1  6
M  END
>  <i_m_ct_stereo_status>  (301) 
1

>  <s_m_source_file>  (301) 
/var/tmp/pbs.5076255.sched01/tmpnby3vxlc/96d7dj3887.sdf

>  <i_m_source_file_index>  (301) 
31

>  <i_lp_mmshare_version>  (301) 
48012

>  <i_f3d_flags>  (301) 
0

>  <s_epik_input>  (301) 
W0NIM11bQ0gyXU9DKD1PKVtDQEhdMVtDQEBIXTJbQ0BASF0oW0NIMl0zKVtDSF09W0NIXVtDQEBIXTNbQ0BIXTEy

>  <s_epik_cmdline>  (301) 
J2VwaWtfcHl0aG9uJywgJy1waHQnLCAnMi4wJywgJy1waCcsICc3LjAnLCAnLXRuJywgJzgnLCAnLW1hJywgJzIwMCcsICctaW1hZScsICc8aW5maWxlLm1hZT4nLCAnLW9tYWUnLCAnPG91dGZpbGUubWFlPic=

>  <r_lp_tautomer_probability>  (301) 
1

>  <r_epik_Ionization_Penalty>  (301) 
0

>  <r_epik_Ionization_Penalty_Charging>  (301) 
0

>  <r_epik_Ionization_Penalty_Neutral>  (301) 
0

>  <r_epik_State_Penalty>  (301) 
-0

>  <r_epik_Charging_Adjusted_Penalty>  (301) 
0

>  <i_epik_Tot_Q>  (301) 
0

>  <i_epik_Tot_abs_Q>  (301) 
0

>  <s_epik_Chemistry_Notes>  (301) 
This compound has an ester and may undergo hydrolysis at high or low pH.

>  <s_lp_Force_Field>  (301) 
OPLS3e

>  <r_lp_Energy>  (301) 
36.3471

>  <b_lp_Chiralities_Consistent>  (301) 
1

>  <s_lp_Variant>  (301) 
72:0-1

>  <s_i_glide_gridfile>  (301) 
pfpi4k_grid

>  <i_i_glide_lignum>  (301) 
31

>  <i_i_glide_rotatable_bonds>  (301) 
3

>  <r_i_docking_score>  (301) 
-3.07869

>  <r_i_glide_ligand_efficiency>  (301) 
-0.236822

>  <r_i_glide_ligand_efficiency_sa>  (301) 
-0.556849

>  <r_i_glide_ligand_efficiency_ln>  (301) 
-0.8636

>  <r_i_glide_gscore>  (301) 
-3.07869

>  <r_i_glide_lipo>  (301) 
-0.102196

>  <r_i_glide_hbond>  (301) 
-0.107883

>  <r_i_glide_metal>  (301) 
-0

>  <r_i_glide_rewards>  (301) 
-2.1939

>  <r_i_glide_evdw>  (301) 
-16.8175

>  <r_i_glide_ecoul>  (301) 
-1.97188

>  <r_i_glide_erotb>  (301) 
0.494072

>  <r_i_glide_esite>  (301) 
-0.032126

>  <r_i_glide_emodel>  (301) 
-22.5347

>  <r_i_glide_energy>  (301) 
-18.7894

>  <r_i_glide_einternal>  (301) 
0.65565

>  <r_i_glide_intrahb_reward>  (301) 
-0

>  <i_i_glide_confnum>  (301) 
1

>  <i_i_glide_posenum>  (301) 
20

>  <r_i_glide_eff_state_penalty>  (301) 
0

>  <ligand_id>  (301) 
72

>  <original_smiles>  (301) 
CCOC(=O)C1C2C3C=CC(C3)C12

>  <smiles>  (301) 
[H]C1=C([H])C2([H])C([H])([H])C1([H])C1([H])C([H])(C(=O)OC([H])([H])C([H])([H])[H])C21[H]

$$$$
72:0:1
     RDKit          3D

 27 29  0  0  1  0  0  0  0  0999 V2000
    1.1740   -2.6946    6.0530 C   0  0  0  0  0  0  0  0  0  0  0  0
    0.4289   -2.5970    4.7175 C   0  0  0  0  0  0  0  0  0  0  0  0
    0.0269   -1.2529    4.4736 O   0  0  0  0  0  0  0  0  0  0  0  0
   -1.1132   -0.7656    4.9946 C   0  0  0  0  0  0  0  0  0  0  0  0
   -1.9086   -1.4035    5.6863 O   0  0  0  0  0  0  0  0  0  0  0  0
   -1.3831    0.6498    4.5858 C   0  0  2  0  0  0  0  0  0  0  0  0
   -0.3042    1.6877    4.8234 C   0  0  1  0  0  0  0  0  0  0  0  0
   -0.2860    3.1011    4.2315 C   0  0  1  0  0  0  0  0  0  0  0  0
   -1.4700    3.2638    3.2947 C   0  0  0  0  0  0  0  0  0  0  0  0
   -2.5735    3.2603    4.0471 C   0  0  0  0  0  0  0  0  0  0  0  0
   -2.1288    3.0983    5.4910 C   0  0  2  0  0  0  0  0  0  0  0  0
   -0.8219    3.9058    5.4242 C   0  0  0  0  0  0  0  0  0  0  0  0
   -1.5684    1.6823    5.6852 C   0  0  1  0  0  0  0  0  0  0  0  0
    1.5077   -3.7144    6.2423 H   0  0  0  0  0  0  0  0  0  0  0  0
    0.5368   -2.3944    6.8849 H   0  0  0  0  0  0  0  0  0  0  0  0
    2.0531   -2.0489    6.0552 H   0  0  0  0  0  0  0  0  0  0  0  0
    1.0910   -2.9050    3.9077 H   0  0  0  0  0  0  0  0  0  0  0  0
   -0.4214   -3.2792    4.6923 H   0  0  0  0  0  0  0  0  0  0  0  0
   -2.0199    0.7467    3.7081 H   0  0  0  0  0  0  0  0  0  0  0  0
    0.6139    1.3883    5.3345 H   0  0  0  0  0  0  0  0  0  0  0  0
    0.6773    3.4125    3.8269 H   0  0  0  0  0  0  0  0  0  0  0  0
   -1.3949    3.3148    2.2203 H   0  0  0  0  0  0  0  0  0  0  0  0
   -3.5978    3.3007    3.7120 H   0  0  0  0  0  0  0  0  0  0  0  0
   -2.8483    3.4119    6.2483 H   0  0  0  0  0  0  0  0  0  0  0  0
   -0.2037    3.8393    6.3208 H   0  0  0  0  0  0  0  0  0  0  0  0
   -0.9790    4.9580    5.1770 H   0  0  0  0  0  0  0  0  0  0  0  0
   -1.4217    1.3836    6.7253 H   0  0  0  0  0  0  0  0  0  0  0  0
  1  2  1  0
  1 14  1  0
  1 15  1  0
  1 16  1  0
  2  3  1  0
  2 17  1  0
  2 18  1  0
  3  4  1  0
  4  5  2  0
  4  6  1  0
  6 13  1  0
  6  7  1  0
  6 19  1  6
  7 13  1  0
  7  8  1  0
  7 20  1  1
  8 12  1  0
  8  9  1  0
  8 21  1  6
  9 10  2  0
  9 22  1  0
 10 11  1  0
 10 23  1  0
 11 12  1  0
 11 13  1  0
 11 24  1  1
 12 25  1  0
 12 26  1  0
 13 27  1  1
M  END
>  <i_m_ct_stereo_status>  (302) 
1

>  <s_m_source_file>  (302) 
/var/tmp/pbs.5076255.sched01/tmpnby3vxlc/96d7dj3887.sdf

>  <i_m_source_file_index>  (302) 
31

>  <i_lp_mmshare_version>  (302) 
48012

>  <i_f3d_flags>  (302) 
0

>  <s_epik_input>  (302) 
W0NIM11bQ0gyXU9DKD1PKVtDQEhdMVtDQEBIXTJbQ0BASF0oW0NIMl0zKVtDSF09W0NIXVtDQEBIXTNbQ0BIXTEy

>  <s_epik_cmdline>  (302) 
J2VwaWtfcHl0aG9uJywgJy1waHQnLCAnMi4wJywgJy1waCcsICc3LjAnLCAnLXRuJywgJzgnLCAnLW1hJywgJzIwMCcsICctaW1hZScsICc8aW5maWxlLm1hZT4nLCAnLW9tYWUnLCAnPG91dGZpbGUubWFlPic=

>  <r_lp_tautomer_probability>  (302) 
1

>  <r_epik_Ionization_Penalty>  (302) 
0

>  <r_epik_Ionization_Penalty_Charging>  (302) 
0

>  <r_epik_Ionization_Penalty_Neutral>  (302) 
0

>  <r_epik_State_Penalty>  (302) 
-0

>  <r_epik_Charging_Adjusted_Penalty>  (302) 
0

>  <i_epik_Tot_Q>  (302) 
0

>  <i_epik_Tot_abs_Q>  (302) 
0

>  <s_epik_Chemistry_Notes>  (302) 
This compound has an ester and may undergo hydrolysis at high or low pH.

>  <s_lp_Force_Field>  (302) 
OPLS3e

>  <r_lp_Energy>  (302) 
36.3471

>  <b_lp_Chiralities_Consistent>  (302) 
1

>  <s_lp_Variant>  (302) 
72:0-1

>  <s_i_glide_gridfile>  (302) 
pfpi4k_grid

>  <i_i_glide_lignum>  (302) 
31

>  <i_i_glide_rotatable_bonds>  (302) 
3

>  <r_i_docking_score>  (302) 
-2.93157

>  <r_i_glide_ligand_efficiency>  (302) 
-0.225506

>  <r_i_glide_ligand_efficiency_sa>  (302) 
-0.530239

>  <r_i_glide_ligand_efficiency_ln>  (302) 
-0.822333

>  <r_i_glide_gscore>  (302) 
-2.93157

>  <r_i_glide_lipo>  (302) 
-0.0284847

>  <r_i_glide_hbond>  (302) 
-0.0115506

>  <r_i_glide_metal>  (302) 
-0

>  <r_i_glide_rewards>  (302) 
-2.1939

>  <r_i_glide_evdw>  (302) 
-15.5206

>  <r_i_glide_ecoul>  (302) 
-2.52618

>  <r_i_glide_erotb>  (302) 
0.494072

>  <r_i_glide_esite>  (302) 
-0.0367539

>  <r_i_glide_emodel>  (302) 
-21.8187

>  <r_i_glide_energy>  (302) 
-18.0468

>  <r_i_glide_einternal>  (302) 
0.401782

>  <r_i_glide_intrahb_reward>  (302) 
-0

>  <i_i_glide_confnum>  (302) 
1

>  <i_i_glide_posenum>  (302) 
3

>  <r_i_glide_eff_state_penalty>  (302) 
0

>  <ligand_id>  (302) 
72

>  <original_smiles>  (302) 
CCOC(=O)C1C2C3C=CC(C3)C12

>  <smiles>  (302) 
[H]C1=C([H])C2([H])C([H])([H])C1([H])C1([H])C([H])(C(=O)OC([H])([H])C([H])([H])[H])C21[H]

$$$$
72:0:2
     RDKit          3D

 27 29  0  0  1  0  0  0  0  0999 V2000
   -2.1487   -4.3135    7.6613 C   0  0  0  0  0  0  0  0  0  0  0  0
   -0.7636   -4.9609    7.6767 C   0  0  0  0  0  0  0  0  0  0  0  0
   -0.5565   -5.5702    6.4119 O   0  0  0  0  0  0  0  0  0  0  0  0
    0.3770   -6.5293    6.2764 C   0  0  0  0  0  0  0  0  0  0  0  0
    1.1452   -6.8989    7.1636 O   0  0  0  0  0  0  0  0  0  0  0  0
    0.4234   -7.1146    4.8914 C   0  0  2  0  0  0  0  0  0  0  0  0
   -0.8844   -7.2866    4.1414 C   0  0  1  0  0  0  0  0  0  0  0  0
   -1.0188   -7.5969    2.6485 C   0  0  1  0  0  0  0  0  0  0  0  0
    0.3614   -7.6188    2.0171 C   0  0  0  0  0  0  0  0  0  0  0  0
    0.9933   -8.6966    2.4918 C   0  0  0  0  0  0  0  0  0  0  0  0
    0.0378   -9.3888    3.4455 C   0  0  2  0  0  0  0  0  0  0  0  0
   -1.2781   -9.1066    2.7045 C   0  0  0  0  0  0  0  0  0  0  0  0
   -0.1509   -8.5099    4.6926 C   0  0  1  0  0  0  0  0  0  0  0  0
   -2.3806   -3.8675    8.6297 H   0  0  0  0  0  0  0  0  0  0  0  0
   -2.9196   -5.0559    7.4516 H   0  0  0  0  0  0  0  0  0  0  0  0
   -2.2167   -3.5425    6.8920 H   0  0  0  0  0  0  0  0  0  0  0  0
    0.0108   -4.2207    7.8826 H   0  0  0  0  0  0  0  0  0  0  0  0
   -0.7211   -5.7052    8.4723 H   0  0  0  0  0  0  0  0  0  0  0  0
    1.3242   -6.8695    4.3307 H   0  0  0  0  0  0  0  0  0  0  0  0
   -1.8208   -7.0448    4.6464 H   0  0  0  0  0  0  0  0  0  0  0  0
   -1.7747   -7.0118    2.1310 H   0  0  0  0  0  0  0  0  0  0  0  0
    0.7495   -6.8784    1.3409 H   0  0  0  0  0  0  0  0  0  0  0  0
    2.0007   -9.0202    2.2867 H   0  0  0  0  0  0  0  0  0  0  0  0
    0.2486  -10.4388    3.6569 H   0  0  0  0  0  0  0  0  0  0  0  0
   -2.1721   -9.3967    3.2613 H   0  0  0  0  0  0  0  0  0  0  0  0
   -1.3138   -9.5676    1.7138 H   0  0  0  0  0  0  0  0  0  0  0  0
   -0.6357   -9.0101    5.5343 H   0  0  0  0  0  0  0  0  0  0  0  0
  1  2  1  0
  1 14  1  0
  1 15  1  0
  1 16  1  0
  2  3  1  0
  2 17  1  0
  2 18  1  0
  3  4  1  0
  4  5  2  0
  4  6  1  0
  6 13  1  0
  6  7  1  0
  6 19  1  6
  7 13  1  0
  7  8  1  0
  7 20  1  1
  8 12  1  0
  8  9  1  0
  8 21  1  6
  9 10  2  0
  9 22  1  0
 10 11  1  0
 10 23  1  0
 11 12  1  0
 11 13  1  0
 11 24  1  1
 12 25  1  0
 12 26  1  0
 13 27  1  1
M  END
>  <i_m_ct_stereo_status>  (303) 
1

>  <s_m_source_file>  (303) 
/var/tmp/pbs.5076255.sched01/tmpnby3vxlc/96d7dj3887.sdf

>  <i_m_source_file_index>  (303) 
31

>  <i_lp_mmshare_version>  (303) 
48012

>  <i_f3d_flags>  (303) 
0

>  <s_epik_input>  (303) 
W0NIM11bQ0gyXU9DKD1PKVtDQEhdMVtDQEBIXTJbQ0BASF0oW0NIMl0zKVtDSF09W0NIXVtDQEBIXTNbQ0BIXTEy

>  <s_epik_cmdline>  (303) 
J2VwaWtfcHl0aG9uJywgJy1waHQnLCAnMi4wJywgJy1waCcsICc3LjAnLCAnLXRuJywgJzgnLCAnLW1hJywgJzIwMCcsICctaW1hZScsICc8aW5maWxlLm1hZT4nLCAnLW9tYWUnLCAnPG91dGZpbGUubWFlPic=

>  <r_lp_tautomer_probability>  (303) 
1

>  <r_epik_Ionization_Penalty>  (303) 
0

>  <r_epik_Ionization_Penalty_Charging>  (303) 
0

>  <r_epik_Ionization_Penalty_Neutral>  (303) 
0

>  <r_epik_State_Penalty>  (303) 
-0

>  <r_epik_Charging_Adjusted_Penalty>  (303) 
0

>  <i_epik_Tot_Q>  (303) 
0

>  <i_epik_Tot_abs_Q>  (303) 
0

>  <s_epik_Chemistry_Notes>  (303) 
This compound has an ester and may undergo hydrolysis at high or low pH.

>  <s_lp_Force_Field>  (303) 
OPLS3e

>  <r_lp_Energy>  (303) 
36.3471

>  <b_lp_Chiralities_Consistent>  (303) 
1

>  <s_lp_Variant>  (303) 
72:0-1

>  <s_i_glide_gridfile>  (303) 
pfpi4k_grid

>  <i_i_glide_lignum>  (303) 
31

>  <i_i_glide_rotatable_bonds>  (303) 
3

>  <r_i_docking_score>  (303) 
-2.60886

>  <r_i_glide_ligand_efficiency>  (303) 
-0.200682

>  <r_i_glide_ligand_efficiency_sa>  (303) 
-0.47187

>  <r_i_glide_ligand_efficiency_ln>  (303) 
-0.731809

>  <r_i_glide_gscore>  (303) 
-2.60886

>  <r_i_glide_lipo>  (303) 
-0.0894506

>  <r_i_glide_hbond>  (303) 
0

>  <r_i_glide_metal>  (303) 
-0

>  <r_i_glide_rewards>  (303) 
-2.1939

>  <r_i_glide_evdw>  (303) 
-18.8589

>  <r_i_glide_ecoul>  (303) 
0.867967

>  <r_i_glide_erotb>  (303) 
0.494072

>  <r_i_glide_esite>  (303) 
-0.00683291

>  <r_i_glide_emodel>  (303) 
-20.9321

>  <r_i_glide_energy>  (303) 
-17.9909

>  <r_i_glide_einternal>  (303) 
1.17837

>  <r_i_glide_intrahb_reward>  (303) 
-0

>  <i_i_glide_confnum>  (303) 
1

>  <i_i_glide_posenum>  (303) 
2

>  <r_i_glide_eff_state_penalty>  (303) 
0

>  <ligand_id>  (303) 
72

>  <original_smiles>  (303) 
CCOC(=O)C1C2C3C=CC(C3)C12

>  <smiles>  (303) 
[H]C1=C([H])C2([H])C([H])([H])C1([H])C1([H])C([H])(C(=O)OC([H])([H])C([H])([H])[H])C21[H]

$$$$
72:1:0
     RDKit          3D

 27 29  0  0  1  0  0  0  0  0999 V2000
   -6.9662   -5.4262   -5.5774 C   0  0  0  0  0  0  0  0  0  0  0  0
   -5.7926   -6.2433   -5.0254 C   0  0  0  0  0  0  0  0  0  0  0  0
   -6.0803   -7.6290   -5.1230 O   0  0  0  0  0  0  0  0  0  0  0  0
   -5.7263   -8.3263   -6.2182 C   0  0  0  0  0  0  0  0  0  0  0  0
   -5.0886   -7.8660   -7.1653 O   0  0  0  0  0  0  0  0  0  0  0  0
   -6.1130   -9.7826   -6.1158 C   0  0  1  0  0  0  0  0  0  0  0  0
   -7.5280  -10.2925   -6.3532 C   0  0  1  0  0  0  0  0  0  0  0  0
   -8.6379   -9.8574   -7.3264 C   0  0  1  0  0  0  0  0  0  0  0  0
   -8.2515   -8.5911   -8.0585 C   0  0  0  0  0  0  0  0  0  0  0  0
   -7.2689   -8.9225   -8.8990 C   0  0  0  0  0  0  0  0  0  0  0  0
   -6.9908  -10.3960   -8.7005 C   0  0  2  0  0  0  0  0  0  0  0  0
   -8.4276  -10.8654   -8.4638 C   0  0  0  0  0  0  0  0  0  0  0  0
   -6.3793  -10.6775   -7.3137 C   0  0  1  0  0  0  0  0  0  0  0  0
   -6.7576   -4.3601   -5.5055 H   0  0  0  0  0  0  0  0  0  0  0  0
   -7.8774   -5.6295   -5.0161 H   0  0  0  0  0  0  0  0  0  0  0  0
   -7.1553   -5.6603   -6.6270 H   0  0  0  0  0  0  0  0  0  0  0  0
   -4.8634   -6.0005   -5.5388 H   0  0  0  0  0  0  0  0  0  0  0  0
   -5.6355   -6.0070   -3.9746 H   0  0  0  0  0  0  0  0  0  0  0  0
   -5.5825  -10.2885   -5.3112 H   0  0  0  0  0  0  0  0  0  0  0  0
   -7.8572  -11.0769   -5.6729 H   0  0  0  0  0  0  0  0  0  0  0  0
   -9.6371   -9.8667   -6.8927 H   0  0  0  0  0  0  0  0  0  0  0  0
   -8.6691   -7.6156   -7.8710 H   0  0  0  0  0  0  0  0  0  0  0  0
   -6.6970   -8.2694   -9.5405 H   0  0  0  0  0  0  0  0  0  0  0  0
   -6.4748  -10.8979   -9.5196 H   0  0  0  0  0  0  0  0  0  0  0  0
   -8.5268  -11.9107   -8.1653 H   0  0  0  0  0  0  0  0  0  0  0  0
   -9.0837  -10.6879   -9.3185 H   0  0  0  0  0  0  0  0  0  0  0  0
   -6.0058  -11.6952   -7.2111 H   0  0  0  0  0  0  0  0  0  0  0  0
  1  2  1  0
  1 14  1  0
  1 15  1  0
  1 16  1  0
  2  3  1  0
  2 17  1  0
  2 18  1  0
  3  4  1  0
  4  5  2  0
  4  6  1  0
  6 13  1  0
  6  7  1  0
  6 19  1  1
  7 13  1  0
  7  8  1  0
  7 20  1  1
  8 12  1  0
  8  9  1  0
  8 21  1  1
  9 10  2  0
  9 22  1  0
 10 11  1  0
 10 23  1  0
 11 12  1  0
 11 13  1  0
 11 24  1  6
 12 25  1  0
 12 26  1  0
 13 27  1  6
M  END
>  <i_m_ct_stereo_status>  (304) 
1

>  <s_m_source_file>  (304) 
/var/tmp/pbs.5076255.sched01/tmpnby3vxlc/96d7dj3887.sdf

>  <i_m_source_file_index>  (304) 
32

>  <i_lp_mmshare_version>  (304) 
48012

>  <i_f3d_flags>  (304) 
0

>  <s_epik_input>  (304) 
W0NIM11bQ0gyXU9DKD1PKVtDQEhdMVtDQEBIXTJbQ0BASF0oW0NIMl0zKVtDSF09W0NIXVtDQEBIXTNbQ0BIXTEy

>  <s_epik_cmdline>  (304) 
J2VwaWtfcHl0aG9uJywgJy1waHQnLCAnMi4wJywgJy1waCcsICc3LjAnLCAnLXRuJywgJzgnLCAnLW1hJywgJzIwMCcsICctaW1hZScsICc8aW5maWxlLm1hZT4nLCAnLW9tYWUnLCAnPG91dGZpbGUubWFlPic=

>  <r_lp_tautomer_probability>  (304) 
1

>  <r_epik_Ionization_Penalty>  (304) 
0

>  <r_epik_Ionization_Penalty_Charging>  (304) 
0

>  <r_epik_Ionization_Penalty_Neutral>  (304) 
0

>  <r_epik_State_Penalty>  (304) 
-0

>  <r_epik_Charging_Adjusted_Penalty>  (304) 
0

>  <i_epik_Tot_Q>  (304) 
0

>  <i_epik_Tot_abs_Q>  (304) 
0

>  <s_epik_Chemistry_Notes>  (304) 
This compound has an ester and may undergo hydrolysis at high or low pH.

>  <s_lp_Force_Field>  (304) 
OPLS3e

>  <r_lp_Energy>  (304) 
48.5331

>  <b_lp_Chiralities_Consistent>  (304) 
1

>  <s_lp_Variant>  (304) 
72:0-2

>  <s_i_glide_gridfile>  (304) 
pfpi4k_grid

>  <i_i_glide_lignum>  (304) 
32

>  <i_i_glide_rotatable_bonds>  (304) 
3

>  <r_i_docking_score>  (304) 
-4.65102

>  <r_i_glide_ligand_efficiency>  (304) 
-0.357771

>  <r_i_glide_ligand_efficiency_sa>  (304) 
-0.841239

>  <r_i_glide_ligand_efficiency_ln>  (304) 
-1.30465

>  <r_i_glide_gscore>  (304) 
-4.65102

>  <r_i_glide_lipo>  (304) 
-1.48204

>  <r_i_glide_hbond>  (304) 
0

>  <r_i_glide_metal>  (304) 
-0

>  <r_i_glide_rewards>  (304) 
-2.64943

>  <r_i_glide_evdw>  (304) 
-19.0607

>  <r_i_glide_ecoul>  (304) 
-0.403888

>  <r_i_glide_erotb>  (304) 
0.494072

>  <r_i_glide_esite>  (304) 
0

>  <r_i_glide_emodel>  (304) 
-26.159

>  <r_i_glide_energy>  (304) 
-19.4646

>  <r_i_glide_einternal>  (304) 
1.0023

>  <r_i_glide_intrahb_reward>  (304) 
-0

>  <i_i_glide_confnum>  (304) 
4

>  <i_i_glide_posenum>  (304) 
6

>  <r_i_glide_eff_state_penalty>  (304) 
0

>  <ligand_id>  (304) 
72

>  <original_smiles>  (304) 
CCOC(=O)C1C2C3C=CC(C3)C12

>  <smiles>  (304) 
[H]C1=C([H])C2([H])C([H])([H])C1([H])C1([H])C([H])(C(=O)OC([H])([H])C([H])([H])[H])C21[H]

$$$$
72:1:1
     RDKit          3D

 27 29  0  0  1  0  0  0  0  0999 V2000
    4.2180   -6.5447    0.8545 C   0  0  0  0  0  0  0  0  0  0  0  0
    3.2901   -5.9692    1.9525 C   0  0  0  0  0  0  0  0  0  0  0  0
    1.9554   -5.8008    1.4705 O   0  0  0  0  0  0  0  0  0  0  0  0
    1.0431   -6.8212    1.3748 C   0  0  0  0  0  0  0  0  0  0  0  0
   -0.0640   -6.6526    0.8729 O   0  0  0  0  0  0  0  0  0  0  0  0
    1.4999   -8.1577    1.9054 C   0  0  1  0  0  0  0  0  0  0  0  0
    1.6660   -8.3940    3.3902 C   0  0  1  0  0  0  0  0  0  0  0  0
    0.9095   -7.8818    4.6167 C   0  0  1  0  0  0  0  0  0  0  0  0
   -0.1660   -6.8750    4.2450 C   0  0  0  0  0  0  0  0  0  0  0  0
   -1.0976   -7.5487    3.5600 C   0  0  0  0  0  0  0  0  0  0  0  0
   -0.6555   -8.9899    3.4951 C   0  0  2  0  0  0  0  0  0  0  0  0
    0.0028   -9.0988    4.8738 C   0  0  0  0  0  0  0  0  0  0  0  0
    0.5846   -9.1483    2.6092 C   0  0  1  0  0  0  0  0  0  0  0  0
    5.2010   -6.7379    1.2701 H   0  0  0  0  0  0  0  0  0  0  0  0
    4.3287   -5.8453    0.0177 H   0  0  0  0  0  0  0  0  0  0  0  0
    3.8644   -7.4905    0.4329 H   0  0  0  0  0  0  0  0  0  0  0  0
    3.3440   -6.5701    2.8602 H   0  0  0  0  0  0  0  0  0  0  0  0
    3.6344   -4.9809    2.2372 H   0  0  0  0  0  0  0  0  0  0  0  0
    2.1670   -8.7130    1.2664 H   0  0  0  0  0  0  0  0  0  0  0  0
    2.5723   -8.9535    3.6474 H   0  0  0  0  0  0  0  0  0  0  0  0
    1.5620   -7.5877    5.4477 H   0  0  0  0  0  0  0  0  0  0  0  0
   -0.1041   -5.8156    4.4279 H   0  0  0  0  0  0  0  0  0  0  0  0
   -1.9657   -7.1509    3.0654 H   0  0  0  0  0  0  0  0  0  0  0  0
   -1.4331   -9.7158    3.2719 H   0  0  0  0  0  0  0  0  0  0  0  0
    0.5509  -10.0213    5.0407 H   0  0  0  0  0  0  0  0  0  0  0  0
   -0.7031   -8.9512    5.6877 H   0  0  0  0  0  0  0  0  0  0  0  0
    0.8096  -10.2006    2.3871 H   0  0  0  0  0  0  0  0  0  0  0  0
  1  2  1  0
  1 14  1  0
  1 15  1  0
  1 16  1  0
  2  3  1  0
  2 17  1  0
  2 18  1  0
  3  4  1  0
  4  5  2  0
  4  6  1  0
  6 13  1  0
  6  7  1  0
  6 19  1  6
  7 13  1  0
  7  8  1  0
  7 20  1  1
  8 12  1  0
  8  9  1  0
  8 21  1  1
  9 10  2  0
  9 22  1  0
 10 11  1  0
 10 23  1  0
 11 12  1  0
 11 13  1  0
 11 24  1  6
 12 25  1  0
 12 26  1  0
 13 27  1  6
M  END
>  <i_m_ct_stereo_status>  (305) 
1

>  <s_m_source_file>  (305) 
/var/tmp/pbs.5076255.sched01/tmpnby3vxlc/96d7dj3887.sdf

>  <i_m_source_file_index>  (305) 
32

>  <i_lp_mmshare_version>  (305) 
48012

>  <i_f3d_flags>  (305) 
0

>  <s_epik_input>  (305) 
W0NIM11bQ0gyXU9DKD1PKVtDQEhdMVtDQEBIXTJbQ0BASF0oW0NIMl0zKVtDSF09W0NIXVtDQEBIXTNbQ0BIXTEy

>  <s_epik_cmdline>  (305) 
J2VwaWtfcHl0aG9uJywgJy1waHQnLCAnMi4wJywgJy1waCcsICc3LjAnLCAnLXRuJywgJzgnLCAnLW1hJywgJzIwMCcsICctaW1hZScsICc8aW5maWxlLm1hZT4nLCAnLW9tYWUnLCAnPG91dGZpbGUubWFlPic=

>  <r_lp_tautomer_probability>  (305) 
1

>  <r_epik_Ionization_Penalty>  (305) 
0

>  <r_epik_Ionization_Penalty_Charging>  (305) 
0

>  <r_epik_Ionization_Penalty_Neutral>  (305) 
0

>  <r_epik_State_Penalty>  (305) 
-0

>  <r_epik_Charging_Adjusted_Penalty>  (305) 
0

>  <i_epik_Tot_Q>  (305) 
0

>  <i_epik_Tot_abs_Q>  (305) 
0

>  <s_epik_Chemistry_Notes>  (305) 
This compound has an ester and may undergo hydrolysis at high or low pH.

>  <s_lp_Force_Field>  (305) 
OPLS3e

>  <r_lp_Energy>  (305) 
48.5331

>  <b_lp_Chiralities_Consistent>  (305) 
1

>  <s_lp_Variant>  (305) 
72:0-2

>  <s_i_glide_gridfile>  (305) 
pfpi4k_grid

>  <i_i_glide_lignum>  (305) 
32

>  <i_i_glide_rotatable_bonds>  (305) 
3

>  <r_i_docking_score>  (305) 
-3.30332

>  <r_i_glide_ligand_efficiency>  (305) 
-0.254101

>  <r_i_glide_ligand_efficiency_sa>  (305) 
-0.597477

>  <r_i_glide_ligand_efficiency_ln>  (305) 
-0.926609

>  <r_i_glide_gscore>  (305) 
-3.30332

>  <r_i_glide_lipo>  (305) 
-0.131614

>  <r_i_glide_hbond>  (305) 
-0.16

>  <r_i_glide_metal>  (305) 
-0

>  <r_i_glide_rewards>  (305) 
-2.1939

>  <r_i_glide_evdw>  (305) 
-17.8174

>  <r_i_glide_ecoul>  (305) 
-2.32727

>  <r_i_glide_erotb>  (305) 
0.494072

>  <r_i_glide_esite>  (305) 
-0.071911

>  <r_i_glide_emodel>  (305) 
-22.1606

>  <r_i_glide_energy>  (305) 
-20.1447

>  <r_i_glide_einternal>  (305) 
5.94167

>  <r_i_glide_intrahb_reward>  (305) 
-0

>  <i_i_glide_confnum>  (305) 
4

>  <i_i_glide_posenum>  (305) 
1

>  <r_i_glide_eff_state_penalty>  (305) 
0

>  <ligand_id>  (305) 
72

>  <original_smiles>  (305) 
CCOC(=O)C1C2C3C=CC(C3)C12

>  <smiles>  (305) 
[H]C1=C([H])C2([H])C([H])([H])C1([H])C1([H])C([H])(C(=O)OC([H])([H])C([H])([H])[H])C21[H]

$$$$
72:1:2
     RDKit          3D

 27 29  0  0  1  0  0  0  0  0999 V2000
   -1.5208    3.5902    3.6597 C   0  0  0  0  0  0  0  0  0  0  0  0
   -2.1886    2.8489    4.8202 C   0  0  0  0  0  0  0  0  0  0  0  0
   -1.3263    2.8771    5.9462 O   0  0  0  0  0  0  0  0  0  0  0  0
   -1.3969    1.9136    6.8871 C   0  0  0  0  0  0  0  0  0  0  0  0
   -2.1704    0.9517    6.8773 O   0  0  0  0  0  0  0  0  0  0  0  0
   -0.3393    2.0913    7.9497 C   0  0  1  0  0  0  0  0  0  0  0  0
   -0.1490    3.3887    8.7214 C   0  0  1  0  0  0  0  0  0  0  0  0
   -1.1514    4.4612    9.1894 C   0  0  1  0  0  0  0  0  0  0  0  0
   -2.5439    4.1843    8.6624 C   0  0  0  0  0  0  0  0  0  0  0  0
   -2.9843    3.0879    9.2796 C   0  0  0  0  0  0  0  0  0  0  0  0
   -1.8811    2.6400   10.2124 C   0  0  2  0  0  0  0  0  0  0  0  0
   -1.3719    4.0200   10.6392 C   0  0  0  0  0  0  0  0  0  0  0  0
   -0.6603    2.1190    9.4357 C   0  0  1  0  0  0  0  0  0  0  0  0
   -2.1595    3.5852    2.7756 H   0  0  0  0  0  0  0  0  0  0  0  0
   -0.5786    3.1169    3.3818 H   0  0  0  0  0  0  0  0  0  0  0  0
   -1.3086    4.6271    3.9159 H   0  0  0  0  0  0  0  0  0  0  0  0
   -3.1381    3.3187    5.0794 H   0  0  0  0  0  0  0  0  0  0  0  0
   -2.4025    1.8239    4.5176 H   0  0  0  0  0  0  0  0  0  0  0  0
    0.5782    1.5506    7.7247 H   0  0  0  0  0  0  0  0  0  0  0  0
    0.8872    3.6554    8.9206 H   0  0  0  0  0  0  0  0  0  0  0  0
   -0.7951    5.4848    9.0676 H   0  0  0  0  0  0  0  0  0  0  0  0
   -3.0340    4.7540    7.8924 H   0  0  0  0  0  0  0  0  0  0  0  0
   -3.9138    2.5627    9.1273 H   0  0  0  0  0  0  0  0  0  0  0  0
   -2.1858    1.9892   11.0308 H   0  0  0  0  0  0  0  0  0  0  0  0
   -0.4678    3.9980   11.2514 H   0  0  0  0  0  0  0  0  0  0  0  0
   -2.1307    4.6110   11.1578 H   0  0  0  0  0  0  0  0  0  0  0  0
    0.0635    1.6185   10.0754 H   0  0  0  0  0  0  0  0  0  0  0  0
  1  2  1  0
  1 14  1  0
  1 15  1  0
  1 16  1  0
  2  3  1  0
  2 17  1  0
  2 18  1  0
  3  4  1  0
  4  5  2  0
  4  6  1  0
  6 13  1  0
  6  7  1  0
  6 19  1  1
  7 13  1  0
  7  8  1  0
  7 20  1  1
  8 12  1  0
  8  9  1  0
  8 21  1  1
  9 10  2  0
  9 22  1  0
 10 11  1  0
 10 23  1  0
 11 12  1  0
 11 13  1  0
 11 24  1  1
 12 25  1  0
 12 26  1  0
 13 27  1  1
M  END
>  <i_m_ct_stereo_status>  (306) 
1

>  <s_m_source_file>  (306) 
/var/tmp/pbs.5076255.sched01/tmpnby3vxlc/96d7dj3887.sdf

>  <i_m_source_file_index>  (306) 
32

>  <i_lp_mmshare_version>  (306) 
48012

>  <i_f3d_flags>  (306) 
0

>  <s_epik_input>  (306) 
W0NIM11bQ0gyXU9DKD1PKVtDQEhdMVtDQEBIXTJbQ0BASF0oW0NIMl0zKVtDSF09W0NIXVtDQEBIXTNbQ0BIXTEy

>  <s_epik_cmdline>  (306) 
J2VwaWtfcHl0aG9uJywgJy1waHQnLCAnMi4wJywgJy1waCcsICc3LjAnLCAnLXRuJywgJzgnLCAnLW1hJywgJzIwMCcsICctaW1hZScsICc8aW5maWxlLm1hZT4nLCAnLW9tYWUnLCAnPG91dGZpbGUubWFlPic=

>  <r_lp_tautomer_probability>  (306) 
1

>  <r_epik_Ionization_Penalty>  (306) 
0

>  <r_epik_Ionization_Penalty_Charging>  (306) 
0

>  <r_epik_Ionization_Penalty_Neutral>  (306) 
0

>  <r_epik_State_Penalty>  (306) 
-0

>  <r_epik_Charging_Adjusted_Penalty>  (306) 
0

>  <i_epik_Tot_Q>  (306) 
0

>  <i_epik_Tot_abs_Q>  (306) 
0

>  <s_epik_Chemistry_Notes>  (306) 
This compound has an ester and may undergo hydrolysis at high or low pH.

>  <s_lp_Force_Field>  (306) 
OPLS3e

>  <r_lp_Energy>  (306) 
48.5331

>  <b_lp_Chiralities_Consistent>  (306) 
1

>  <s_lp_Variant>  (306) 
72:0-2

>  <s_i_glide_gridfile>  (306) 
pfpi4k_grid

>  <i_i_glide_lignum>  (306) 
32

>  <i_i_glide_rotatable_bonds>  (306) 
3

>  <r_i_docking_score>  (306) 
-3.03903

>  <r_i_glide_ligand_efficiency>  (306) 
-0.233772

>  <r_i_glide_ligand_efficiency_sa>  (306) 
-0.549676

>  <r_i_glide_ligand_efficiency_ln>  (306) 
-0.852476

>  <r_i_glide_gscore>  (306) 
-3.03903

>  <r_i_glide_lipo>  (306) 
-0.0436889

>  <r_i_glide_hbond>  (306) 
-0.16

>  <r_i_glide_metal>  (306) 
-0

>  <r_i_glide_rewards>  (306) 
-2.1939

>  <r_i_glide_evdw>  (306) 
-14.4921

>  <r_i_glide_ecoul>  (306) 
-2.61938

>  <r_i_glide_erotb>  (306) 
0.494072

>  <r_i_glide_esite>  (306) 
-0.0180017

>  <r_i_glide_emodel>  (306) 
-21.5225

>  <r_i_glide_energy>  (306) 
-17.1115

>  <r_i_glide_einternal>  (306) 
0.665895

>  <r_i_glide_intrahb_reward>  (306) 
-0

>  <i_i_glide_confnum>  (306) 
2

>  <i_i_glide_posenum>  (306) 
15

>  <r_i_glide_eff_state_penalty>  (306) 
0

>  <ligand_id>  (306) 
72

>  <original_smiles>  (306) 
CCOC(=O)C1C2C3C=CC(C3)C12

>  <smiles>  (306) 
[H]C1=C([H])C2([H])C([H])([H])C1([H])C1([H])C([H])(C(=O)OC([H])([H])C([H])([H])[H])C21[H]

$$$$
73:0:0
     RDKit          3D

 53 59  0  0  1  0  0  0  0  0999 V2000
    1.0946   -8.2518    1.8640 C   0  0  0  0  0  0  0  0  0  0  0  0
    1.5432   -6.8767    2.3100 C   0  0  0  0  0  0  0  0  0  0  0  0
    0.7452   -5.9416    2.3833 O   0  0  0  0  0  0  0  0  0  0  0  0
    2.8589   -6.8360    2.5732 O   0  0  0  0  0  0  0  0  0  0  0  0
    3.4785   -5.6519    3.0710 C   0  0  0  0  0  0  0  0  0  0  0  0
    4.0213   -4.7094    2.0031 C   0  0  2  0  0  0  0  0  0  0  0  0
    4.7387   -5.4640    0.8843 C   0  0  0  0  0  0  0  0  0  0  0  0
    5.3725   -4.5387   -0.1692 N   0  0  1  0  0  0  0  0  0  0  0  0
    6.6677   -4.3219    0.6170 C   0  0  0  0  0  0  0  0  0  0  0  0
    6.3186   -3.8457    2.1286 C   0  0  0  0  0  0  0  0  0  0  0  0
    4.7926   -3.4617    2.5082 C   0  0  2  0  0  0  0  0  0  0  0  0
    4.8021   -3.1856    4.0231 C   0  0  0  0  0  0  0  0  0  0  0  0
    3.7178   -2.4146    1.7381 C   0  0  1  0  0  0  0  0  0  0  0  0
    3.8987   -1.1577    0.4042 C   0  0  1  0  0  0  0  0  0  0  0  0
    4.0587   -1.2012   -1.3947 C   0  0  1  0  0  0  0  0  0  0  0  0
    5.0591   -0.3313   -1.9168 O   0  0  0  0  0  0  0  0  0  0  0  0
    4.2193   -2.7437   -2.3244 C   0  0  0  0  0  0  0  0  0  0  0  0
    4.2700   -4.1842   -1.2616 C   0  0  2  0  0  0  0  0  0  0  0  0
    2.9364   -4.1730   -0.2793 C   0  0  2  0  0  0  0  0  0  0  0  0
    1.7697   -5.1100   -0.6974 C   0  0  0  0  0  0  0  0  0  0  0  0
    2.6752   -2.8273   -0.3453 C   0  0  0  0  0  0  0  0  0  0  0  0
    4.2922   -2.1819   -0.0786 C   0  0  1  0  0  0  0  0  0  0  0  0
    5.6291   -2.1551    0.5681 O   0  0  0  0  0  0  0  0  0  0  0  0
    5.6034   -3.0575   -0.4304 C   0  0  1  0  0  0  0  0  0  0  0  0
    3.0475   -3.8630    1.2989 C   0  0  1  0  0  0  0  0  0  0  0  0
    1.3473   -8.9809    2.6333 H   0  0  0  0  0  0  0  0  0  0  0  0
    1.5776   -8.5344    0.9275 H   0  0  0  0  0  0  0  0  0  0  0  0
    0.0145   -8.2538    1.7183 H   0  0  0  0  0  0  0  0  0  0  0  0
    2.7823   -5.1189    3.7278 H   0  0  0  0  0  0  0  0  0  0  0  0
    4.2848   -5.9665    3.7333 H   0  0  0  0  0  0  0  0  0  0  0  0
    5.4349   -6.1712    1.3358 H   0  0  0  0  0  0  0  0  0  0  0  0
    4.0968   -6.1871    0.3861 H   0  0  0  0  0  0  0  0  0  0  0  0
    7.1453   -5.2828    0.7208 H   0  0  0  0  0  0  0  0  0  0  0  0
    7.5386   -3.8158    0.1791 H   0  0  0  0  0  0  0  0  0  0  0  0
    6.6545   -4.6279    2.8086 H   0  0  0  0  0  0  0  0  0  0  0  0
    6.9102   -2.9526    2.2307 H   0  0  0  0  0  0  0  0  0  0  0  0
    5.3353   -2.2624    4.2570 H   0  0  0  0  0  0  0  0  0  0  0  0
    5.2716   -3.9840    4.5969 H   0  0  0  0  0  0  0  0  0  0  0  0
    3.7937   -3.0662    4.4157 H   0  0  0  0  0  0  0  0  0  0  0  0
    3.0899   -2.0030    2.5326 H   0  0  0  0  0  0  0  0  0  0  0  0
    4.6174   -0.3874    0.7219 H   0  0  0  0  0  0  0  0  0  0  0  0
    3.1438   -0.7361   -1.7681 H   0  0  0  0  0  0  0  0  0  0  0  0
    4.9890    0.5457   -1.5204 H   0  0  0  0  0  0  0  0  0  0  0  0
    3.3560   -2.8086   -2.9905 H   0  0  0  0  0  0  0  0  0  0  0  0
    5.0750   -2.6804   -3.0074 H   0  0  0  0  0  0  0  0  0  0  0  0
    4.3831   -5.0440   -1.8639 H   0  0  0  0  0  0  0  0  0  0  0  0
    0.8645   -5.0779   -0.1507 H   0  0  0  0  0  0  0  0  0  0  0  0
    2.0808   -6.1560   -0.5883 H   0  0  0  0  0  0  0  0  0  0  0  0
    1.3983   -4.8634   -1.7151 H   0  0  0  0  0  0  0  0  0  0  0  0
    2.1581   -2.6575   -1.2949 H   0  0  0  0  0  0  0  0  0  0  0  0
    1.8587   -2.4024    0.2721 H   0  0  0  0  0  0  0  0  0  0  0  0
    6.3374   -2.8238   -1.2193 H   0  0  0  0  0  0  0  0  0  0  0  0
    2.0944   -3.9110    1.8196 H   0  0  0  0  0  0  0  0  0  0  0  0
  1  2  1  0
  1 26  1  0
  1 27  1  0
  1 28  1  0
  2  3  2  0
  2  4  1  0
  4  5  1  0
  6  5  1  1
  5 29  1  0
  5 30  1  0
  6 11  1  0
  6 25  1  0
  6  7  1  0
  7  8  1  0
  7 31  1  0
  7 32  1  0
  8 18  1  0
  8 24  1  0
  8  9  1  6
  9 10  1  0
  9 33  1  0
  9 34  1  0
 10 11  1  0
 10 35  1  0
 10 36  1  0
 11 12  1  1
 11 13  1  0
 12 37  1  0
 12 38  1  0
 12 39  1  0
 13 25  1  0
 13 14  1  0
 13 40  1  1
 14 22  1  0
 14 15  1  0
 14 41  1  1
 15 16  1  0
 15 17  1  0
 15 42  1  6
 16 43  1  0
 17 18  1  0
 17 44  1  0
 17 45  1  0
 18 19  1  0
 18 46  1  6
 19 20  1  1
 19 21  1  0
 19 25  1  0
 20 47  1  0
 20 48  1  0
 20 49  1  0
 21 22  1  0
 21 50  1  0
 21 51  1  0
 22 24  1  0
 22 23  1  6
 23 24  1  0
 24 52  1  6
 25 53  1  1
M  CHG  1   8   1
M  END
>  <i_m_ct_stereo_status>  (307) 
1

>  <s_m_source_file>  (307) 
/var/tmp/pbs.5076255.sched01/tmpnby3vxlc/96d7dj3887.sdf

>  <i_m_source_file_index>  (307) 
33

>  <i_lp_mmshare_version>  (307) 
48012

>  <i_f3d_flags>  (307) 
0

>  <s_epik_input>  (307) 
W0NIM11DKD1PKU9bQ0gyXVtDQEBdKFtDSDJdMSkoW0NAQEhdMltDQEBdMyhbQ0BASF00W04rXTE1NilbQ0gzXSlbQ0BAXShbQ0gzXSkoW0NIMl1bQ0gyXTUpW0NASF0yW0NIXShbQ0BASF0oW09IXSlbQ0gyXTQpQzcoW0NIMl0zKVtDQEhdNk83

>  <s_epik_cmdline>  (307) 
J2VwaWtfcHl0aG9uJywgJy1waHQnLCAnMi4wJywgJy1waCcsICc3LjAnLCAnLXRuJywgJzgnLCAnLW1hJywgJzIwMCcsICctaW1hZScsICc8aW5maWxlLm1hZT4nLCAnLW9tYWUnLCAnPG91dGZpbGUubWFlPic=

>  <r_lp_tautomer_probability>  (307) 
1

>  <r_epik_Ionization_Penalty>  (307) 
3.15093e-05

>  <r_epik_Ionization_Penalty_Charging>  (307) 
0

>  <r_epik_Ionization_Penalty_Neutral>  (307) 
3.15093e-05

>  <r_epik_State_Penalty>  (307) 
-0

>  <r_epik_Charging_Adjusted_Penalty>  (307) 
0

>  <i_epik_Tot_Q>  (307) 
1

>  <i_epik_Tot_abs_Q>  (307) 
1

>  <s_epik_Chemistry_Notes>  (307) 
This compound has an ester and may undergo hydrolysis at high or low pH. This compound contains an acetal/aminal-like group ( X-CH(R)-Y where X, Y are N, S, or O) that may be acid/base labile, releasing an aldehyde.

>  <s_lp_Force_Field>  (307) 
OPLS3e

>  <r_lp_Energy>  (307) 
762.733

>  <b_lp_Chiralities_Consistent>  (307) 
1

>  <s_lp_Variant>  (307) 
73:0-1

>  <s_i_glide_gridfile>  (307) 
pfpi4k_grid

>  <i_i_glide_lignum>  (307) 
33

>  <i_i_glide_rotatable_bonds>  (307) 
4

>  <r_i_docking_score>  (307) 
-2.51442

>  <r_i_glide_ligand_efficiency>  (307) 
-0.100577

>  <r_i_glide_ligand_efficiency_sa>  (307) 
-0.294088

>  <r_i_glide_ligand_efficiency_ln>  (307) 
-0.595993

>  <r_i_glide_gscore>  (307) 
-2.51442

>  <r_i_glide_lipo>  (307) 
-0.285774

>  <r_i_glide_hbond>  (307) 
-0.0738346

>  <r_i_glide_metal>  (307) 
-0

>  <r_i_glide_rewards>  (307) 
-1.09458

>  <r_i_glide_evdw>  (307) 
-1.40711

>  <r_i_glide_ecoul>  (307) 
-8.5209

>  <r_i_glide_erotb>  (307) 
0.316813

>  <r_i_glide_esite>  (307) 
-0.0285588

>  <r_i_glide_emodel>  (307) 
-12.2278

>  <r_i_glide_energy>  (307) 
-9.928

>  <r_i_glide_einternal>  (307) 
1.90737

>  <r_i_glide_intrahb_reward>  (307) 
-0

>  <i_i_glide_confnum>  (307) 
6

>  <i_i_glide_posenum>  (307) 
2

>  <r_i_glide_eff_state_penalty>  (307) 
0

>  <ligand_id>  (307) 
73

>  <original_smiles>  (307) 
CC(=O)OCC12C[N+]34CCC1(C)C1C5C(O)CC3C(C)(CC53OC34)C12

>  <smiles>  (307) 
[H]OC1([H])C([H])([H])C2([H])C3(C([H])([H])[H])C([H])([H])C45OC4([H])[N+]24C([H])([H])C([H])([H])C2(C([H])([H])[H])C([H])(C15[H])C3([H])C2(C([H])([H])OC(=O)C([H])([H])[H])C4([H])[H]

$$$$
73:0:1
     RDKit          3D

 53 59  0  0  1  0  0  0  0  0999 V2000
    4.5463   -0.7627   -2.4162 C   0  0  0  0  0  0  0  0  0  0  0  0
    5.5042   -1.7422   -1.7562 C   0  0  0  0  0  0  0  0  0  0  0  0
    6.0858   -2.6232   -2.3997 O   0  0  0  0  0  0  0  0  0  0  0  0
    5.6263   -1.5355   -0.4436 O   0  0  0  0  0  0  0  0  0  0  0  0
    6.2337   -2.4936    0.4250 C   0  0  0  0  0  0  0  0  0  0  0  0
    5.2022   -3.5160    0.9307 C   0  0  2  0  0  0  0  0  0  0  0  0
    4.8606   -4.5058   -0.1885 C   0  0  0  0  0  0  0  0  0  0  0  0
    3.7658   -5.5237    0.2070 N   0  0  1  0  0  0  0  0  0  0  0  0
    2.6032   -4.5582   -0.1069 C   0  0  0  0  0  0  0  0  0  0  0  0
    2.7853   -3.0899    0.6242 C   0  0  0  0  0  0  0  0  0  0  0  0
    3.9882   -2.9611    1.7218 C   0  0  2  0  0  0  0  0  0  0  0  0
    3.9895   -1.4789    2.1421 C   0  0  0  0  0  0  0  0  0  0  0  0
    4.3690   -3.9398    3.0434 C   0  0  1  0  0  0  0  0  0  0  0  0
    3.4664   -5.3005    3.9029 C   0  0  1  0  0  0  0  0  0  0  0  0
    3.1632   -7.0453    3.5916 C   0  0  1  0  0  0  0  0  0  0  0  0
    1.7937   -7.3654    3.8104 O   0  0  0  0  0  0  0  0  0  0  0  0
    3.7118   -7.8976    2.0852 C   0  0  0  0  0  0  0  0  0  0  0  0
    4.4943   -6.7826    0.9080 C   0  0  2  0  0  0  0  0  0  0  0  0
    5.7156   -5.9670    1.6961 C   0  0  2  0  0  0  0  0  0  0  0  0
    7.1328   -6.4937    1.3796 C   0  0  0  0  0  0  0  0  0  0  0  0
    5.2668   -6.1371    2.9854 C   0  0  0  0  0  0  0  0  0  0  0  0
    3.5802   -5.6803    2.7796 C   0  0  1  0  0  0  0  0  0  0  0  0
    2.4732   -4.8481    2.2327 O   0  0  0  0  0  0  0  0  0  0  0  0
    2.8283   -5.8064    1.3554 C   0  0  1  0  0  0  0  0  0  0  0  0
    5.6097   -4.3957    2.0541 C   0  0  1  0  0  0  0  0  0  0  0  0
    5.0013    0.2292   -2.4348 H   0  0  0  0  0  0  0  0  0  0  0  0
    3.5966   -0.7089   -1.8741 H   0  0  0  0  0  0  0  0  0  0  0  0
    4.3403   -1.0771   -3.4385 H   0  0  0  0  0  0  0  0  0  0  0  0
    7.1323   -2.9533    0.0043 H   0  0  0  0  0  0  0  0  0  0  0  0
    6.6090   -1.9169    1.2668 H   0  0  0  0  0  0  0  0  0  0  0  0
    4.6402   -4.0333   -1.1060 H   0  0  0  0  0  0  0  0  0  0  0  0
    5.7621   -5.0184   -0.5207 H   0  0  0  0  0  0  0  0  0  0  0  0
    2.6032   -4.3089   -1.1515 H   0  0  0  0  0  0  0  0  0  0  0  0
    1.5619   -4.9256   -0.1554 H   0  0  0  0  0  0  0  0  0  0  0  0
    2.9043   -2.3219   -0.1377 H   0  0  0  0  0  0  0  0  0  0  0  0
    1.8436   -2.8108    1.0832 H   0  0  0  0  0  0  0  0  0  0  0  0
    3.1003   -1.2180    2.7174 H   0  0  0  0  0  0  0  0  0  0  0  0
    4.0137   -0.7981    1.2944 H   0  0  0  0  0  0  0  0  0  0  0  0
    4.8535   -1.2333    2.7637 H   0  0  0  0  0  0  0  0  0  0  0  0
    4.7749   -3.2620    3.7958 H   0  0  0  0  0  0  0  0  0  0  0  0
    2.4988   -4.9389    4.2584 H   0  0  0  0  0  0  0  0  0  0  0  0
    3.6440   -7.5532    4.4306 H   0  0  0  0  0  0  0  0  0  0  0  0
    1.7423   -8.2975    3.9318 H   0  0  0  0  0  0  0  0  0  0  0  0
    4.4349   -8.6632    2.3673 H   0  0  0  0  0  0  0  0  0  0  0  0
    2.8778   -8.4479    1.6312 H   0  0  0  0  0  0  0  0  0  0  0  0
    4.9296   -7.3792    0.1011 H   0  0  0  0  0  0  0  0  0  0  0  0
    7.8848   -6.0989    2.0618 H   0  0  0  0  0  0  0  0  0  0  0  0
    7.4376   -6.2332    0.3653 H   0  0  0  0  0  0  0  0  0  0  0  0
    7.1520   -7.5820    1.4436 H   0  0  0  0  0  0  0  0  0  0  0  0
    5.5338   -7.1496    3.3132 H   0  0  0  0  0  0  0  0  0  0  0  0
    5.8122   -5.6500    3.8259 H   0  0  0  0  0  0  0  0  0  0  0  0
    2.0032   -6.4998    1.1313 H   0  0  0  0  0  0  0  0  0  0  0  0
    6.5271   -3.9968    2.4793 H   0  0  0  0  0  0  0  0  0  0  0  0
  1  2  1  0
  1 26  1  0
  1 27  1  0
  1 28  1  0
  2  3  2  0
  2  4  1  0
  4  5  1  0
  6  5  1  6
  5 29  1  0
  5 30  1  0
  6 11  1  0
  6 25  1  0
  6  7  1  0
  7  8  1  0
  7 31  1  0
  7 32  1  0
  8 18  1  0
  8 24  1  0
  8  9  1  6
  9 10  1  0
  9 33  1  0
  9 34  1  0
 10 11  1  0
 10 35  1  0
 10 36  1  0
 11 12  1  1
 11 13  1  0
 12 37  1  0
 12 38  1  0
 12 39  1  0
 13 25  1  0
 13 14  1  0
 13 40  1  1
 14 22  1  0
 14 15  1  0
 14 41  1  6
 15 16  1  0
 15 17  1  0
 15 42  1  1
 16 43  1  0
 17 18  1  0
 17 44  1  0
 17 45  1  0
 18 19  1  0
 18 46  1  6
 19 20  1  1
 19 21  1  0
 19 25  1  0
 20 47  1  0
 20 48  1  0
 20 49  1  0
 21 22  1  0
 21 50  1  0
 21 51  1  0
 22 24  1  0
 22 23  1  1
 23 24  1  0
 24 52  1  6
 25 53  1  1
M  CHG  1   8   1
M  END
>  <i_m_ct_stereo_status>  (308) 
1

>  <s_m_source_file>  (308) 
/var/tmp/pbs.5076255.sched01/tmpnby3vxlc/96d7dj3887.sdf

>  <i_m_source_file_index>  (308) 
33

>  <i_lp_mmshare_version>  (308) 
48012

>  <i_f3d_flags>  (308) 
0

>  <s_epik_input>  (308) 
W0NIM11DKD1PKU9bQ0gyXVtDQEBdKFtDSDJdMSkoW0NAQEhdMltDQEBdMyhbQ0BASF00W04rXTE1NilbQ0gzXSlbQ0BAXShbQ0gzXSkoW0NIMl1bQ0gyXTUpW0NASF0yW0NIXShbQ0BASF0oW09IXSlbQ0gyXTQpQzcoW0NIMl0zKVtDQEhdNk83

>  <s_epik_cmdline>  (308) 
J2VwaWtfcHl0aG9uJywgJy1waHQnLCAnMi4wJywgJy1waCcsICc3LjAnLCAnLXRuJywgJzgnLCAnLW1hJywgJzIwMCcsICctaW1hZScsICc8aW5maWxlLm1hZT4nLCAnLW9tYWUnLCAnPG91dGZpbGUubWFlPic=

>  <r_lp_tautomer_probability>  (308) 
1

>  <r_epik_Ionization_Penalty>  (308) 
3.15093e-05

>  <r_epik_Ionization_Penalty_Charging>  (308) 
0

>  <r_epik_Ionization_Penalty_Neutral>  (308) 
3.15093e-05

>  <r_epik_State_Penalty>  (308) 
-0

>  <r_epik_Charging_Adjusted_Penalty>  (308) 
0

>  <i_epik_Tot_Q>  (308) 
1

>  <i_epik_Tot_abs_Q>  (308) 
1

>  <s_epik_Chemistry_Notes>  (308) 
This compound has an ester and may undergo hydrolysis at high or low pH. This compound contains an acetal/aminal-like group ( X-CH(R)-Y where X, Y are N, S, or O) that may be acid/base labile, releasing an aldehyde.

>  <s_lp_Force_Field>  (308) 
OPLS3e

>  <r_lp_Energy>  (308) 
762.733

>  <b_lp_Chiralities_Consistent>  (308) 
1

>  <s_lp_Variant>  (308) 
73:0-1

>  <s_i_glide_gridfile>  (308) 
pfpi4k_grid

>  <i_i_glide_lignum>  (308) 
33

>  <i_i_glide_rotatable_bonds>  (308) 
4

>  <r_i_docking_score>  (308) 
-2.42773

>  <r_i_glide_ligand_efficiency>  (308) 
-0.097109

>  <r_i_glide_ligand_efficiency_sa>  (308) 
-0.283948

>  <r_i_glide_ligand_efficiency_ln>  (308) 
-0.575444

>  <r_i_glide_gscore>  (308) 
-2.42773

>  <r_i_glide_lipo>  (308) 
-0.441182

>  <r_i_glide_hbond>  (308) 
0

>  <r_i_glide_metal>  (308) 
-0

>  <r_i_glide_rewards>  (308) 
-1.047

>  <r_i_glide_evdw>  (308) 
-18.1713

>  <r_i_glide_ecoul>  (308) 
-1.90162

>  <r_i_glide_erotb>  (308) 
0.316813

>  <r_i_glide_esite>  (308) 
-0.0625532

>  <r_i_glide_emodel>  (308) 
-22.4628

>  <r_i_glide_energy>  (308) 
-20.0729

>  <r_i_glide_einternal>  (308) 
1.13513

>  <r_i_glide_intrahb_reward>  (308) 
-0

>  <i_i_glide_confnum>  (308) 
1

>  <i_i_glide_posenum>  (308) 
12

>  <r_i_glide_eff_state_penalty>  (308) 
0

>  <ligand_id>  (308) 
73

>  <original_smiles>  (308) 
CC(=O)OCC12C[N+]34CCC1(C)C1C5C(O)CC3C(C)(CC53OC34)C12

>  <smiles>  (308) 
[H]OC1([H])C([H])([H])C2([H])C3(C([H])([H])[H])C([H])([H])C45OC4([H])[N+]24C([H])([H])C([H])([H])C2(C([H])([H])[H])C([H])(C15[H])C3([H])C2(C([H])([H])OC(=O)C([H])([H])[H])C4([H])[H]

$$$$
74:0:0
     RDKit          3D

 24 26  0  0  1  0  0  0  0  0999 V2000
    7.2744   -3.2807    0.8618 O   0  0  0  0  0  0  0  0  0  0  0  0
    6.7138   -2.6417   -0.0582 C   0  0  0  0  0  0  0  0  0  0  0  0
    7.2937   -1.8680   -0.8442 O   0  0  0  0  0  0  0  0  0  0  0  0
    5.2096   -2.8732   -0.2852 C   0  0  1  0  0  0  0  0  0  0  0  0
    4.4809   -3.2773    1.0194 C   0  0  0  0  0  0  0  0  0  0  0  0
    3.2676   -2.5420    1.0057 O   0  0  0  0  0  0  0  0  0  0  0  0
    3.5326   -1.2693    0.4362 C   0  0  0  0  0  0  0  0  0  0  0  0
    4.4965   -1.5565   -0.7151 C   0  0  2  0  0  0  0  0  0  0  0  0
    3.8707   -1.9368   -1.9688 N   0  0  0  0  0  0  0  0  0  0  0  0
    3.1158   -1.2774   -2.8530 C   0  0  0  0  0  0  0  0  0  0  0  0
    2.8982   -2.1433   -3.8588 N   0  0  0  0  0  0  0  0  0  0  0  0
    3.5275   -3.3390   -3.6031 C   0  0  0  0  0  0  0  0  0  0  0  0
    4.1561   -3.1770   -2.3985 C   0  0  0  0  0  0  0  0  0  0  0  0
    5.0008   -3.9070   -1.4365 C   0  0  0  0  0  0  0  0  0  0  0  0
    4.2509   -4.3407    1.0636 H   0  0  0  0  0  0  0  0  0  0  0  0
    5.0436   -3.0271    1.9259 H   0  0  0  0  0  0  0  0  0  0  0  0
    2.6229   -0.7584    0.1309 H   0  0  0  0  0  0  0  0  0  0  0  0
    4.0220   -0.6443    1.1837 H   0  0  0  0  0  0  0  0  0  0  0  0
    5.1412   -0.6977   -0.9198 H   0  0  0  0  0  0  0  0  0  0  0  0
    2.7511   -0.2691   -2.7897 H   0  0  0  0  0  0  0  0  0  0  0  0
    3.4737   -4.1853   -4.2712 H   0  0  0  0  0  0  0  0  0  0  0  0
    5.9262   -4.1977   -1.9351 H   0  0  0  0  0  0  0  0  0  0  0  0
    4.4851   -4.8098   -1.1144 H   0  0  0  0  0  0  0  0  0  0  0  0
    2.3233   -1.9513   -4.6716 H   0  0  0  0  0  0  0  0  0  0  0  0
  1  2  2  0
  2  3  1  0
  4  2  1  1
  4  8  1  0
  4 14  1  0
  4  5  1  0
  5  6  1  0
  5 15  1  0
  5 16  1  0
  6  7  1  0
  7  8  1  0
  7 17  1  0
  7 18  1  0
  8  9  1  0
  8 19  1  6
  9 13  1  0
  9 10  1  0
 10 11  2  0
 10 20  1  0
 11 12  1  0
 11 24  1  0
 12 13  2  0
 12 21  1  0
 13 14  1  0
 14 22  1  0
 14 23  1  0
M  CHG  2   3  -1  11   1
M  END
>  <i_m_ct_stereo_status>  (309) 
1

>  <s_m_source_file>  (309) 
/var/tmp/pbs.5076255.sched01/tmpnby3vxlc/96d7dj3887.sdf

>  <i_m_source_file_index>  (309) 
34

>  <i_lp_mmshare_version>  (309) 
48012

>  <i_f3d_flags>  (309) 
0

>  <s_epik_input>  (309) 
Tz1DKFtPSF0pW0NAXTEyW0NASF0oW0NIMl1PW0NIMl0xKW4zYyhbQ0gyXTIpW2NIXW5bY0hdMw==

>  <s_epik_cmdline>  (309) 
J2VwaWtfcHl0aG9uJywgJy1waHQnLCAnMi4wJywgJy1waCcsICc3LjAnLCAnLXRuJywgJzgnLCAnLW1hJywgJzIwMCcsICctaW1hZScsICc8aW5maWxlLm1hZT4nLCAnLW9tYWUnLCAnPG91dGZpbGUubWFlPic=

>  <r_lp_tautomer_probability>  (309) 
1

>  <r_epik_Ionization_Penalty>  (309) 
0.170601

>  <r_epik_Ionization_Penalty_Charging>  (309) 
0.000103733

>  <r_epik_Ionization_Penalty_Neutral>  (309) 
0.170497

>  <r_epik_State_Penalty>  (309) 
0.15988

>  <r_epik_Charging_Adjusted_Penalty>  (309) 
0.159983

>  <i_epik_Tot_Q>  (309) 
0

>  <i_epik_Tot_abs_Q>  (309) 
2

>  <s_lp_Force_Field>  (309) 
OPLS3e

>  <r_lp_Energy>  (309) 
2.30604

>  <b_lp_Chiralities_Consistent>  (309) 
1

>  <s_lp_Variant>  (309) 
74:0-1

>  <s_i_glide_gridfile>  (309) 
pfpi4k_grid

>  <i_i_glide_lignum>  (309) 
34

>  <i_i_glide_rotatable_bonds>  (309) 
1

>  <r_i_docking_score>  (309) 
-4.56351

>  <r_i_glide_ligand_efficiency>  (309) 
-0.325965

>  <r_i_glide_ligand_efficiency_sa>  (309) 
-0.785622

>  <r_i_glide_ligand_efficiency_ln>  (309) 
-1.25404

>  <r_i_glide_gscore>  (309) 
-4.56351

>  <r_i_glide_lipo>  (309) 
-0.256685

>  <r_i_glide_hbond>  (309) 
-0.2

>  <r_i_glide_metal>  (309) 
-0

>  <r_i_glide_rewards>  (309) 
-2.1331

>  <r_i_glide_evdw>  (309) 
-15.7304

>  <r_i_glide_ecoul>  (309) 
-7.42685

>  <r_i_glide_erotb>  (309) 
0

>  <r_i_glide_esite>  (309) 
-0.0731784

>  <r_i_glide_emodel>  (309) 
-32.846

>  <r_i_glide_energy>  (309) 
-23.1573

>  <r_i_glide_einternal>  (309) 
0.0249146

>  <r_i_glide_intrahb_reward>  (309) 
-0

>  <i_i_glide_confnum>  (309) 
1

>  <i_i_glide_posenum>  (309) 
29

>  <r_i_glide_eff_state_penalty>  (309) 
0

>  <ligand_id>  (309) 
74

>  <original_smiles>  (309) 
O=C(O)C12COCC1n1cncc1C2

>  <smiles>  (309) 
[H]c1c2n(c([H])[n+]1[H])C1([H])C([H])([H])OC([H])([H])C1(C(=O)[O-])C2([H])[H]

$$$$
74:0:1
     RDKit          3D

 24 26  0  0  1  0  0  0  0  0999 V2000
    3.8717   -1.8836    0.3385 O   0  0  0  0  0  0  0  0  0  0  0  0
    3.4103   -2.6019   -0.5849 C   0  0  0  0  0  0  0  0  0  0  0  0
    2.5687   -3.5128   -0.4383 O   0  0  0  0  0  0  0  0  0  0  0  0
    3.9475   -2.3425   -2.0121 C   0  0  1  0  0  0  0  0  0  0  0  0
    4.7139   -3.5772   -2.5438 C   0  0  0  0  0  0  0  0  0  0  0  0
    4.2733   -3.7684   -3.8808 O   0  0  0  0  0  0  0  0  0  0  0  0
    2.8905   -3.4548   -3.9240 C   0  0  0  0  0  0  0  0  0  0  0  0
    2.7851   -2.2226   -3.0397 C   0  0  2  0  0  0  0  0  0  0  0  0
    3.0933   -0.9864   -3.7341 N   0  0  0  0  0  0  0  0  0  0  0  0
    2.4681   -0.2789   -4.6953 C   0  0  0  0  0  0  0  0  0  0  0  0
    3.1787    0.8304   -4.8672 N   0  0  0  0  0  0  0  0  0  0  0  0
    4.1607    0.8694   -3.9310 C   0  0  0  0  0  0  0  0  0  0  0  0
    4.1365   -0.3247   -3.2415 C   0  0  0  0  0  0  0  0  0  0  0  0
    4.7972   -1.0363   -2.1298 C   0  0  0  0  0  0  0  0  0  0  0  0
    5.7916   -3.4542   -2.5568 H   0  0  0  0  0  0  0  0  0  0  0  0
    4.5211   -4.4803   -1.9620 H   0  0  0  0  0  0  0  0  0  0  0  0
    2.5699   -3.2698   -4.9444 H   0  0  0  0  0  0  0  0  0  0  0  0
    2.2678   -4.2455   -3.4987 H   0  0  0  0  0  0  0  0  0  0  0  0
    1.7999   -2.1384   -2.5919 H   0  0  0  0  0  0  0  0  0  0  0  0
    1.5141   -0.4738   -5.1311 H   0  0  0  0  0  0  0  0  0  0  0  0
    4.7251    1.7571   -3.8072 H   0  0  0  0  0  0  0  0  0  0  0  0
    4.8038   -0.3839   -1.2564 H   0  0  0  0  0  0  0  0  0  0  0  0
    5.8211   -1.2483   -2.3976 H   0  0  0  0  0  0  0  0  0  0  0  0
    2.9030    1.6354   -5.4339 H   0  0  0  0  0  0  0  0  0  0  0  0
  1  2  2  0
  2  3  1  0
  4  2  1  1
  4  8  1  0
  4 14  1  0
  4  5  1  0
  5  6  1  0
  5 15  1  0
  5 16  1  0
  6  7  1  0
  7  8  1  0
  7 17  1  0
  7 18  1  0
  8  9  1  0
  8 19  1  1
  9 13  1  0
  9 10  1  0
 10 11  2  0
 10 20  1  0
 11 12  1  0
 11 24  1  0
 12 13  2  0
 12 21  1  0
 13 14  1  0
 14 22  1  0
 14 23  1  0
M  CHG  2   3  -1  11   1
M  END
>  <i_m_ct_stereo_status>  (310) 
1

>  <s_m_source_file>  (310) 
/var/tmp/pbs.5076255.sched01/tmpnby3vxlc/96d7dj3887.sdf

>  <i_m_source_file_index>  (310) 
34

>  <i_lp_mmshare_version>  (310) 
48012

>  <i_f3d_flags>  (310) 
0

>  <s_epik_input>  (310) 
Tz1DKFtPSF0pW0NAXTEyW0NASF0oW0NIMl1PW0NIMl0xKW4zYyhbQ0gyXTIpW2NIXW5bY0hdMw==

>  <s_epik_cmdline>  (310) 
J2VwaWtfcHl0aG9uJywgJy1waHQnLCAnMi4wJywgJy1waCcsICc3LjAnLCAnLXRuJywgJzgnLCAnLW1hJywgJzIwMCcsICctaW1hZScsICc8aW5maWxlLm1hZT4nLCAnLW9tYWUnLCAnPG91dGZpbGUubWFlPic=

>  <r_lp_tautomer_probability>  (310) 
1

>  <r_epik_Ionization_Penalty>  (310) 
0.170601

>  <r_epik_Ionization_Penalty_Charging>  (310) 
0.000103733

>  <r_epik_Ionization_Penalty_Neutral>  (310) 
0.170497

>  <r_epik_State_Penalty>  (310) 
0.15988

>  <r_epik_Charging_Adjusted_Penalty>  (310) 
0.159983

>  <i_epik_Tot_Q>  (310) 
0

>  <i_epik_Tot_abs_Q>  (310) 
2

>  <s_lp_Force_Field>  (310) 
OPLS3e

>  <r_lp_Energy>  (310) 
2.30604

>  <b_lp_Chiralities_Consistent>  (310) 
1

>  <s_lp_Variant>  (310) 
74:0-1

>  <s_i_glide_gridfile>  (310) 
pfpi4k_grid

>  <i_i_glide_lignum>  (310) 
34

>  <i_i_glide_rotatable_bonds>  (310) 
1

>  <r_i_docking_score>  (310) 
-3.12339

>  <r_i_glide_ligand_efficiency>  (310) 
-0.2231

>  <r_i_glide_ligand_efficiency_sa>  (310) 
-0.537702

>  <r_i_glide_ligand_efficiency_ln>  (310) 
-0.858297

>  <r_i_glide_gscore>  (310) 
-3.12339

>  <r_i_glide_lipo>  (310) 
-0.338002

>  <r_i_glide_hbond>  (310) 
0

>  <r_i_glide_metal>  (310) 
-0

>  <r_i_glide_rewards>  (310) 
-2.50881

>  <r_i_glide_evdw>  (310) 
-1.94806

>  <r_i_glide_ecoul>  (310) 
-0.741194

>  <r_i_glide_erotb>  (310) 
0

>  <r_i_glide_esite>  (310) 
-0.0679985

>  <r_i_glide_emodel>  (310) 
-8.65027

>  <r_i_glide_energy>  (310) 
-2.68925

>  <r_i_glide_einternal>  (310) 
0.902202

>  <r_i_glide_intrahb_reward>  (310) 
-0

>  <i_i_glide_confnum>  (310) 
1

>  <i_i_glide_posenum>  (310) 
2

>  <r_i_glide_eff_state_penalty>  (310) 
0

>  <ligand_id>  (310) 
74

>  <original_smiles>  (310) 
O=C(O)C12COCC1n1cncc1C2

>  <smiles>  (310) 
[H]c1c2n(c([H])[n+]1[H])C1([H])C([H])([H])OC([H])([H])C1(C(=O)[O-])C2([H])[H]

$$$$
74:0:2
     RDKit          3D

 24 26  0  0  1  0  0  0  0  0999 V2000
    4.9791   -3.9988   -3.9900 O   0  0  0  0  0  0  0  0  0  0  0  0
    4.8163   -3.7272   -2.7739 C   0  0  0  0  0  0  0  0  0  0  0  0
    5.4658   -4.1892   -1.8197 O   0  0  0  0  0  0  0  0  0  0  0  0
    3.8048   -2.6505   -2.4322 C   0  0  1  0  0  0  0  0  0  0  0  0
    3.2779   -2.7817   -0.9832 C   0  0  0  0  0  0  0  0  0  0  0  0
    3.4184   -1.4997   -0.4131 O   0  0  0  0  0  0  0  0  0  0  0  0
    4.5711   -0.9078   -0.9449 C   0  0  0  0  0  0  0  0  0  0  0  0
    4.6087   -1.3339   -2.4101 C   0  0  2  0  0  0  0  0  0  0  0  0
    3.8749   -0.5383   -3.3873 N   0  0  0  0  0  0  0  0  0  0  0  0
    4.0149    0.6947   -3.8632 C   0  0  0  0  0  0  0  0  0  0  0  0
    3.0818    0.8629   -4.7914 N   0  0  0  0  0  0  0  0  0  0  0  0
    2.3046   -0.2440   -4.8498 C   0  0  0  0  0  0  0  0  0  0  0  0
    2.8651   -1.1575   -4.0020 C   0  0  0  0  0  0  0  0  0  0  0  0
    2.6678   -2.5238   -3.5028 C   0  0  0  0  0  0  0  0  0  0  0  0
    2.2386   -3.0859   -0.9511 H   0  0  0  0  0  0  0  0  0  0  0  0
    3.8372   -3.4573   -0.3347 H   0  0  0  0  0  0  0  0  0  0  0  0
    4.5268    0.1463   -0.7920 H   0  0  0  0  0  0  0  0  0  0  0  0
    5.4520   -1.2936   -0.4129 H   0  0  0  0  0  0  0  0  0  0  0  0
    5.6464   -1.3958   -2.7103 H   0  0  0  0  0  0  0  0  0  0  0  0
    4.6234    1.4895   -3.5374 H   0  0  0  0  0  0  0  0  0  0  0  0
    1.4193   -0.2403   -5.4661 H   0  0  0  0  0  0  0  0  0  0  0  0
    2.7394   -3.1830   -4.3659 H   0  0  0  0  0  0  0  0  0  0  0  0
    1.6743   -2.6165   -3.0697 H   0  0  0  0  0  0  0  0  0  0  0  0
    2.8369    1.7551   -5.1923 H   0  0  0  0  0  0  0  0  0  0  0  0
  1  2  2  0
  2  3  1  0
  4  2  1  6
  4  8  1  0
  4 14  1  0
  4  5  1  0
  5  6  1  0
  5 15  1  0
  5 16  1  0
  6  7  1  0
  7  8  1  0
  7 17  1  0
  7 18  1  0
  8  9  1  0
  8 19  1  6
  9 13  1  0
  9 10  1  0
 10 11  2  0
 10 20  1  0
 11 12  1  0
 11 24  1  0
 12 13  2  0
 12 21  1  0
 13 14  1  0
 14 22  1  0
 14 23  1  0
M  CHG  2   3  -1  11   1
M  END
>  <i_m_ct_stereo_status>  (311) 
1

>  <s_m_source_file>  (311) 
/var/tmp/pbs.5076255.sched01/tmpnby3vxlc/96d7dj3887.sdf

>  <i_m_source_file_index>  (311) 
34

>  <i_lp_mmshare_version>  (311) 
48012

>  <i_f3d_flags>  (311) 
0

>  <s_epik_input>  (311) 
Tz1DKFtPSF0pW0NAXTEyW0NASF0oW0NIMl1PW0NIMl0xKW4zYyhbQ0gyXTIpW2NIXW5bY0hdMw==

>  <s_epik_cmdline>  (311) 
J2VwaWtfcHl0aG9uJywgJy1waHQnLCAnMi4wJywgJy1waCcsICc3LjAnLCAnLXRuJywgJzgnLCAnLW1hJywgJzIwMCcsICctaW1hZScsICc8aW5maWxlLm1hZT4nLCAnLW9tYWUnLCAnPG91dGZpbGUubWFlPic=

>  <r_lp_tautomer_probability>  (311) 
1

>  <r_epik_Ionization_Penalty>  (311) 
0.170601

>  <r_epik_Ionization_Penalty_Charging>  (311) 
0.000103733

>  <r_epik_Ionization_Penalty_Neutral>  (311) 
0.170497

>  <r_epik_State_Penalty>  (311) 
0.15988

>  <r_epik_Charging_Adjusted_Penalty>  (311) 
0.159983

>  <i_epik_Tot_Q>  (311) 
0

>  <i_epik_Tot_abs_Q>  (311) 
2

>  <s_lp_Force_Field>  (311) 
OPLS3e

>  <r_lp_Energy>  (311) 
2.30604

>  <b_lp_Chiralities_Consistent>  (311) 
1

>  <s_lp_Variant>  (311) 
74:0-1

>  <s_i_glide_gridfile>  (311) 
pfpi4k_grid

>  <i_i_glide_lignum>  (311) 
34

>  <i_i_glide_rotatable_bonds>  (311) 
1

>  <r_i_docking_score>  (311) 
-3.00962

>  <r_i_glide_ligand_efficiency>  (311) 
-0.214973

>  <r_i_glide_ligand_efficiency_sa>  (311) 
-0.518115

>  <r_i_glide_ligand_efficiency_ln>  (311) 
-0.827033

>  <r_i_glide_gscore>  (311) 
-3.00962

>  <r_i_glide_lipo>  (311) 
-0.334165

>  <r_i_glide_hbond>  (311) 
0

>  <r_i_glide_metal>  (311) 
-0

>  <r_i_glide_rewards>  (311) 
-2.40176

>  <r_i_glide_evdw>  (311) 
-2.0384

>  <r_i_glide_ecoul>  (311) 
-0.554278

>  <r_i_glide_erotb>  (311) 
0

>  <r_i_glide_esite>  (311) 
-0.0886304

>  <r_i_glide_emodel>  (311) 
-6.96879

>  <r_i_glide_energy>  (311) 
-2.59268

>  <r_i_glide_einternal>  (311) 
0.548708

>  <r_i_glide_intrahb_reward>  (311) 
-0

>  <i_i_glide_confnum>  (311) 
1

>  <i_i_glide_posenum>  (311) 
22

>  <r_i_glide_eff_state_penalty>  (311) 
0

>  <ligand_id>  (311) 
74

>  <original_smiles>  (311) 
O=C(O)C12COCC1n1cncc1C2

>  <smiles>  (311) 
[H]c1c2n(c([H])[n+]1[H])C1([H])C([H])([H])OC([H])([H])C1(C(=O)[O-])C2([H])[H]

$$$$
74:1:0
     RDKit          3D

 23 25  0  0  1  0  0  0  0  0999 V2000
    2.6663   -3.4581    1.6118 O   0  0  0  0  0  0  0  0  0  0  0  0
    3.5729   -2.6014    1.4876 C   0  0  0  0  0  0  0  0  0  0  0  0
    3.9734   -1.8456    2.4009 O   0  0  0  0  0  0  0  0  0  0  0  0
    4.2661   -2.4399    0.1163 C   0  0  1  0  0  0  0  0  0  0  0  0
    5.7812   -2.6942    0.2249 C   0  0  0  0  0  0  0  0  0  0  0  0
    5.9394   -4.0999    0.1339 O   0  0  0  0  0  0  0  0  0  0  0  0
    4.9373   -4.6204   -0.7367 C   0  0  0  0  0  0  0  0  0  0  0  0
    3.8691   -3.5304   -0.9049 C   0  0  2  0  0  0  0  0  0  0  0  0
    3.8926   -2.7881   -2.1415 N   0  0  0  0  0  0  0  0  0  0  0  0
    3.8229   -3.0422   -3.4519 C   0  0  0  0  0  0  0  0  0  0  0  0
    3.8175   -1.9245   -4.1875 N   0  0  0  0  0  0  0  0  0  0  0  0
    3.8433   -0.8804   -3.2491 C   0  0  0  0  0  0  0  0  0  0  0  0
    3.8963   -1.4367   -1.9920 C   0  0  0  0  0  0  0  0  0  0  0  0
    3.9753   -1.0663   -0.5561 C   0  0  0  0  0  0  0  0  0  0  0  0
    6.3033   -2.2479   -0.6215 H   0  0  0  0  0  0  0  0  0  0  0  0
    6.2424   -2.3004    1.1311 H   0  0  0  0  0  0  0  0  0  0  0  0
    5.3560   -4.9276   -1.6941 H   0  0  0  0  0  0  0  0  0  0  0  0
    4.5061   -5.5054   -0.2664 H   0  0  0  0  0  0  0  0  0  0  0  0
    2.8592   -3.9240   -0.7844 H   0  0  0  0  0  0  0  0  0  0  0  0
    3.7789   -4.0358   -3.8737 H   0  0  0  0  0  0  0  0  0  0  0  0
    3.8333    0.1575   -3.5518 H   0  0  0  0  0  0  0  0  0  0  0  0
    3.0177   -0.6588   -0.2277 H   0  0  0  0  0  0  0  0  0  0  0  0
    4.7496   -0.3230   -0.3638 H   0  0  0  0  0  0  0  0  0  0  0  0
  1  2  2  0
  2  3  1  0
  4  2  1  1
  4  8  1  0
  4 14  1  0
  4  5  1  0
  5  6  1  0
  5 15  1  0
  5 16  1  0
  6  7  1  0
  7  8  1  0
  7 17  1  0
  7 18  1  0
  8  9  1  0
  8 19  1  1
  9 13  1  0
  9 10  1  0
 10 11  2  0
 10 20  1  0
 11 12  1  0
 12 13  2  0
 12 21  1  0
 13 14  1  0
 14 22  1  0
 14 23  1  0
M  CHG  1   3  -1
M  END
>  <i_m_ct_stereo_status>  (312) 
1

>  <s_m_source_file>  (312) 
/var/tmp/pbs.5076255.sched01/tmpnby3vxlc/96d7dj3887.sdf

>  <i_m_source_file_index>  (312) 
35

>  <i_lp_mmshare_version>  (312) 
48012

>  <i_f3d_flags>  (312) 
0

>  <s_epik_input>  (312) 
Tz1DKFtPSF0pW0NAXTEyW0NASF0oW0NIMl1PW0NIMl0xKW4zYyhbQ0gyXTIpW2NIXW5bY0hdMw==

>  <s_epik_cmdline>  (312) 
J2VwaWtfcHl0aG9uJywgJy1waHQnLCAnMi4wJywgJy1waCcsICc3LjAnLCAnLXRuJywgJzgnLCAnLW1hJywgJzIwMCcsICctaW1hZScsICc8aW5maWxlLm1hZT4nLCAnLW9tYWUnLCAnPG91dGZpbGUubWFlPic=

>  <r_lp_tautomer_probability>  (312) 
1

>  <r_epik_Ionization_Penalty>  (312) 
0.821408

>  <r_epik_Ionization_Penalty_Charging>  (312) 
0.821408

>  <r_epik_Ionization_Penalty_Neutral>  (312) 
1.79064e-12

>  <r_epik_State_Penalty>  (312) 
0.854244

>  <r_epik_Charging_Adjusted_Penalty>  (312) 
1.67565

>  <i_epik_Tot_Q>  (312) 
-1

>  <i_epik_Tot_abs_Q>  (312) 
1

>  <s_lp_Force_Field>  (312) 
OPLS3e

>  <r_lp_Energy>  (312) 
-0.936862

>  <b_lp_Chiralities_Consistent>  (312) 
1

>  <s_lp_Variant>  (312) 
74:0-2

>  <s_i_glide_gridfile>  (312) 
pfpi4k_grid

>  <i_i_glide_lignum>  (312) 
35

>  <i_i_glide_rotatable_bonds>  (312) 
1

>  <r_i_docking_score>  (312) 
-4.16493

>  <r_i_glide_ligand_efficiency>  (312) 
-0.297495

>  <r_i_glide_ligand_efficiency_sa>  (312) 
-0.717005

>  <r_i_glide_ligand_efficiency_ln>  (312) 
-1.14451

>  <r_i_glide_gscore>  (312) 
-4.16493

>  <r_i_glide_lipo>  (312) 
-0.1898

>  <r_i_glide_hbond>  (312) 
-0.306274

>  <r_i_glide_metal>  (312) 
-0

>  <r_i_glide_rewards>  (312) 
-2.32727

>  <r_i_glide_evdw>  (312) 
-19.6356

>  <r_i_glide_ecoul>  (312) 
-2.26649

>  <r_i_glide_erotb>  (312) 
0

>  <r_i_glide_esite>  (312) 
-0.0198375

>  <r_i_glide_emodel>  (312) 
-30.1972

>  <r_i_glide_energy>  (312) 
-21.902

>  <r_i_glide_einternal>  (312) 
0.357728

>  <r_i_glide_intrahb_reward>  (312) 
-0

>  <i_i_glide_confnum>  (312) 
2

>  <i_i_glide_posenum>  (312) 
26

>  <r_i_glide_eff_state_penalty>  (312) 
0

>  <ligand_id>  (312) 
74

>  <original_smiles>  (312) 
O=C(O)C12COCC1n1cncc1C2

>  <smiles>  (312) 
[H]c1nc([H])n2c1C([H])([H])C1(C(=O)[O-])C([H])([H])OC([H])([H])C21[H]

$$$$
74:1:1
     RDKit          3D

 23 25  0  0  1  0  0  0  0  0999 V2000
   -2.1785    0.5484    6.5264 O   0  0  0  0  0  0  0  0  0  0  0  0
   -1.7885    1.6864    6.1623 C   0  0  0  0  0  0  0  0  0  0  0  0
   -1.8435    2.7079    6.8821 O   0  0  0  0  0  0  0  0  0  0  0  0
   -1.2668    1.8659    4.7205 C   0  0  1  0  0  0  0  0  0  0  0  0
   -2.2161    2.7504    3.8852 C   0  0  0  0  0  0  0  0  0  0  0  0
   -1.8788    4.1011    4.1736 O   0  0  0  0  0  0  0  0  0  0  0  0
   -0.4730    4.1770    4.4019 C   0  0  0  0  0  0  0  0  0  0  0  0
    0.0138    2.7376    4.6502 C   0  0  2  0  0  0  0  0  0  0  0  0
    0.7241    2.1179    3.5576 N   0  0  0  0  0  0  0  0  0  0  0  0
    1.7937    2.3665    2.7944 C   0  0  0  0  0  0  0  0  0  0  0  0
    2.0658    1.3606    1.9567 N   0  0  0  0  0  0  0  0  0  0  0  0
    1.0635    0.4111    2.1982 C   0  0  0  0  0  0  0  0  0  0  0  0
    0.2581    0.8916    3.2036 C   0  0  0  0  0  0  0  0  0  0  0  0
   -0.9376    0.5286    3.9919 C   0  0  0  0  0  0  0  0  0  0  0  0
   -2.0429    2.5943    2.8199 H   0  0  0  0  0  0  0  0  0  0  0  0
   -3.2713    2.5547    4.0747 H   0  0  0  0  0  0  0  0  0  0  0  0
    0.0476    4.6670    3.5750 H   0  0  0  0  0  0  0  0  0  0  0  0
   -0.3183    4.7847    5.2956 H   0  0  0  0  0  0  0  0  0  0  0  0
    0.6344    2.6602    5.5436 H   0  0  0  0  0  0  0  0  0  0  0  0
    2.3856    3.2690    2.8470 H   0  0  0  0  0  0  0  0  0  0  0  0
    1.0115   -0.5154    1.6467 H   0  0  0  0  0  0  0  0  0  0  0  0
   -0.6599   -0.2633    4.6845 H   0  0  0  0  0  0  0  0  0  0  0  0
   -1.7519    0.1784    3.3606 H   0  0  0  0  0  0  0  0  0  0  0  0
  1  2  2  0
  2  3  1  0
  4  2  1  1
  4  8  1  0
  4 14  1  0
  4  5  1  0
  5  6  1  0
  5 15  1  0
  5 16  1  0
  6  7  1  0
  7  8  1  0
  7 17  1  0
  7 18  1  0
  8  9  1  0
  8 19  1  1
  9 13  1  0
  9 10  1  0
 10 11  2  0
 10 20  1  0
 11 12  1  0
 12 13  2  0
 12 21  1  0
 13 14  1  0
 14 22  1  0
 14 23  1  0
M  CHG  1   3  -1
M  END
>  <i_m_ct_stereo_status>  (313) 
1

>  <s_m_source_file>  (313) 
/var/tmp/pbs.5076255.sched01/tmpnby3vxlc/96d7dj3887.sdf

>  <i_m_source_file_index>  (313) 
35

>  <i_lp_mmshare_version>  (313) 
48012

>  <i_f3d_flags>  (313) 
0

>  <s_epik_input>  (313) 
Tz1DKFtPSF0pW0NAXTEyW0NASF0oW0NIMl1PW0NIMl0xKW4zYyhbQ0gyXTIpW2NIXW5bY0hdMw==

>  <s_epik_cmdline>  (313) 
J2VwaWtfcHl0aG9uJywgJy1waHQnLCAnMi4wJywgJy1waCcsICc3LjAnLCAnLXRuJywgJzgnLCAnLW1hJywgJzIwMCcsICctaW1hZScsICc8aW5maWxlLm1hZT4nLCAnLW9tYWUnLCAnPG91dGZpbGUubWFlPic=

>  <r_lp_tautomer_probability>  (313) 
1

>  <r_epik_Ionization_Penalty>  (313) 
0.821408

>  <r_epik_Ionization_Penalty_Charging>  (313) 
0.821408

>  <r_epik_Ionization_Penalty_Neutral>  (313) 
1.79064e-12

>  <r_epik_State_Penalty>  (313) 
0.854244

>  <r_epik_Charging_Adjusted_Penalty>  (313) 
1.67565

>  <i_epik_Tot_Q>  (313) 
-1

>  <i_epik_Tot_abs_Q>  (313) 
1

>  <s_lp_Force_Field>  (313) 
OPLS3e

>  <r_lp_Energy>  (313) 
-0.936862

>  <b_lp_Chiralities_Consistent>  (313) 
1

>  <s_lp_Variant>  (313) 
74:0-2

>  <s_i_glide_gridfile>  (313) 
pfpi4k_grid

>  <i_i_glide_lignum>  (313) 
35

>  <i_i_glide_rotatable_bonds>  (313) 
1

>  <r_i_docking_score>  (313) 
-4.16145

>  <r_i_glide_ligand_efficiency>  (313) 
-0.297246

>  <r_i_glide_ligand_efficiency_sa>  (313) 
-0.716406

>  <r_i_glide_ligand_efficiency_ln>  (313) 
-1.14355

>  <r_i_glide_gscore>  (313) 
-4.16145

>  <r_i_glide_lipo>  (313) 
0

>  <r_i_glide_hbond>  (313) 
-0.239314

>  <r_i_glide_metal>  (313) 
-0

>  <r_i_glide_rewards>  (313) 
-2.09196

>  <r_i_glide_evdw>  (313) 
-16.1528

>  <r_i_glide_ecoul>  (313) 
-6.13531

>  <r_i_glide_erotb>  (313) 
0

>  <r_i_glide_esite>  (313) 
-0.10224

>  <r_i_glide_emodel>  (313) 
-30.7099

>  <r_i_glide_energy>  (313) 
-22.2881

>  <r_i_glide_einternal>  (313) 
0.313196

>  <r_i_glide_intrahb_reward>  (313) 
-0

>  <i_i_glide_confnum>  (313) 
2

>  <i_i_glide_posenum>  (313) 
5

>  <r_i_glide_eff_state_penalty>  (313) 
0

>  <ligand_id>  (313) 
74

>  <original_smiles>  (313) 
O=C(O)C12COCC1n1cncc1C2

>  <smiles>  (313) 
[H]c1nc([H])n2c1C([H])([H])C1(C(=O)[O-])C([H])([H])OC([H])([H])C21[H]

$$$$
74:1:2
     RDKit          3D

 23 25  0  0  1  0  0  0  0  0999 V2000
   -2.1745    4.3186    4.0435 O   0  0  0  0  0  0  0  0  0  0  0  0
   -2.0313    3.3414    4.8133 C   0  0  0  0  0  0  0  0  0  0  0  0
   -2.8388    3.0542    5.7211 O   0  0  0  0  0  0  0  0  0  0  0  0
   -0.7708    2.4600    4.6622 C   0  0  1  0  0  0  0  0  0  0  0  0
   -0.4267    1.6989    5.9616 C   0  0  0  0  0  0  0  0  0  0  0  0
   -1.2274    0.5224    5.9709 O   0  0  0  0  0  0  0  0  0  0  0  0
   -1.4002    0.0833    4.6265 C   0  0  0  0  0  0  0  0  0  0  0  0
   -1.0104    1.2580    3.7103 C   0  0  2  0  0  0  0  0  0  0  0  0
    0.2790    1.1387    3.0682 N   0  0  0  0  0  0  0  0  0  0  0  0
    0.9323    0.2789    2.2799 C   0  0  0  0  0  0  0  0  0  0  0  0
    2.1476    0.7214    1.9445 N   0  0  0  0  0  0  0  0  0  0  0  0
    2.2450    1.9859    2.5328 C   0  0  0  0  0  0  0  0  0  0  0  0
    1.0902    2.2170    3.2300 C   0  0  0  0  0  0  0  0  0  0  0  0
    0.4664    3.2296    4.0982 C   0  0  0  0  0  0  0  0  0  0  0  0
    0.6169    1.3788    5.9482 H   0  0  0  0  0  0  0  0  0  0  0  0
   -0.5735    2.2906    6.8650 H   0  0  0  0  0  0  0  0  0  0  0  0
   -0.8316   -0.8245    4.4237 H   0  0  0  0  0  0  0  0  0  0  0  0
   -2.4555   -0.1596    4.4983 H   0  0  0  0  0  0  0  0  0  0  0  0
   -1.7555    1.4586    2.9378 H   0  0  0  0  0  0  0  0  0  0  0  0
    0.5449   -0.6717    1.9552 H   0  0  0  0  0  0  0  0  0  0  0  0
    3.1157    2.6114    2.4212 H   0  0  0  0  0  0  0  0  0  0  0  0
    0.2009    4.0845    3.4746 H   0  0  0  0  0  0  0  0  0  0  0  0
    1.1484    3.5719    4.8790 H   0  0  0  0  0  0  0  0  0  0  0  0
  1  2  2  0
  2  3  1  0
  4  2  1  1
  4  8  1  0
  4 14  1  0
  4  5  1  0
  5  6  1  0
  5 15  1  0
  5 16  1  0
  6  7  1  0
  7  8  1  0
  7 17  1  0
  7 18  1  0
  8  9  1  0
  8 19  1  6
  9 13  1  0
  9 10  1  0
 10 11  2  0
 10 20  1  0
 11 12  1  0
 12 13  2  0
 12 21  1  0
 13 14  1  0
 14 22  1  0
 14 23  1  0
M  CHG  1   3  -1
M  END
>  <i_m_ct_stereo_status>  (314) 
1

>  <s_m_source_file>  (314) 
/var/tmp/pbs.5076255.sched01/tmpnby3vxlc/96d7dj3887.sdf

>  <i_m_source_file_index>  (314) 
35

>  <i_lp_mmshare_version>  (314) 
48012

>  <i_f3d_flags>  (314) 
0

>  <s_epik_input>  (314) 
Tz1DKFtPSF0pW0NAXTEyW0NASF0oW0NIMl1PW0NIMl0xKW4zYyhbQ0gyXTIpW2NIXW5bY0hdMw==

>  <s_epik_cmdline>  (314) 
J2VwaWtfcHl0aG9uJywgJy1waHQnLCAnMi4wJywgJy1waCcsICc3LjAnLCAnLXRuJywgJzgnLCAnLW1hJywgJzIwMCcsICctaW1hZScsICc8aW5maWxlLm1hZT4nLCAnLW9tYWUnLCAnPG91dGZpbGUubWFlPic=

>  <r_lp_tautomer_probability>  (314) 
1

>  <r_epik_Ionization_Penalty>  (314) 
0.821408

>  <r_epik_Ionization_Penalty_Charging>  (314) 
0.821408

>  <r_epik_Ionization_Penalty_Neutral>  (314) 
1.79064e-12

>  <r_epik_State_Penalty>  (314) 
0.854244

>  <r_epik_Charging_Adjusted_Penalty>  (314) 
1.67565

>  <i_epik_Tot_Q>  (314) 
-1

>  <i_epik_Tot_abs_Q>  (314) 
1

>  <s_lp_Force_Field>  (314) 
OPLS3e

>  <r_lp_Energy>  (314) 
-0.936862

>  <b_lp_Chiralities_Consistent>  (314) 
1

>  <s_lp_Variant>  (314) 
74:0-2

>  <s_i_glide_gridfile>  (314) 
pfpi4k_grid

>  <i_i_glide_lignum>  (314) 
35

>  <i_i_glide_rotatable_bonds>  (314) 
1

>  <r_i_docking_score>  (314) 
-3.9346

>  <r_i_glide_ligand_efficiency>  (314) 
-0.281043

>  <r_i_glide_ligand_efficiency_sa>  (314) 
-0.677353

>  <r_i_glide_ligand_efficiency_ln>  (314) 
-1.08121

>  <r_i_glide_gscore>  (314) 
-3.9346

>  <r_i_glide_lipo>  (314) 
0

>  <r_i_glide_hbond>  (314) 
-0.164919

>  <r_i_glide_metal>  (314) 
-0

>  <r_i_glide_rewards>  (314) 
-2.09196

>  <r_i_glide_evdw>  (314) 
-15.4333

>  <r_i_glide_ecoul>  (314) 
-5.29658

>  <r_i_glide_erotb>  (314) 
0

>  <r_i_glide_esite>  (314) 
-0.111571

>  <r_i_glide_emodel>  (314) 
-28.5144

>  <r_i_glide_energy>  (314) 
-20.7299

>  <r_i_glide_einternal>  (314) 
0.659272

>  <r_i_glide_intrahb_reward>  (314) 
-0

>  <i_i_glide_confnum>  (314) 
1

>  <i_i_glide_posenum>  (314) 
20

>  <r_i_glide_eff_state_penalty>  (314) 
0

>  <ligand_id>  (314) 
74

>  <original_smiles>  (314) 
O=C(O)C12COCC1n1cncc1C2

>  <smiles>  (314) 
[H]c1nc([H])n2c1C([H])([H])C1(C(=O)[O-])C([H])([H])OC([H])([H])C21[H]

$$$$
75:0:0
     RDKit          3D

 54 57  0  0  1  0  0  0  0  0999 V2000
   -1.6469   -7.4782    3.4360 C   0  0  0  0  0  0  0  0  0  0  0  0
   -0.1495   -7.6756    3.7428 C   0  0  0  0  0  0  0  0  0  0  0  0
    0.5957   -6.4054    3.8562 N   0  0  0  0  0  0  0  0  0  0  0  0
    1.5298   -6.1428    2.7463 C   0  0  0  0  0  0  0  0  0  0  0  0
    2.0063   -4.6717    2.6670 C   0  0  2  0  0  0  0  0  0  0  0  0
    2.9283   -4.3436    1.4397 C   0  0  2  0  0  0  0  0  0  0  0  0
    3.7826   -5.5025    0.8876 C   0  0  0  0  0  0  0  0  0  0  0  0
    4.6177   -5.0483   -0.2957 C   0  0  0  0  0  0  0  0  0  0  0  0
    4.8995   -3.7619   -0.5872 C   0  0  0  0  0  0  0  0  0  0  0  0
    5.5502   -3.3852   -1.9133 C   0  0  0  0  0  0  0  0  0  0  0  0
    4.5731   -2.5175   -2.7054 C   0  0  0  0  0  0  0  0  0  0  0  0
    4.3259   -2.7280   -3.8936 O   0  0  0  0  0  0  0  0  0  0  0  0
    3.9637   -1.3342   -1.9502 C   0  0  0  0  0  0  0  0  0  0  0  0
    3.4596   -1.7401   -0.5422 C   0  0  0  0  0  0  0  0  0  0  0  0
    4.4644   -2.5783    0.2970 C   0  0  2  0  0  0  0  0  0  0  0  0
    5.7005   -1.7051    0.6421 C   0  0  0  0  0  0  0  0  0  0  0  0
    3.8445   -3.1091    1.6416 C   0  0  1  0  0  0  0  0  0  0  0  0
    3.1227   -2.0720    2.5158 C   0  0  0  0  0  0  0  0  0  0  0  0
    2.8279   -2.6155    3.9349 C   0  0  0  0  0  0  0  0  0  0  0  0
    2.5051   -4.1505    4.0380 C   0  0  2  0  0  0  0  0  0  0  0  0
    3.7468   -4.9362    4.5369 C   0  0  0  0  0  0  0  0  0  0  0  0
    1.3748   -4.3795    5.0746 C   0  0  0  0  0  0  0  0  0  0  0  0
    1.1972   -3.5806    5.9972 O   0  0  0  0  0  0  0  0  0  0  0  0
    0.5056   -5.6663    4.9910 C   0  0  0  0  0  0  0  0  0  0  0  0
   -0.2482   -5.9500    5.9256 O   0  0  0  0  0  0  0  0  0  0  0  0
   -2.1540   -8.4441    3.3930 H   0  0  0  0  0  0  0  0  0  0  0  0
   -1.7970   -6.9895    2.4741 H   0  0  0  0  0  0  0  0  0  0  0  0
   -2.1477   -6.8895    4.2066 H   0  0  0  0  0  0  0  0  0  0  0  0
   -0.0533   -8.2399    4.6744 H   0  0  0  0  0  0  0  0  0  0  0  0
    0.2929   -8.3167    2.9783 H   0  0  0  0  0  0  0  0  0  0  0  0
    2.3802   -6.8137    2.8724 H   0  0  0  0  0  0  0  0  0  0  0  0
    1.0553   -6.4175    1.8048 H   0  0  0  0  0  0  0  0  0  0  0  0
    1.1039   -4.0882    2.4820 H   0  0  0  0  0  0  0  0  0  0  0  0
    2.2311   -4.0974    0.6367 H   0  0  0  0  0  0  0  0  0  0  0  0
    4.4372   -5.9295    1.6472 H   0  0  0  0  0  0  0  0  0  0  0  0
    3.1306   -6.3008    0.5304 H   0  0  0  0  0  0  0  0  0  0  0  0
    4.9294   -5.8312   -0.9741 H   0  0  0  0  0  0  0  0  0  0  0  0
    6.4789   -2.8438   -1.7497 H   0  0  0  0  0  0  0  0  0  0  0  0
    5.7943   -4.2702   -2.4934 H   0  0  0  0  0  0  0  0  0  0  0  0
    4.7210   -0.5549   -1.8710 H   0  0  0  0  0  0  0  0  0  0  0  0
    3.1449   -0.9155   -2.5358 H   0  0  0  0  0  0  0  0  0  0  0  0
    3.1520   -0.8418   -0.0035 H   0  0  0  0  0  0  0  0  0  0  0  0
    2.5584   -2.3293   -0.6879 H   0  0  0  0  0  0  0  0  0  0  0  0
    5.4362   -0.8550    1.2693 H   0  0  0  0  0  0  0  0  0  0  0  0
    6.1804   -1.2860   -0.2407 H   0  0  0  0  0  0  0  0  0  0  0  0
    6.4564   -2.2838    1.1740 H   0  0  0  0  0  0  0  0  0  0  0  0
    4.7001   -3.4442    2.2294 H   0  0  0  0  0  0  0  0  0  0  0  0
    3.6991   -1.1502    2.6056 H   0  0  0  0  0  0  0  0  0  0  0  0
    2.1782   -1.7963    2.0406 H   0  0  0  0  0  0  0  0  0  0  0  0
    3.6814   -2.3876    4.5761 H   0  0  0  0  0  0  0  0  0  0  0  0
    2.0159   -2.0005    4.3272 H   0  0  0  0  0  0  0  0  0  0  0  0
    4.5742   -4.9163    3.8310 H   0  0  0  0  0  0  0  0  0  0  0  0
    3.5249   -5.9877    4.7237 H   0  0  0  0  0  0  0  0  0  0  0  0
    4.1231   -4.5344    5.4778 H   0  0  0  0  0  0  0  0  0  0  0  0
  1  2  1  0
  1 26  1  0
  1 27  1  0
  1 28  1  0
  2  3  1  0
  2 29  1  0
  2 30  1  0
  3 24  1  0
  3  4  1  0
  4  5  1  0
  4 31  1  0
  4 32  1  0
  5 20  1  0
  5  6  1  0
  5 33  1  6
  6 17  1  0
  6  7  1  0
  6 34  1  6
  7  8  1  0
  7 35  1  0
  7 36  1  0
  8  9  2  0
  8 37  1  0
  9 15  1  0
  9 10  1  0
 10 11  1  0
 10 38  1  0
 10 39  1  0
 11 12  2  0
 11 13  1  0
 13 14  1  0
 13 40  1  0
 13 41  1  0
 14 15  1  0
 14 42  1  0
 14 43  1  0
 15 16  1  1
 15 17  1  0
 16 44  1  0
 16 45  1  0
 16 46  1  0
 17 18  1  0
 17 47  1  1
 18 19  1  0
 18 48  1  0
 18 49  1  0
 19 20  1  0
 19 50  1  0
 19 51  1  0
 20 21  1  1
 20 22  1  0
 21 52  1  0
 21 53  1  0
 21 54  1  0
 22 23  2  0
 22 24  1  0
 24 25  2  0
M  END
>  <i_m_ct_stereo_status>  (315) 
1

>  <s_m_source_file>  (315) 
/var/tmp/pbs.5076255.sched01/tmpnby3vxlc/96d7dj3887.sdf

>  <i_m_source_file_index>  (315) 
36

>  <i_lp_mmshare_version>  (315) 
48012

>  <i_f3d_flags>  (315) 
0

>  <s_epik_input>  (315) 
W0NIM11bQ0gyXU4oW0NIMl0xKUMoPU8pQyg9TylbQ0BdKFtDSDNdKShbQ0gyXVtDSDJdW0NAQEhdMjMpW0NASF0xW0NAQEhdMltDSDJdW0NIXT1DKFtDQF0zNFtDSDNdKVtDSDJdQyg9TylbQ0gyXVtDSDJdNA==

>  <s_epik_cmdline>  (315) 
J2VwaWtfcHl0aG9uJywgJy1waHQnLCAnMi4wJywgJy1waCcsICc3LjAnLCAnLXRuJywgJzgnLCAnLW1hJywgJzIwMCcsICctaW1hZScsICc8aW5maWxlLm1hZT4nLCAnLW9tYWUnLCAnPG91dGZpbGUubWFlPic=

>  <r_lp_tautomer_probability>  (315) 
1

>  <r_epik_Ionization_Penalty>  (315) 
6.49155e-10

>  <r_epik_Ionization_Penalty_Charging>  (315) 
0

>  <r_epik_Ionization_Penalty_Neutral>  (315) 
6.49155e-10

>  <r_epik_State_Penalty>  (315) 
-0

>  <r_epik_Charging_Adjusted_Penalty>  (315) 
0

>  <i_epik_Tot_Q>  (315) 
0

>  <i_epik_Tot_abs_Q>  (315) 
0

>  <s_lp_Force_Field>  (315) 
OPLS3e

>  <r_lp_Energy>  (315) 
60.4825

>  <b_lp_Chiralities_Consistent>  (315) 
1

>  <s_lp_Variant>  (315) 
75:0-1

>  <s_i_glide_gridfile>  (315) 
pfpi4k_grid

>  <i_i_glide_lignum>  (315) 
36

>  <i_i_glide_rotatable_bonds>  (315) 
1

>  <r_i_docking_score>  (315) 
-3.51239

>  <r_i_glide_ligand_efficiency>  (315) 
-0.140496

>  <r_i_glide_ligand_efficiency_sa>  (315) 
-0.410812

>  <r_i_glide_ligand_efficiency_ln>  (315) 
-0.832542

>  <r_i_glide_gscore>  (315) 
-3.51239

>  <r_i_glide_lipo>  (315) 
-0.319295

>  <r_i_glide_hbond>  (315) 
-0.118109

>  <r_i_glide_metal>  (315) 
-0

>  <r_i_glide_rewards>  (315) 
-1.239

>  <r_i_glide_evdw>  (315) 
-24.9082

>  <r_i_glide_ecoul>  (315) 
-3.66165

>  <r_i_glide_erotb>  (315) 
0

>  <r_i_glide_esite>  (315) 
-0.0413353

>  <r_i_glide_emodel>  (315) 
-34.9112

>  <r_i_glide_energy>  (315) 
-28.5698

>  <r_i_glide_einternal>  (315) 
5.60924e-05

>  <r_i_glide_intrahb_reward>  (315) 
-0

>  <i_i_glide_confnum>  (315) 
1

>  <i_i_glide_posenum>  (315) 
2

>  <r_i_glide_eff_state_penalty>  (315) 
0

>  <ligand_id>  (315) 
75

>  <original_smiles>  (315) 
CCN1CC2C3CC=C4CC(=O)CCC4(C)C3CCC2(C)C(=O)C1=O

>  <smiles>  (315) 
[H]C1=C2C([H])([H])C(=O)C([H])([H])C([H])([H])C2(C([H])([H])[H])C2([H])C([H])([H])C([H])([H])C3(C([H])([H])[H])C(=O)C(=O)N(C([H])([H])C([H])([H])[H])C([H])([H])C3([H])C2([H])C1([H])[H]

$$$$
75:0:1
     RDKit          3D

 54 57  0  0  1  0  0  0  0  0999 V2000
    3.4596   -2.8291   -3.6377 C   0  0  0  0  0  0  0  0  0  0  0  0
    3.2741   -2.3632   -2.1806 C   0  0  0  0  0  0  0  0  0  0  0  0
    4.1267   -3.0954   -1.2232 N   0  0  0  0  0  0  0  0  0  0  0  0
    3.3895   -3.9641   -0.2881 C   0  0  0  0  0  0  0  0  0  0  0  0
    4.2794   -5.0059    0.4342 C   0  0  2  0  0  0  0  0  0  0  0  0
    3.5052   -6.0000    1.3683 C   0  0  2  0  0  0  0  0  0  0  0  0
    2.1899   -5.4887    1.9868 C   0  0  0  0  0  0  0  0  0  0  0  0
    1.5423   -6.5566    2.8498 C   0  0  0  0  0  0  0  0  0  0  0  0
    2.1841   -7.6308    3.3477 C   0  0  0  0  0  0  0  0  0  0  0  0
    1.4125   -8.7556    4.0268 C   0  0  0  0  0  0  0  0  0  0  0  0
    1.5937  -10.0282    3.2052 C   0  0  0  0  0  0  0  0  0  0  0  0
    0.6370  -10.7300    2.8796 O   0  0  0  0  0  0  0  0  0  0  0  0
    3.0308  -10.3918    2.8250 C   0  0  0  0  0  0  0  0  0  0  0  0
    3.8211   -9.1709    2.2830 C   0  0  0  0  0  0  0  0  0  0  0  0
    3.6918   -7.8841    3.1515 C   0  0  2  0  0  0  0  0  0  0  0  0
    4.3603   -8.1199    4.5342 C   0  0  0  0  0  0  0  0  0  0  0  0
    4.3682   -6.6265    2.4923 C   0  0  1  0  0  0  0  0  0  0  0  0
    5.8100   -6.8111    1.9913 C   0  0  0  0  0  0  0  0  0  0  0  0
    6.4804   -5.4605    1.6455 C   0  0  0  0  0  0  0  0  0  0  0  0
    5.5387   -4.3485    1.0575 C   0  0  2  0  0  0  0  0  0  0  0  0
    5.1671   -3.3129    2.1533 C   0  0  0  0  0  0  0  0  0  0  0  0
    6.2784   -3.5713   -0.0618 C   0  0  0  0  0  0  0  0  0  0  0  0
    7.5083   -3.4848   -0.0571 O   0  0  0  0  0  0  0  0  0  0  0  0
    5.4551   -2.8178   -1.1459 C   0  0  0  0  0  0  0  0  0  0  0  0
    6.0282   -2.0174   -1.8890 O   0  0  0  0  0  0  0  0  0  0  0  0
    2.8229   -2.2475   -4.3066 H   0  0  0  0  0  0  0  0  0  0  0  0
    3.1885   -3.8787   -3.7539 H   0  0  0  0  0  0  0  0  0  0  0  0
    4.4899   -2.7058   -3.9744 H   0  0  0  0  0  0  0  0  0  0  0  0
    3.4899   -1.2938   -2.1126 H   0  0  0  0  0  0  0  0  0  0  0  0
    2.2200   -2.4583   -1.9133 H   0  0  0  0  0  0  0  0  0  0  0  0
    2.8909   -3.3166    0.4344 H   0  0  0  0  0  0  0  0  0  0  0  0
    2.6024   -4.4886   -0.8277 H   0  0  0  0  0  0  0  0  0  0  0  0
    4.6653   -5.6482   -0.3615 H   0  0  0  0  0  0  0  0  0  0  0  0
    3.2077   -6.8119    0.7034 H   0  0  0  0  0  0  0  0  0  0  0  0
    2.3367   -4.5850    2.5795 H   0  0  0  0  0  0  0  0  0  0  0  0
    1.4870   -5.2524    1.1899 H   0  0  0  0  0  0  0  0  0  0  0  0
    0.4779   -6.4524    3.0137 H   0  0  0  0  0  0  0  0  0  0  0  0
    1.7700   -8.9240    5.0407 H   0  0  0  0  0  0  0  0  0  0  0  0
    0.3518   -8.5149    4.0957 H   0  0  0  0  0  0  0  0  0  0  0  0
    3.5196  -10.7992    3.7102 H   0  0  0  0  0  0  0  0  0  0  0  0
    3.0150  -11.1891    2.0819 H   0  0  0  0  0  0  0  0  0  0  0  0
    4.8688   -9.4556    2.1716 H   0  0  0  0  0  0  0  0  0  0  0  0
    3.4585   -8.9713    1.2738 H   0  0  0  0  0  0  0  0  0  0  0  0
    5.4309   -8.3000    4.4445 H   0  0  0  0  0  0  0  0  0  0  0  0
    3.9564   -8.9857    5.0593 H   0  0  0  0  0  0  0  0  0  0  0  0
    4.2267   -7.2609    5.1927 H   0  0  0  0  0  0  0  0  0  0  0  0
    4.4286   -5.8878    3.2937 H   0  0  0  0  0  0  0  0  0  0  0  0
    6.4273   -7.3326    2.7249 H   0  0  0  0  0  0  0  0  0  0  0  0
    5.8002   -7.4370    1.0979 H   0  0  0  0  0  0  0  0  0  0  0  0
    6.9673   -5.0764    2.5429 H   0  0  0  0  0  0  0  0  0  0  0  0
    7.3024   -5.6988    0.9660 H   0  0  0  0  0  0  0  0  0  0  0  0
    4.5610   -3.7357    2.9509 H   0  0  0  0  0  0  0  0  0  0  0  0
    4.6073   -2.4674    1.7545 H   0  0  0  0  0  0  0  0  0  0  0  0
    6.0545   -2.8894    2.6207 H   0  0  0  0  0  0  0  0  0  0  0  0
  1  2  1  0
  1 26  1  0
  1 27  1  0
  1 28  1  0
  2  3  1  0
  2 29  1  0
  2 30  1  0
  3 24  1  0
  3  4  1  0
  4  5  1  0
  4 31  1  0
  4 32  1  0
  5 20  1  0
  5  6  1  0
  5 33  1  6
  6 17  1  0
  6  7  1  0
  6 34  1  6
  7  8  1  0
  7 35  1  0
  7 36  1  0
  8  9  2  0
  8 37  1  0
  9 15  1  0
  9 10  1  0
 10 11  1  0
 10 38  1  0
 10 39  1  0
 11 12  2  0
 11 13  1  0
 13 14  1  0
 13 40  1  0
 13 41  1  0
 14 15  1  0
 14 42  1  0
 14 43  1  0
 15 16  1  1
 15 17  1  0
 16 44  1  0
 16 45  1  0
 16 46  1  0
 17 18  1  0
 17 47  1  1
 18 19  1  0
 18 48  1  0
 18 49  1  0
 19 20  1  0
 19 50  1  0
 19 51  1  0
 20 21  1  1
 20 22  1  0
 21 52  1  0
 21 53  1  0
 21 54  1  0
 22 23  2  0
 22 24  1  0
 24 25  2  0
M  END
>  <i_m_ct_stereo_status>  (316) 
1

>  <s_m_source_file>  (316) 
/var/tmp/pbs.5076255.sched01/tmpnby3vxlc/96d7dj3887.sdf

>  <i_m_source_file_index>  (316) 
36

>  <i_lp_mmshare_version>  (316) 
48012

>  <i_f3d_flags>  (316) 
0

>  <s_epik_input>  (316) 
W0NIM11bQ0gyXU4oW0NIMl0xKUMoPU8pQyg9TylbQ0BdKFtDSDNdKShbQ0gyXVtDSDJdW0NAQEhdMjMpW0NASF0xW0NAQEhdMltDSDJdW0NIXT1DKFtDQF0zNFtDSDNdKVtDSDJdQyg9TylbQ0gyXVtDSDJdNA==

>  <s_epik_cmdline>  (316) 
J2VwaWtfcHl0aG9uJywgJy1waHQnLCAnMi4wJywgJy1waCcsICc3LjAnLCAnLXRuJywgJzgnLCAnLW1hJywgJzIwMCcsICctaW1hZScsICc8aW5maWxlLm1hZT4nLCAnLW9tYWUnLCAnPG91dGZpbGUubWFlPic=

>  <r_lp_tautomer_probability>  (316) 
1

>  <r_epik_Ionization_Penalty>  (316) 
6.49155e-10

>  <r_epik_Ionization_Penalty_Charging>  (316) 
0

>  <r_epik_Ionization_Penalty_Neutral>  (316) 
6.49155e-10

>  <r_epik_State_Penalty>  (316) 
-0

>  <r_epik_Charging_Adjusted_Penalty>  (316) 
0

>  <i_epik_Tot_Q>  (316) 
0

>  <i_epik_Tot_abs_Q>  (316) 
0

>  <s_lp_Force_Field>  (316) 
OPLS3e

>  <r_lp_Energy>  (316) 
60.4825

>  <b_lp_Chiralities_Consistent>  (316) 
1

>  <s_lp_Variant>  (316) 
75:0-1

>  <s_i_glide_gridfile>  (316) 
pfpi4k_grid

>  <i_i_glide_lignum>  (316) 
36

>  <i_i_glide_rotatable_bonds>  (316) 
1

>  <r_i_docking_score>  (316) 
-3.50931

>  <r_i_glide_ligand_efficiency>  (316) 
-0.140372

>  <r_i_glide_ligand_efficiency_sa>  (316) 
-0.410451

>  <r_i_glide_ligand_efficiency_ln>  (316) 
-0.831811

>  <r_i_glide_gscore>  (316) 
-3.50931

>  <r_i_glide_lipo>  (316) 
-0.538001

>  <r_i_glide_hbond>  (316) 
-0.0673042

>  <r_i_glide_metal>  (316) 
-0

>  <r_i_glide_rewards>  (316) 
-1.27318

>  <r_i_glide_evdw>  (316) 
-26.1845

>  <r_i_glide_ecoul>  (316) 
-2.07182

>  <r_i_glide_erotb>  (316) 
0

>  <r_i_glide_esite>  (316) 
-0.0108281

>  <r_i_glide_emodel>  (316) 
-34.5956

>  <r_i_glide_energy>  (316) 
-28.2563

>  <r_i_glide_einternal>  (316) 
0.0279003

>  <r_i_glide_intrahb_reward>  (316) 
-0

>  <i_i_glide_confnum>  (316) 
2

>  <i_i_glide_posenum>  (316) 
24

>  <r_i_glide_eff_state_penalty>  (316) 
0

>  <ligand_id>  (316) 
75

>  <original_smiles>  (316) 
CCN1CC2C3CC=C4CC(=O)CCC4(C)C3CCC2(C)C(=O)C1=O

>  <smiles>  (316) 
[H]C1=C2C([H])([H])C(=O)C([H])([H])C([H])([H])C2(C([H])([H])[H])C2([H])C([H])([H])C([H])([H])C3(C([H])([H])[H])C(=O)C(=O)N(C([H])([H])C([H])([H])[H])C([H])([H])C3([H])C2([H])C1([H])[H]

$$$$
75:0:2
     RDKit          3D

 54 57  0  0  1  0  0  0  0  0999 V2000
    4.1635   -1.4205   -1.9171 C   0  0  0  0  0  0  0  0  0  0  0  0
    4.3060   -1.3926   -0.3816 C   0  0  0  0  0  0  0  0  0  0  0  0
    4.6820   -2.7010    0.1890 N   0  0  0  0  0  0  0  0  0  0  0  0
    3.6375   -3.3249    1.0235 C   0  0  0  0  0  0  0  0  0  0  0  0
    3.8637   -4.8329    1.2884 C   0  0  2  0  0  0  0  0  0  0  0  0
    2.7226   -5.5391    2.1042 C   0  0  2  0  0  0  0  0  0  0  0  0
    1.9215   -4.6553    3.0822 C   0  0  0  0  0  0  0  0  0  0  0  0
    0.8497   -5.4617    3.7920 C   0  0  0  0  0  0  0  0  0  0  0  0
    0.8362   -6.8046    3.8823 C   0  0  0  0  0  0  0  0  0  0  0  0
   -0.3835   -7.5412    4.4263 C   0  0  0  0  0  0  0  0  0  0  0  0
   -0.9523   -8.4089    3.3073 C   0  0  0  0  0  0  0  0  0  0  0  0
   -2.1431   -8.3634    2.9975 O   0  0  0  0  0  0  0  0  0  0  0  0
    0.0443   -9.3129    2.5759 C   0  0  0  0  0  0  0  0  0  0  0  0
    1.3387   -8.5522    2.1785 C   0  0  0  0  0  0  0  0  0  0  0  0
    1.9601   -7.7042    3.3282 C   0  0  2  0  0  0  0  0  0  0  0  0
    2.4629   -8.6479    4.4547 C   0  0  0  0  0  0  0  0  0  0  0  0
    3.1707   -6.8189    2.8564 C   0  0  1  0  0  0  0  0  0  0  0  0
    4.2609   -7.5355    2.0441 C   0  0  0  0  0  0  0  0  0  0  0  0
    5.5327   -6.6663    1.8903 C   0  0  0  0  0  0  0  0  0  0  0  0
    5.3052   -5.1171    1.7764 C   0  0  2  0  0  0  0  0  0  0  0  0
    5.5920   -4.4342    3.1374 C   0  0  0  0  0  0  0  0  0  0  0  0
    6.2952   -4.5115    0.7482 C   0  0  0  0  0  0  0  0  0  0  0  0
    7.3801   -5.0544    0.5242 O   0  0  0  0  0  0  0  0  0  0  0  0
    5.9549   -3.1562    0.0597 C   0  0  0  0  0  0  0  0  0  0  0  0
    6.8250   -2.5561   -0.5809 O   0  0  0  0  0  0  0  0  0  0  0  0
    3.9102   -0.4279   -2.2939 H   0  0  0  0  0  0  0  0  0  0  0  0
    3.3720   -2.1063   -2.2278 H   0  0  0  0  0  0  0  0  0  0  0  0
    5.0890   -1.7246   -2.4102 H   0  0  0  0  0  0  0  0  0  0  0  0
    5.0574   -0.6485   -0.1037 H   0  0  0  0  0  0  0  0  0  0  0  0
    3.3713   -1.0365    0.0562 H   0  0  0  0  0  0  0  0  0  0  0  0
    3.5954   -2.7689    1.9617 H   0  0  0  0  0  0  0  0  0  0  0  0
    2.6714   -3.1984    0.5377 H   0  0  0  0  0  0  0  0  0  0  0  0
    3.8053   -5.3064    0.3057 H   0  0  0  0  0  0  0  0  0  0  0  0
    2.0038   -5.8501    1.3432 H   0  0  0  0  0  0  0  0  0  0  0  0
    2.5587   -4.1828    3.8293 H   0  0  0  0  0  0  0  0  0  0  0  0
    1.4160   -3.8625    2.5307 H   0  0  0  0  0  0  0  0  0  0  0  0
    0.0240   -4.8880    4.1904 H   0  0  0  0  0  0  0  0  0  0  0  0
   -0.1242   -8.1647    5.2797 H   0  0  0  0  0  0  0  0  0  0  0  0
   -1.1433   -6.8373    4.7620 H   0  0  0  0  0  0  0  0  0  0  0  0
    0.2829  -10.1574    3.2240 H   0  0  0  0  0  0  0  0  0  0  0  0
   -0.4400   -9.7293    1.6939 H   0  0  0  0  0  0  0  0  0  0  0  0
    2.0660   -9.2717    1.7972 H   0  0  0  0  0  0  0  0  0  0  0  0
    1.0942   -7.9062    1.3350 H   0  0  0  0  0  0  0  0  0  0  0  0
    3.2642   -9.3002    4.1116 H   0  0  0  0  0  0  0  0  0  0  0  0
    1.6848   -9.3090    4.8368 H   0  0  0  0  0  0  0  0  0  0  0  0
    2.8431   -8.0818    5.3056 H   0  0  0  0  0  0  0  0  0  0  0  0
    3.6534   -6.4929    3.7796 H   0  0  0  0  0  0  0  0  0  0  0  0
    4.5420   -8.4868    2.5007 H   0  0  0  0  0  0  0  0  0  0  0  0
    3.8754   -7.7703    1.0490 H   0  0  0  0  0  0  0  0  0  0  0  0
    6.1868   -6.8651    2.7409 H   0  0  0  0  0  0  0  0  0  0  0  0
    6.0707   -7.0629    1.0263 H   0  0  0  0  0  0  0  0  0  0  0  0
    4.8936   -4.7139    3.9226 H   0  0  0  0  0  0  0  0  0  0  0  0
    5.5692   -3.3454    3.0752 H   0  0  0  0  0  0  0  0  0  0  0  0
    6.5821   -4.7056    3.4954 H   0  0  0  0  0  0  0  0  0  0  0  0
  1  2  1  0
  1 26  1  0
  1 27  1  0
  1 28  1  0
  2  3  1  0
  2 29  1  0
  2 30  1  0
  3 24  1  0
  3  4  1  0
  4  5  1  0
  4 31  1  0
  4 32  1  0
  5 20  1  0
  5  6  1  0
  5 33  1  6
  6 17  1  0
  6  7  1  0
  6 34  1  6
  7  8  1  0
  7 35  1  0
  7 36  1  0
  8  9  2  0
  8 37  1  0
  9 15  1  0
  9 10  1  0
 10 11  1  0
 10 38  1  0
 10 39  1  0
 11 12  2  0
 11 13  1  0
 13 14  1  0
 13 40  1  0
 13 41  1  0
 14 15  1  0
 14 42  1  0
 14 43  1  0
 15 16  1  1
 15 17  1  0
 16 44  1  0
 16 45  1  0
 16 46  1  0
 17 18  1  0
 17 47  1  1
 18 19  1  0
 18 48  1  0
 18 49  1  0
 19 20  1  0
 19 50  1  0
 19 51  1  0
 20 21  1  1
 20 22  1  0
 21 52  1  0
 21 53  1  0
 21 54  1  0
 22 23  2  0
 22 24  1  0
 24 25  2  0
M  END
>  <i_m_ct_stereo_status>  (317) 
1

>  <s_m_source_file>  (317) 
/var/tmp/pbs.5076255.sched01/tmpnby3vxlc/96d7dj3887.sdf

>  <i_m_source_file_index>  (317) 
36

>  <i_lp_mmshare_version>  (317) 
48012

>  <i_f3d_flags>  (317) 
0

>  <s_epik_input>  (317) 
W0NIM11bQ0gyXU4oW0NIMl0xKUMoPU8pQyg9TylbQ0BdKFtDSDNdKShbQ0gyXVtDSDJdW0NAQEhdMjMpW0NASF0xW0NAQEhdMltDSDJdW0NIXT1DKFtDQF0zNFtDSDNdKVtDSDJdQyg9TylbQ0gyXVtDSDJdNA==

>  <s_epik_cmdline>  (317) 
J2VwaWtfcHl0aG9uJywgJy1waHQnLCAnMi4wJywgJy1waCcsICc3LjAnLCAnLXRuJywgJzgnLCAnLW1hJywgJzIwMCcsICctaW1hZScsICc8aW5maWxlLm1hZT4nLCAnLW9tYWUnLCAnPG91dGZpbGUubWFlPic=

>  <r_lp_tautomer_probability>  (317) 
1

>  <r_epik_Ionization_Penalty>  (317) 
6.49155e-10

>  <r_epik_Ionization_Penalty_Charging>  (317) 
0

>  <r_epik_Ionization_Penalty_Neutral>  (317) 
6.49155e-10

>  <r_epik_State_Penalty>  (317) 
-0

>  <r_epik_Charging_Adjusted_Penalty>  (317) 
0

>  <i_epik_Tot_Q>  (317) 
0

>  <i_epik_Tot_abs_Q>  (317) 
0

>  <s_lp_Force_Field>  (317) 
OPLS3e

>  <r_lp_Energy>  (317) 
60.4825

>  <b_lp_Chiralities_Consistent>  (317) 
1

>  <s_lp_Variant>  (317) 
75:0-1

>  <s_i_glide_gridfile>  (317) 
pfpi4k_grid

>  <i_i_glide_lignum>  (317) 
36

>  <i_i_glide_rotatable_bonds>  (317) 
1

>  <r_i_docking_score>  (317) 
-3.21838

>  <r_i_glide_ligand_efficiency>  (317) 
-0.128735

>  <r_i_glide_ligand_efficiency_sa>  (317) 
-0.376424

>  <r_i_glide_ligand_efficiency_ln>  (317) 
-0.762852

>  <r_i_glide_gscore>  (317) 
-3.21838

>  <r_i_glide_lipo>  (317) 
-0.130913

>  <r_i_glide_hbond>  (317) 
-0.00375733

>  <r_i_glide_metal>  (317) 
-0

>  <r_i_glide_rewards>  (317) 
-1.29513

>  <r_i_glide_evdw>  (317) 
-23.9452

>  <r_i_glide_ecoul>  (317) 
-3.55702

>  <r_i_glide_erotb>  (317) 
0

>  <r_i_glide_esite>  (317) 
-0.0577667

>  <r_i_glide_emodel>  (317) 
-33.2623

>  <r_i_glide_energy>  (317) 
-27.5023

>  <r_i_glide_einternal>  (317) 
0.0374493

>  <r_i_glide_intrahb_reward>  (317) 
-0

>  <i_i_glide_confnum>  (317) 
1

>  <i_i_glide_posenum>  (317) 
17

>  <r_i_glide_eff_state_penalty>  (317) 
0

>  <ligand_id>  (317) 
75

>  <original_smiles>  (317) 
CCN1CC2C3CC=C4CC(=O)CCC4(C)C3CCC2(C)C(=O)C1=O

>  <smiles>  (317) 
[H]C1=C2C([H])([H])C(=O)C([H])([H])C([H])([H])C2(C([H])([H])[H])C2([H])C([H])([H])C([H])([H])C3(C([H])([H])[H])C(=O)C(=O)N(C([H])([H])C([H])([H])[H])C([H])([H])C3([H])C2([H])C1([H])[H]

$$$$
76:0:0
     RDKit          3D

 53 57  0  0  1  0  0  0  0  0999 V2000
   -9.2087   -5.5700   -8.3789 C   0  0  0  0  0  0  0  0  0  0  0  0
   -9.1221   -6.7904   -8.9562 C   0  0  0  0  0  0  0  0  0  0  0  0
   -9.3755   -7.1055  -10.4404 C   0  0  1  0  0  0  0  0  0  0  0  0
   -9.2512   -5.9016  -11.3661 C   0  0  0  0  0  0  0  0  0  0  0  0
   -8.5009   -8.3030  -10.9922 C   0  0  0  0  0  0  0  0  0  0  0  0
   -8.6644   -9.7762  -10.3493 C   0  0  1  0  0  0  0  0  0  0  0  0
   -9.0653  -10.7694  -11.4301 C   0  0  0  0  0  0  0  0  0  0  0  0
   -7.5812  -10.5553   -9.7268 O   0  0  0  0  0  0  0  0  0  0  0  0
   -6.7462   -9.8112   -8.6768 O   0  0  0  0  0  0  0  0  0  0  0  0
   -7.3919   -9.7048   -7.3826 C   0  0  2  0  0  0  0  0  0  0  0  0
   -8.8234  -10.2892   -7.4496 C   0  0  0  0  0  0  0  0  0  0  0  0
   -9.6057   -9.2466   -8.2719 C   0  0  2  0  0  0  0  0  0  0  0  0
  -11.0636   -9.0111   -7.8513 C   0  0  0  0  0  0  0  0  0  0  0  0
   -9.8052   -9.7583   -9.5530 O   0  0  0  0  0  0  0  0  0  0  0  0
   -8.6759   -7.9946   -8.2242 C   0  0  2  0  0  0  0  0  0  0  0  0
   -7.6677   -8.2271   -7.1228 C   0  0  2  0  0  0  0  0  0  0  0  0
   -6.3488   -7.4384   -7.0416 C   0  0  0  0  0  0  0  0  0  0  0  0
   -5.5373   -7.7999   -5.7764 C   0  0  1  0  0  0  0  0  0  0  0  0
   -6.0490   -6.9692   -4.5883 C   0  0  0  0  0  0  0  0  0  0  0  0
   -5.5618   -9.3071   -5.4939 C   0  0  2  0  0  0  0  0  0  0  0  0
   -4.9615  -10.2929   -6.4328 C   0  0  1  0  0  0  0  0  0  0  0  0
   -4.1681  -11.4473   -5.8194 C   0  0  0  0  0  0  0  0  0  0  0  0
   -6.4762  -10.2592   -6.2878 C   0  0  2  0  0  0  0  0  0  0  0  0
   -8.9729   -5.4396   -7.3429 H   0  0  0  0  0  0  0  0  0  0  0  0
   -9.5122   -4.7130   -8.9406 H   0  0  0  0  0  0  0  0  0  0  0  0
  -10.4013   -7.4502  -10.5060 H   0  0  0  0  0  0  0  0  0  0  0  0
  -10.0103   -5.1610  -11.1451 H   0  0  0  0  0  0  0  0  0  0  0  0
   -9.4114   -6.1790  -12.3928 H   0  0  0  0  0  0  0  0  0  0  0  0
   -8.2818   -5.4146  -11.3055 H   0  0  0  0  0  0  0  0  0  0  0  0
   -8.7726   -8.4222  -12.0434 H   0  0  0  0  0  0  0  0  0  0  0  0
   -7.4394   -8.0212  -11.0119 H   0  0  0  0  0  0  0  0  0  0  0  0
   -9.2466  -11.7859  -11.0472 H   0  0  0  0  0  0  0  0  0  0  0  0
   -8.2673  -10.8143  -12.1833 H   0  0  0  0  0  0  0  0  0  0  0  0
   -9.9796  -10.4045  -11.8993 H   0  0  0  0  0  0  0  0  0  0  0  0
   -8.8421  -11.3106   -7.8171 H   0  0  0  0  0  0  0  0  0  0  0  0
   -9.1953  -10.3340   -6.4319 H   0  0  0  0  0  0  0  0  0  0  0  0
  -11.1676   -8.5294   -6.9042 H   0  0  0  0  0  0  0  0  0  0  0  0
  -11.6041   -9.9486   -7.8023 H   0  0  0  0  0  0  0  0  0  0  0  0
  -11.5644   -8.3622   -8.5484 H   0  0  0  0  0  0  0  0  0  0  0  0
   -7.8289   -7.9211   -8.8712 H   0  0  0  0  0  0  0  0  0  0  0  0
   -8.1758   -8.0930   -6.1718 H   0  0  0  0  0  0  0  0  0  0  0  0
   -5.7229   -7.6174   -7.9112 H   0  0  0  0  0  0  0  0  0  0  0  0
   -6.5833   -6.3738   -7.0329 H   0  0  0  0  0  0  0  0  0  0  0  0
   -4.4873   -7.5155   -5.9292 H   0  0  0  0  0  0  0  0  0  0  0  0
   -7.0908   -7.1790   -4.3608 H   0  0  0  0  0  0  0  0  0  0  0  0
   -5.9486   -5.8936   -4.7707 H   0  0  0  0  0  0  0  0  0  0  0  0
   -5.4801   -7.1869   -3.6906 H   0  0  0  0  0  0  0  0  0  0  0  0
   -5.3393   -9.5272   -4.4461 H   0  0  0  0  0  0  0  0  0  0  0  0
   -4.5524   -9.8865   -7.3539 H   0  0  0  0  0  0  0  0  0  0  0  0
   -4.6307  -11.8211   -4.9013 H   0  0  0  0  0  0  0  0  0  0  0  0
   -3.1741  -11.0926   -5.5657 H   0  0  0  0  0  0  0  0  0  0  0  0
   -4.0970  -12.2674   -6.5248 H   0  0  0  0  0  0  0  0  0  0  0  0
   -6.9359  -11.0912   -5.7545 H   0  0  0  0  0  0  0  0  0  0  0  0
  1  2  2  0
  1 24  1  0
  1 25  1  0
  2 15  1  0
  2  3  1  0
  3  4  1  0
  3  5  1  0
  3 26  1  1
  4 27  1  0
  4 28  1  0
  4 29  1  0
  5  6  1  0
  5 30  1  0
  5 31  1  0
  6 14  1  0
  6  7  1  6
  6  8  1  0
  7 32  1  0
  7 33  1  0
  7 34  1  0
  8  9  1  0
 10  9  1  6
 10 16  1  0
 10 23  1  0
 10 11  1  0
 11 12  1  0
 11 35  1  0
 11 36  1  0
 12 13  1  1
 12 14  1  0
 12 15  1  0
 13 37  1  0
 13 38  1  0
 13 39  1  0
 15 16  1  0
 15 40  1  6
 16 17  1  0
 16 41  1  1
 17 18  1  0
 17 42  1  0
 17 43  1  0
 18 19  1  0
 18 20  1  0
 18 44  1  6
 19 45  1  0
 19 46  1  0
 19 47  1  0
 20 23  1  0
 20 21  1  0
 20 48  1  1
 21 22  1  0
 21 23  1  0
 21 49  1  6
 22 50  1  0
 22 51  1  0
 22 52  1  0
 23 53  1  1
M  END
>  <i_m_ct_stereo_status>  (318) 
1

>  <s_m_source_file>  (318) 
/var/tmp/pbs.5076255.sched01/tmpnby3vxlc/96d7dj3887.sdf

>  <i_m_source_file_index>  (318) 
37

>  <i_lp_mmshare_version>  (318) 
48012

>  <i_f3d_flags>  (318) 
0

>  <s_epik_input>  (318) 
W0NIMl09QzFbQ0BASF0oW0NIM10pW0NIMl1bQ0BAXShbQ0gzXSkoT08yKU9bQ0BdKFtDSDJdMykoW0NIM10pW0NAQEhdMVtDQEBIXShbQ0BdMjM0KVtDSDJdW0NAQEhdKFtDSDNdKVtDQEhdNVtDQEBIXTRbQ0BASF01W0NIM10=

>  <s_epik_cmdline>  (318) 
J2VwaWtfcHl0aG9uJywgJy1waHQnLCAnMi4wJywgJy1waCcsICc3LjAnLCAnLXRuJywgJzgnLCAnLW1hJywgJzIwMCcsICctaW1hZScsICc8aW5maWxlLm1hZT4nLCAnLW9tYWUnLCAnPG91dGZpbGUubWFlPic=

>  <r_lp_tautomer_probability>  (318) 
1

>  <r_epik_Ionization_Penalty>  (318) 
6.3148e-14

>  <r_epik_Ionization_Penalty_Charging>  (318) 
0

>  <r_epik_Ionization_Penalty_Neutral>  (318) 
6.3148e-14

>  <r_epik_State_Penalty>  (318) 
-0

>  <r_epik_Charging_Adjusted_Penalty>  (318) 
0

>  <i_epik_Tot_Q>  (318) 
0

>  <i_epik_Tot_abs_Q>  (318) 
0

>  <s_lp_Force_Field>  (318) 
OPLS3e

>  <r_lp_Energy>  (318) 
76.791

>  <b_lp_Chiralities_Consistent>  (318) 
1

>  <s_lp_Variant>  (318) 
76:0-1

>  <s_i_glide_gridfile>  (318) 
pfpi4k_grid

>  <i_i_glide_lignum>  (318) 
37

>  <i_i_glide_rotatable_bonds>  (318) 
0

>  <r_i_docking_score>  (318) 
-4.97768

>  <r_i_glide_ligand_efficiency>  (318) 
-0.216421

>  <r_i_glide_ligand_efficiency_sa>  (318) 
-0.615472

>  <r_i_glide_ligand_efficiency_ln>  (318) 
-1.20365

>  <r_i_glide_gscore>  (318) 
-4.97768

>  <r_i_glide_lipo>  (318) 
-2.2783

>  <r_i_glide_hbond>  (318) 
0

>  <r_i_glide_metal>  (318) 
-0

>  <r_i_glide_rewards>  (318) 
-1.668

>  <r_i_glide_evdw>  (318) 
-17.6244

>  <r_i_glide_ecoul>  (318) 
-1.00102

>  <r_i_glide_erotb>  (318) 
0

>  <r_i_glide_esite>  (318) 
0

>  <r_i_glide_emodel>  (318) 
-25.7565

>  <r_i_glide_energy>  (318) 
-18.6254

>  <r_i_glide_einternal>  (318) 
0

>  <r_i_glide_intrahb_reward>  (318) 
-0

>  <i_i_glide_confnum>  (318) 
1

>  <i_i_glide_posenum>  (318) 
32

>  <r_i_glide_eff_state_penalty>  (318) 
0

>  <ligand_id>  (318) 
76

>  <original_smiles>  (318) 
C=C1C(C)CC2(C)OOC34CC(C)(O2)C1C3CC(C)C1C(C)C14

>  <smiles>  (318) 
[H]C([H])=C1C([H])(C([H])([H])[H])C([H])([H])C2(C([H])([H])[H])OOC34C([H])([H])C(C([H])([H])[H])(O2)C1([H])C3([H])C([H])([H])C([H])(C([H])([H])[H])C1([H])C([H])(C([H])([H])[H])C14[H]

$$$$
76:0:1
     RDKit          3D

 53 57  0  0  1  0  0  0  0  0999 V2000
    4.0983   -3.5006    4.6444 C   0  0  0  0  0  0  0  0  0  0  0  0
    3.4785   -4.4209    3.8643 C   0  0  0  0  0  0  0  0  0  0  0  0
    2.3217   -5.3514    4.3081 C   0  0  1  0  0  0  0  0  0  0  0  0
    1.5743   -4.8352    5.5595 C   0  0  0  0  0  0  0  0  0  0  0  0
    1.2899   -5.7200    3.1550 C   0  0  0  0  0  0  0  0  0  0  0  0
    1.8586   -6.4873    1.8681 C   0  0  1  0  0  0  0  0  0  0  0  0
    1.0701   -7.8077    1.7726 C   0  0  0  0  0  0  0  0  0  0  0  0
    1.7031   -6.0108    0.4805 O   0  0  0  0  0  0  0  0  0  0  0  0
    2.2976   -4.5628    0.2008 O   0  0  0  0  0  0  0  0  0  0  0  0
    3.7619   -4.5331    0.1195 C   0  0  2  0  0  0  0  0  0  0  0  0
    4.4167   -5.8833    0.4289 C   0  0  0  0  0  0  0  0  0  0  0  0
    4.1816   -6.0503    1.9431 C   0  0  2  0  0  0  0  0  0  0  0  0
    5.4090   -6.6250    2.6658 C   0  0  0  0  0  0  0  0  0  0  0  0
    3.1477   -6.9795    2.1423 O   0  0  0  0  0  0  0  0  0  0  0  0
    3.7835   -4.6278    2.4111 C   0  0  2  0  0  0  0  0  0  0  0  0
    4.2566   -3.6756    1.3262 C   0  0  2  0  0  0  0  0  0  0  0  0
    3.6907   -2.2414    1.2248 C   0  0  0  0  0  0  0  0  0  0  0  0
    4.3480   -1.4856    0.0379 C   0  0  1  0  0  0  0  0  0  0  0  0
    5.6773   -0.8416    0.4684 C   0  0  0  0  0  0  0  0  0  0  0  0
    4.5212   -2.3533   -1.1968 C   0  0  2  0  0  0  0  0  0  0  0  0
    3.3443   -2.9043   -1.9677 C   0  0  1  0  0  0  0  0  0  0  0  0
    3.3250   -2.8829   -3.4840 C   0  0  0  0  0  0  0  0  0  0  0  0
    4.2368   -3.8545   -1.1668 C   0  0  2  0  0  0  0  0  0  0  0  0
    4.8827   -2.8888    4.2398 H   0  0  0  0  0  0  0  0  0  0  0  0
    3.8366   -3.3709    5.6785 H   0  0  0  0  0  0  0  0  0  0  0  0
    2.7917   -6.2881    4.6074 H   0  0  0  0  0  0  0  0  0  0  0  0
    2.2281   -4.7788    6.4280 H   0  0  0  0  0  0  0  0  0  0  0  0
    0.7588   -5.4979    5.8422 H   0  0  0  0  0  0  0  0  0  0  0  0
    1.1480   -3.8461    5.4005 H   0  0  0  0  0  0  0  0  0  0  0  0
    0.5301   -6.3517    3.6231 H   0  0  0  0  0  0  0  0  0  0  0  0
    0.7385   -4.8294    2.8530 H   0  0  0  0  0  0  0  0  0  0  0  0
    1.4328   -8.4129    0.9431 H   0  0  0  0  0  0  0  0  0  0  0  0
    0.0055   -7.6421    1.6115 H   0  0  0  0  0  0  0  0  0  0  0  0
    1.1758   -8.4133    2.6735 H   0  0  0  0  0  0  0  0  0  0  0  0
    4.0448   -6.6983   -0.1873 H   0  0  0  0  0  0  0  0  0  0  0  0
    5.4868   -5.8061    0.2244 H   0  0  0  0  0  0  0  0  0  0  0  0
    6.2751   -5.9746    2.5947 H   0  0  0  0  0  0  0  0  0  0  0  0
    5.6816   -7.5929    2.2509 H   0  0  0  0  0  0  0  0  0  0  0  0
    5.1937   -6.7787    3.7184 H   0  0  0  0  0  0  0  0  0  0  0  0
    2.7880   -4.2916    2.2332 H   0  0  0  0  0  0  0  0  0  0  0  0
    5.3473   -3.6293    1.3525 H   0  0  0  0  0  0  0  0  0  0  0  0
    2.6130   -2.2661    1.0615 H   0  0  0  0  0  0  0  0  0  0  0  0
    3.8704   -1.6984    2.1529 H   0  0  0  0  0  0  0  0  0  0  0  0
    3.6857   -0.6584   -0.2342 H   0  0  0  0  0  0  0  0  0  0  0  0
    6.4285   -1.5780    0.7489 H   0  0  0  0  0  0  0  0  0  0  0  0
    5.5269   -0.1788    1.3233 H   0  0  0  0  0  0  0  0  0  0  0  0
    6.0936   -0.2314   -0.3279 H   0  0  0  0  0  0  0  0  0  0  0  0
    5.3307   -2.0293   -1.8497 H   0  0  0  0  0  0  0  0  0  0  0  0
    2.3739   -2.6735   -1.5279 H   0  0  0  0  0  0  0  0  0  0  0  0
    4.3122   -3.1167   -3.8910 H   0  0  0  0  0  0  0  0  0  0  0  0
    3.0224   -1.8970   -3.8437 H   0  0  0  0  0  0  0  0  0  0  0  0
    2.6097   -3.6177   -3.8569 H   0  0  0  0  0  0  0  0  0  0  0  0
    4.8582   -4.4814   -1.8045 H   0  0  0  0  0  0  0  0  0  0  0  0
  1  2  2  0
  1 24  1  0
  1 25  1  0
  2 15  1  0
  2  3  1  0
  3  4  1  0
  3  5  1  0
  3 26  1  1
  4 27  1  0
  4 28  1  0
  4 29  1  0
  5  6  1  0
  5 30  1  0
  5 31  1  0
  6 14  1  0
  6  7  1  6
  6  8  1  0
  7 32  1  0
  7 33  1  0
  7 34  1  0
  8  9  1  0
 10  9  1  6
 10 16  1  0
 10 23  1  0
 10 11  1  0
 11 12  1  0
 11 35  1  0
 11 36  1  0
 12 13  1  1
 12 14  1  0
 12 15  1  0
 13 37  1  0
 13 38  1  0
 13 39  1  0
 15 16  1  0
 15 40  1  6
 16 17  1  0
 16 41  1  6
 17 18  1  0
 17 42  1  0
 17 43  1  0
 18 19  1  0
 18 20  1  0
 18 44  1  6
 19 45  1  0
 19 46  1  0
 19 47  1  0
 20 23  1  0
 20 21  1  0
 20 48  1  6
 21 22  1  0
 21 23  1  0
 21 49  1  1
 22 50  1  0
 22 51  1  0
 22 52  1  0
 23 53  1  6
M  END
>  <i_m_ct_stereo_status>  (319) 
1

>  <s_m_source_file>  (319) 
/var/tmp/pbs.5076255.sched01/tmpnby3vxlc/96d7dj3887.sdf

>  <i_m_source_file_index>  (319) 
37

>  <i_lp_mmshare_version>  (319) 
48012

>  <i_f3d_flags>  (319) 
0

>  <s_epik_input>  (319) 
W0NIMl09QzFbQ0BASF0oW0NIM10pW0NIMl1bQ0BAXShbQ0gzXSkoT08yKU9bQ0BdKFtDSDJdMykoW0NIM10pW0NAQEhdMVtDQEBIXShbQ0BdMjM0KVtDSDJdW0NAQEhdKFtDSDNdKVtDQEhdNVtDQEBIXTRbQ0BASF01W0NIM10=

>  <s_epik_cmdline>  (319) 
J2VwaWtfcHl0aG9uJywgJy1waHQnLCAnMi4wJywgJy1waCcsICc3LjAnLCAnLXRuJywgJzgnLCAnLW1hJywgJzIwMCcsICctaW1hZScsICc8aW5maWxlLm1hZT4nLCAnLW9tYWUnLCAnPG91dGZpbGUubWFlPic=

>  <r_lp_tautomer_probability>  (319) 
1

>  <r_epik_Ionization_Penalty>  (319) 
6.3148e-14

>  <r_epik_Ionization_Penalty_Charging>  (319) 
0

>  <r_epik_Ionization_Penalty_Neutral>  (319) 
6.3148e-14

>  <r_epik_State_Penalty>  (319) 
-0

>  <r_epik_Charging_Adjusted_Penalty>  (319) 
0

>  <i_epik_Tot_Q>  (319) 
0

>  <i_epik_Tot_abs_Q>  (319) 
0

>  <s_lp_Force_Field>  (319) 
OPLS3e

>  <r_lp_Energy>  (319) 
76.791

>  <b_lp_Chiralities_Consistent>  (319) 
1

>  <s_lp_Variant>  (319) 
76:0-1

>  <s_i_glide_gridfile>  (319) 
pfpi4k_grid

>  <i_i_glide_lignum>  (319) 
37

>  <i_i_glide_rotatable_bonds>  (319) 
0

>  <r_i_docking_score>  (319) 
-3.16998

>  <r_i_glide_ligand_efficiency>  (319) 
-0.137825

>  <r_i_glide_ligand_efficiency_sa>  (319) 
-0.391957

>  <r_i_glide_ligand_efficiency_ln>  (319) 
-0.76653

>  <r_i_glide_gscore>  (319) 
-3.16998

>  <r_i_glide_lipo>  (319) 
-0.463796

>  <r_i_glide_hbond>  (319) 
-0.072082

>  <r_i_glide_metal>  (319) 
-0

>  <r_i_glide_rewards>  (319) 
-1.23784

>  <r_i_glide_evdw>  (319) 
-25.7754

>  <r_i_glide_ecoul>  (319) 
-0.522775

>  <r_i_glide_erotb>  (319) 
0

>  <r_i_glide_esite>  (319) 
-0.0290793

>  <r_i_glide_emodel>  (319) 
-31.1655

>  <r_i_glide_energy>  (319) 
-26.2982

>  <r_i_glide_einternal>  (319) 
0

>  <r_i_glide_intrahb_reward>  (319) 
-0

>  <i_i_glide_confnum>  (319) 
1

>  <i_i_glide_posenum>  (319) 
21

>  <r_i_glide_eff_state_penalty>  (319) 
0

>  <ligand_id>  (319) 
76

>  <original_smiles>  (319) 
C=C1C(C)CC2(C)OOC34CC(C)(O2)C1C3CC(C)C1C(C)C14

>  <smiles>  (319) 
[H]C([H])=C1C([H])(C([H])([H])[H])C([H])([H])C2(C([H])([H])[H])OOC34C([H])([H])C(C([H])([H])[H])(O2)C1([H])C3([H])C([H])([H])C([H])(C([H])([H])[H])C1([H])C([H])(C([H])([H])[H])C14[H]

$$$$
77:0:0
     RDKit          3D

 50 53  0  0  1  0  0  0  0  0999 V2000
    5.2447   -8.9593    1.3165 C   0  0  0  0  0  0  0  0  0  0  0  0
    6.4813   -8.1210    1.7006 C   0  0  0  0  0  0  0  0  0  0  0  0
    6.1595   -6.6811    1.9089 N   0  0  1  0  0  0  0  0  0  0  0  0
    5.4718   -6.4315    3.2097 C   0  0  0  0  0  0  0  0  0  0  0  0
    4.7927   -5.0486    3.2843 C   0  0  0  0  0  0  0  0  0  0  0  0
    5.7058   -4.0270    2.9010 O   0  0  0  0  0  0  0  0  0  0  0  0
    5.4161   -3.2276    1.7904 C   0  0  1  0  0  0  0  0  0  0  0  0
    6.0686   -2.0512    1.9856 O   0  0  0  0  0  0  0  0  0  0  0  0
    5.9840   -1.2195    0.9161 C   0  0  2  0  0  0  0  0  0  0  0  0
    4.4793   -1.0578    0.3816 C   0  0  0  0  0  0  0  0  0  0  0  0
    3.6445   -2.1968   -0.3855 C   0  0  2  0  0  0  0  0  0  0  0  0
    3.3949   -3.5992    0.0166 O   0  0  0  0  0  0  0  0  0  0  0  0
    4.3702   -4.5989    0.1296 C   0  0  0  0  0  0  0  0  0  0  0  0
    4.1690   -5.8122    0.1480 O   0  0  0  0  0  0  0  0  0  0  0  0
    5.7350   -3.9904    0.3720 C   0  0  1  0  0  0  0  0  0  0  0  0
    5.9721   -3.5066   -1.1279 C   0  0  0  0  0  0  0  0  0  0  0  0
    5.2860   -2.8028   -2.0511 C   0  0  0  0  0  0  0  0  0  0  0  0
    3.9555   -2.1558   -1.8709 C   0  0  1  0  0  0  0  0  0  0  0  0
    2.8736   -2.7875   -2.7630 C   0  0  0  0  0  0  0  0  0  0  0  0
    7.1191   -4.6850    0.6274 C   0  0  1  0  0  0  0  0  0  0  0  0
    8.2029   -3.5679    0.6675 C   0  0  0  0  0  0  0  0  0  0  0  0
    8.1277   -2.2257    0.3719 C   0  0  0  0  0  0  0  0  0  0  0  0
    7.0208   -1.4529   -0.0091 O   0  0  0  0  0  0  0  0  0  0  0  0
    7.3322   -5.7757    1.7246 C   0  0  0  0  0  0  0  0  0  0  0  0
    5.5215  -10.0088    1.1960 H   0  0  0  0  0  0  0  0  0  0  0  0
    4.8128   -8.6244    0.3703 H   0  0  0  0  0  0  0  0  0  0  0  0
    4.4593   -8.9297    2.0733 H   0  0  0  0  0  0  0  0  0  0  0  0
    6.9647   -8.5392    2.5847 H   0  0  0  0  0  0  0  0  0  0  0  0
    7.1966   -8.2338    0.8833 H   0  0  0  0  0  0  0  0  0  0  0  0
    4.6913   -7.1712    3.3779 H   0  0  0  0  0  0  0  0  0  0  0  0
    6.1738   -6.5602    4.0348 H   0  0  0  0  0  0  0  0  0  0  0  0
    3.8553   -5.0283    2.7270 H   0  0  0  0  0  0  0  0  0  0  0  0
    4.5173   -4.8614    4.3219 H   0  0  0  0  0  0  0  0  0  0  0  0
    4.3771   -2.9631    1.9970 H   0  0  0  0  0  0  0  0  0  0  0  0
    6.2691   -0.2600    1.3422 H   0  0  0  0  0  0  0  0  0  0  0  0
    3.8925   -0.7769    1.2567 H   0  0  0  0  0  0  0  0  0  0  0  0
    4.4727   -0.1530   -0.2267 H   0  0  0  0  0  0  0  0  0  0  0  0
    2.6359   -1.7928   -0.3274 H   0  0  0  0  0  0  0  0  0  0  0  0
    6.9011   -3.8301   -1.5715 H   0  0  0  0  0  0  0  0  0  0  0  0
    5.7290   -2.6741   -3.0277 H   0  0  0  0  0  0  0  0  0  0  0  0
    4.0603   -1.1177   -2.1926 H   0  0  0  0  0  0  0  0  0  0  0  0
    3.1228   -2.6871   -3.8207 H   0  0  0  0  0  0  0  0  0  0  0  0
    1.9074   -2.3018   -2.6075 H   0  0  0  0  0  0  0  0  0  0  0  0
    2.7408   -3.8494   -2.5541 H   0  0  0  0  0  0  0  0  0  0  0  0
    7.3592   -5.2815   -0.2434 H   0  0  0  0  0  0  0  0  0  0  0  0
    9.1793   -3.9266    0.9592 H   0  0  0  0  0  0  0  0  0  0  0  0
    9.0056   -1.5994    0.4462 H   0  0  0  0  0  0  0  0  0  0  0  0
    7.6441   -5.3349    2.6715 H   0  0  0  0  0  0  0  0  0  0  0  0
    8.2167   -6.3564    1.4543 H   0  0  0  0  0  0  0  0  0  0  0  0
    5.4971   -6.4422    1.1773 H   0  0  0  0  0  0  0  0  0  0  0  0
  1  2  1  0
  1 25  1  0
  1 26  1  0
  1 27  1  0
  2  3  1  0
  2 28  1  0
  2 29  1  0
  3 24  1  0
  3  4  1  0
  3 50  1  6
  4  5  1  0
  4 30  1  0
  4 31  1  0
  5  6  1  0
  5 32  1  0
  5 33  1  0
  6  7  1  0
  7 15  1  0
  7  8  1  0
  7 34  1  6
  8  9  1  0
  9 23  1  0
  9 10  1  0
  9 35  1  1
 10 11  1  0
 10 36  1  0
 10 37  1  0
 11 18  1  0
 11 12  1  0
 11 38  1  6
 12 13  1  0
 13 14  2  0
 13 15  1  0
 15 16  1  6
 15 20  1  0
 16 17  2  0
 16 39  1  0
 17 18  1  0
 17 40  1  0
 18 19  1  0
 18 41  1  6
 19 42  1  0
 19 43  1  0
 19 44  1  0
 20 21  1  0
 20 24  1  0
 20 45  1  6
 21 22  2  3
 21 46  1  0
 22 23  1  0
 22 47  1  0
 24 48  1  0
 24 49  1  0
M  CHG  1   3   1
M  END
>  <i_m_ct_stereo_status>  (320) 
1

>  <s_m_source_file>  (320) 
/var/tmp/pbs.5076255.sched01/tmpnby3vxlc/96d7dj3887.sdf

>  <i_m_source_file_index>  (320) 
38

>  <i_lp_mmshare_version>  (320) 
48012

>  <i_f3d_flags>  (320) 
0

>  <s_epik_input>  (320) 
W0NAXTEyM1tDQEhdNE9bQ0gyXVtDSDJdTihbQ0gyXVtDSDNdKVtDSDJdW0NAQEhdMy9bQ0hdPVtDSF1cT1tDQEhdKE80KVtDSDJdW0NASF0oT0MxPU8pW0NASF0oW0NIM10pW0NIXT1bQ0hdMg==

>  <s_epik_cmdline>  (320) 
J2VwaWtfcHl0aG9uJywgJy1waHQnLCAnMi4wJywgJy1waCcsICc3LjAnLCAnLXRuJywgJzgnLCAnLW1hJywgJzIwMCcsICctaW1hZScsICc8aW5maWxlLm1hZT4nLCAnLW9tYWUnLCAnPG91dGZpbGUubWFlPic=

>  <r_epik_Ionization_Penalty>  (320) 
0.29029

>  <r_epik_Ionization_Penalty_Charging>  (320) 
0.29029

>  <r_epik_Ionization_Penalty_Neutral>  (320) 
3.94675e-16

>  <r_epik_State_Penalty>  (320) 
0.283298

>  <r_epik_Charging_Adjusted_Penalty>  (320) 
0.573587

>  <i_epik_Tot_Q>  (320) 
1

>  <i_epik_Tot_abs_Q>  (320) 
1

>  <s_epik_Chemistry_Notes>  (320) 
This compound has an ester and may undergo hydrolysis at high or low pH. This compound contains an acetal/aminal-like group ( X-CH(R)-Y where X, Y are N, S, or O) that may be acid/base labile, releasing an aldehyde.

>  <s_lp_Force_Field>  (320) 
OPLS3e

>  <r_lp_Energy>  (320) 
153.193

>  <b_lp_Chiralities_Consistent>  (320) 
1

>  <s_lp_Variant>  (320) 
77:0-1

>  <s_i_glide_gridfile>  (320) 
pfpi4k_grid

>  <i_i_glide_lignum>  (320) 
38

>  <i_i_glide_rotatable_bonds>  (320) 
1

>  <r_i_docking_score>  (320) 
-4.66292

>  <r_i_glide_ligand_efficiency>  (320) 
-0.194288

>  <r_i_glide_ligand_efficiency_sa>  (320) 
-0.560424

>  <r_i_glide_ligand_efficiency_ln>  (320) 
-1.11605

>  <r_i_glide_gscore>  (320) 
-4.66292

>  <r_i_glide_lipo>  (320) 
-0.932333

>  <r_i_glide_hbond>  (320) 
-0.10537

>  <r_i_glide_metal>  (320) 
-0

>  <r_i_glide_rewards>  (320) 
-1.88602

>  <r_i_glide_evdw>  (320) 
-26.5696

>  <r_i_glide_ecoul>  (320) 
-2.73816

>  <r_i_glide_erotb>  (320) 
0

>  <r_i_glide_esite>  (320) 
0

>  <r_i_glide_emodel>  (320) 
-42.9403

>  <r_i_glide_energy>  (320) 
-29.3077

>  <r_i_glide_einternal>  (320) 
0.498453

>  <r_i_glide_intrahb_reward>  (320) 
-0.5

>  <i_i_glide_confnum>  (320) 
1

>  <i_i_glide_posenum>  (320) 
5

>  <r_i_glide_eff_state_penalty>  (320) 
0

>  <ligand_id>  (320) 
77

>  <original_smiles>  (320) 
CCN1CCOC2OC3CC4OC(=O)C2(C=CC4C)C(C=CO3)C1

>  <smiles>  (320) 
[H]C1=C([H])C2([H])C34C(=O)OC([H])(C([H])([H])C([H])(O1)OC3([H])OC([H])([H])C([H])([H])[N+]([H])(C([H])([H])C([H])([H])[H])C2([H])[H])C([H])(C([H])([H])[H])C([H])=C4[H]

$$$$
77:0:1
     RDKit          3D

 50 53  0  0  1  0  0  0  0  0999 V2000
    5.0073   -8.5735    1.4730 C   0  0  0  0  0  0  0  0  0  0  0  0
    4.7772   -7.8559    2.8176 C   0  0  0  0  0  0  0  0  0  0  0  0
    4.8422   -6.3726    2.7005 N   0  0  1  0  0  0  0  0  0  0  0  0
    4.2599   -5.6849    3.8882 C   0  0  0  0  0  0  0  0  0  0  0  0
    3.9596   -4.1895    3.6449 C   0  0  0  0  0  0  0  0  0  0  0  0
    5.0988   -3.5346    3.0946 O   0  0  0  0  0  0  0  0  0  0  0  0
    5.0017   -2.9557    1.8236 C   0  0  1  0  0  0  0  0  0  0  0  0
    5.9399   -1.9693    1.7776 O   0  0  0  0  0  0  0  0  0  0  0  0
    6.0480   -1.3974    0.5503 C   0  0  2  0  0  0  0  0  0  0  0  0
    4.6208   -0.9838   -0.0624 C   0  0  0  0  0  0  0  0  0  0  0  0
    3.5089   -2.0165   -0.5954 C   0  0  2  0  0  0  0  0  0  0  0  0
    2.9109   -3.1822    0.0928 O   0  0  0  0  0  0  0  0  0  0  0  0
    3.5929   -4.3487    0.4564 C   0  0  0  0  0  0  0  0  0  0  0  0
    3.0796   -5.4344    0.7142 O   0  0  0  0  0  0  0  0  0  0  0  0
    5.0750   -4.0686    0.6190 C   0  0  1  0  0  0  0  0  0  0  0  0
    5.3963   -3.9964   -0.9324 C   0  0  0  0  0  0  0  0  0  0  0  0
    4.9044   -3.3659   -2.0200 C   0  0  0  0  0  0  0  0  0  0  0  0
    3.7887   -2.3854   -2.0420 C   0  0  1  0  0  0  0  0  0  0  0  0
    2.5735   -2.9182   -2.8138 C   0  0  0  0  0  0  0  0  0  0  0  0
    6.2485   -5.0258    1.0497 C   0  0  1  0  0  0  0  0  0  0  0  0
    7.5838   -4.2287    0.8942 C   0  0  0  0  0  0  0  0  0  0  0  0
    7.8495   -3.0060    0.3204 C   0  0  0  0  0  0  0  0  0  0  0  0
    6.9711   -2.0805   -0.2646 O   0  0  0  0  0  0  0  0  0  0  0  0
    6.2025   -5.8542    2.3690 C   0  0  0  0  0  0  0  0  0  0  0  0
    4.8637   -9.6509    1.5884 H   0  0  0  0  0  0  0  0  0  0  0  0
    6.0215   -8.4270    1.0949 H   0  0  0  0  0  0  0  0  0  0  0  0
    4.3041   -8.2326    0.7082 H   0  0  0  0  0  0  0  0  0  0  0  0
    3.7867   -8.1485    3.1719 H   0  0  0  0  0  0  0  0  0  0  0  0
    5.4843   -8.2177    3.5666 H   0  0  0  0  0  0  0  0  0  0  0  0
    3.3172   -6.1584    4.1649 H   0  0  0  0  0  0  0  0  0  0  0  0
    4.9148   -5.8053    4.7534 H   0  0  0  0  0  0  0  0  0  0  0  0
    3.0491   -4.0497    3.0590 H   0  0  0  0  0  0  0  0  0  0  0  0
    3.7552   -3.7161    4.6058 H   0  0  0  0  0  0  0  0  0  0  0  0
    4.0686   -2.3981    1.9256 H   0  0  0  0  0  0  0  0  0  0  0  0
    6.5787   -0.4698    0.7637 H   0  0  0  0  0  0  0  0  0  0  0  0
    4.1387   -0.3809    0.7073 H   0  0  0  0  0  0  0  0  0  0  0  0
    4.8266   -0.2610   -0.8534 H   0  0  0  0  0  0  0  0  0  0  0  0
    2.6465   -1.3628   -0.6620 H   0  0  0  0  0  0  0  0  0  0  0  0
    6.2010   -4.6278   -1.2406 H   0  0  0  0  0  0  0  0  0  0  0  0
    5.3478   -3.5743   -2.9806 H   0  0  0  0  0  0  0  0  0  0  0  0
    4.1441   -1.5045   -2.5794 H   0  0  0  0  0  0  0  0  0  0  0  0
    2.8106   -3.1080   -3.8610 H   0  0  0  0  0  0  0  0  0  0  0  0
    1.7770   -2.1812   -2.7929 H   0  0  0  0  0  0  0  0  0  0  0  0
    2.1720   -3.8396   -2.3884 H   0  0  0  0  0  0  0  0  0  0  0  0
    6.3079   -5.8492    0.3348 H   0  0  0  0  0  0  0  0  0  0  0  0
    8.4403   -4.7546    1.2899 H   0  0  0  0  0  0  0  0  0  0  0  0
    8.8567   -2.6196    0.2907 H   0  0  0  0  0  0  0  0  0  0  0  0
    6.6298   -5.3038    3.2072 H   0  0  0  0  0  0  0  0  0  0  0  0
    6.9008   -6.6859    2.2738 H   0  0  0  0  0  0  0  0  0  0  0  0
    4.2372   -6.1376    1.9191 H   0  0  0  0  0  0  0  0  0  0  0  0
  1  2  1  0
  1 25  1  0
  1 26  1  0
  1 27  1  0
  2  3  1  0
  2 28  1  0
  2 29  1  0
  3 24  1  0
  3  4  1  0
  3 50  1  6
  4  5  1  0
  4 30  1  0
  4 31  1  0
  5  6  1  0
  5 32  1  0
  5 33  1  0
  6  7  1  0
  7 15  1  0
  7  8  1  0
  7 34  1  1
  8  9  1  0
  9 23  1  0
  9 10  1  0
  9 35  1  1
 10 11  1  0
 10 36  1  0
 10 37  1  0
 11 18  1  0
 11 12  1  0
 11 38  1  6
 12 13  1  0
 13 14  2  0
 13 15  1  0
 15 16  1  6
 15 20  1  0
 16 17  2  0
 16 39  1  0
 17 18  1  0
 17 40  1  0
 18 19  1  0
 18 41  1  6
 19 42  1  0
 19 43  1  0
 19 44  1  0
 20 21  1  0
 20 24  1  0
 20 45  1  6
 21 22  2  3
 21 46  1  0
 22 23  1  0
 22 47  1  0
 24 48  1  0
 24 49  1  0
M  CHG  1   3   1
M  END
>  <i_m_ct_stereo_status>  (321) 
1

>  <s_m_source_file>  (321) 
/var/tmp/pbs.5076255.sched01/tmpnby3vxlc/96d7dj3887.sdf

>  <i_m_source_file_index>  (321) 
38

>  <i_lp_mmshare_version>  (321) 
48012

>  <i_f3d_flags>  (321) 
0

>  <s_epik_input>  (321) 
W0NAXTEyM1tDQEhdNE9bQ0gyXVtDSDJdTihbQ0gyXVtDSDNdKVtDSDJdW0NAQEhdMy9bQ0hdPVtDSF1cT1tDQEhdKE80KVtDSDJdW0NASF0oT0MxPU8pW0NASF0oW0NIM10pW0NIXT1bQ0hdMg==

>  <s_epik_cmdline>  (321) 
J2VwaWtfcHl0aG9uJywgJy1waHQnLCAnMi4wJywgJy1waCcsICc3LjAnLCAnLXRuJywgJzgnLCAnLW1hJywgJzIwMCcsICctaW1hZScsICc8aW5maWxlLm1hZT4nLCAnLW9tYWUnLCAnPG91dGZpbGUubWFlPic=

>  <r_epik_Ionization_Penalty>  (321) 
0.29029

>  <r_epik_Ionization_Penalty_Charging>  (321) 
0.29029

>  <r_epik_Ionization_Penalty_Neutral>  (321) 
3.94675e-16

>  <r_epik_State_Penalty>  (321) 
0.283298

>  <r_epik_Charging_Adjusted_Penalty>  (321) 
0.573587

>  <i_epik_Tot_Q>  (321) 
1

>  <i_epik_Tot_abs_Q>  (321) 
1

>  <s_epik_Chemistry_Notes>  (321) 
This compound has an ester and may undergo hydrolysis at high or low pH. This compound contains an acetal/aminal-like group ( X-CH(R)-Y where X, Y are N, S, or O) that may be acid/base labile, releasing an aldehyde.

>  <s_lp_Force_Field>  (321) 
OPLS3e

>  <r_lp_Energy>  (321) 
153.193

>  <b_lp_Chiralities_Consistent>  (321) 
1

>  <s_lp_Variant>  (321) 
77:0-1

>  <s_i_glide_gridfile>  (321) 
pfpi4k_grid

>  <i_i_glide_lignum>  (321) 
38

>  <i_i_glide_rotatable_bonds>  (321) 
1

>  <r_i_docking_score>  (321) 
-4.35893

>  <r_i_glide_ligand_efficiency>  (321) 
-0.181622

>  <r_i_glide_ligand_efficiency_sa>  (321) 
-0.523889

>  <r_i_glide_ligand_efficiency_ln>  (321) 
-1.04329

>  <r_i_glide_gscore>  (321) 
-4.35893

>  <r_i_glide_lipo>  (321) 
-0.665406

>  <r_i_glide_hbond>  (321) 
-0.098178

>  <r_i_glide_metal>  (321) 
-0

>  <r_i_glide_rewards>  (321) 
-1.8329

>  <r_i_glide_evdw>  (321) 
-25.7262

>  <r_i_glide_ecoul>  (321) 
-3.1601

>  <r_i_glide_erotb>  (321) 
0

>  <r_i_glide_esite>  (321) 
-0.00212027

>  <r_i_glide_emodel>  (321) 
-42.197

>  <r_i_glide_energy>  (321) 
-28.8863

>  <r_i_glide_einternal>  (321) 
2.80154e-05

>  <r_i_glide_intrahb_reward>  (321) 
-0.5

>  <i_i_glide_confnum>  (321) 
2

>  <i_i_glide_posenum>  (321) 
32

>  <r_i_glide_eff_state_penalty>  (321) 
0

>  <ligand_id>  (321) 
77

>  <original_smiles>  (321) 
CCN1CCOC2OC3CC4OC(=O)C2(C=CC4C)C(C=CO3)C1

>  <smiles>  (321) 
[H]C1=C([H])C2([H])C34C(=O)OC([H])(C([H])([H])C([H])(O1)OC3([H])OC([H])([H])C([H])([H])[N+]([H])(C([H])([H])C([H])([H])[H])C2([H])[H])C([H])(C([H])([H])[H])C([H])=C4[H]

$$$$
77:0:2
     RDKit          3D

 50 53  0  0  1  0  0  0  0  0999 V2000
    4.5005   -9.1206    2.4981 C   0  0  0  0  0  0  0  0  0  0  0  0
    3.9519   -8.1018    1.4826 C   0  0  0  0  0  0  0  0  0  0  0  0
    4.2757   -6.6798    1.7906 N   0  0  1  0  0  0  0  0  0  0  0  0
    3.7026   -6.2142    3.0835 C   0  0  0  0  0  0  0  0  0  0  0  0
    3.6668   -4.6774    3.2197 C   0  0  0  0  0  0  0  0  0  0  0  0
    4.9353   -4.1196    2.8939 O   0  0  0  0  0  0  0  0  0  0  0  0
    5.0331   -3.2308    1.8180 C   0  0  1  0  0  0  0  0  0  0  0  0
    6.1087   -2.4391    2.0707 O   0  0  0  0  0  0  0  0  0  0  0  0
    6.4030   -1.6053    1.0414 C   0  0  2  0  0  0  0  0  0  0  0  0
    5.1166   -0.8055    0.5145 C   0  0  0  0  0  0  0  0  0  0  0  0
    3.9068   -1.4603   -0.3161 C   0  0  2  0  0  0  0  0  0  0  0  0
    3.0868   -2.6436    0.0217 O   0  0  0  0  0  0  0  0  0  0  0  0
    3.5381   -3.9655    0.0994 C   0  0  0  0  0  0  0  0  0  0  0  0
    2.8273   -4.9688    0.1138 O   0  0  0  0  0  0  0  0  0  0  0  0
    5.0314   -3.9987    0.3646 C   0  0  1  0  0  0  0  0  0  0  0  0
    5.4839   -3.5979   -1.1089 C   0  0  0  0  0  0  0  0  0  0  0  0
    5.1822   -2.6277   -1.9982 C   0  0  0  0  0  0  0  0  0  0  0  0
    4.2423   -1.4915   -1.7949 C   0  0  1  0  0  0  0  0  0  0  0  0
    3.0230   -1.5811   -2.7256 C   0  0  0  0  0  0  0  0  0  0  0  0
    5.9942   -5.2164    0.5842 C   0  0  1  0  0  0  0  0  0  0  0  0
    7.4451   -4.6518    0.7012 C   0  0  0  0  0  0  0  0  0  0  0  0
    7.9452   -3.3891    0.4743 C   0  0  0  0  0  0  0  0  0  0  0  0
    7.2711   -2.2131    0.1131 O   0  0  0  0  0  0  0  0  0  0  0  0
    5.7167   -6.3350    1.6358 C   0  0  0  0  0  0  0  0  0  0  0  0
    4.2687  -10.1374    2.1772 H   0  0  0  0  0  0  0  0  0  0  0  0
    4.0576   -8.9913    3.4873 H   0  0  0  0  0  0  0  0  0  0  0  0
    5.5843   -9.0581    2.6012 H   0  0  0  0  0  0  0  0  0  0  0  0
    4.3214   -8.3442    0.4856 H   0  0  0  0  0  0  0  0  0  0  0  0
    2.8686   -8.2123    1.4230 H   0  0  0  0  0  0  0  0  0  0  0  0
    2.6807   -6.5818    3.1780 H   0  0  0  0  0  0  0  0  0  0  0  0
    4.2535   -6.6502    3.9169 H   0  0  0  0  0  0  0  0  0  0  0  0
    2.8408   -4.2401    2.6604 H   0  0  0  0  0  0  0  0  0  0  0  0
    3.4646   -4.4340    4.2616 H   0  0  0  0  0  0  0  0  0  0  0  0
    4.1964   -2.5646    2.0345 H   0  0  0  0  0  0  0  0  0  0  0  0
    7.0565   -0.8709    1.5088 H   0  0  0  0  0  0  0  0  0  0  0  0
    4.6784   -0.3442    1.4009 H   0  0  0  0  0  0  0  0  0  0  0  0
    5.5046    0.0477   -0.0402 H   0  0  0  0  0  0  0  0  0  0  0  0
    3.1526   -0.6763   -0.2462 H   0  0  0  0  0  0  0  0  0  0  0  0
    6.2031   -4.2539   -1.5641 H   0  0  0  0  0  0  0  0  0  0  0  0
    5.6661   -2.6529   -2.9631 H   0  0  0  0  0  0  0  0  0  0  0  0
    4.7760   -0.5787   -2.0624 H   0  0  0  0  0  0  0  0  0  0  0  0
    3.3187   -1.5432   -3.7755 H   0  0  0  0  0  0  0  0  0  0  0  0
    2.3577   -0.7388   -2.5488 H   0  0  0  0  0  0  0  0  0  0  0  0
    2.4483   -2.4951   -2.5703 H   0  0  0  0  0  0  0  0  0  0  0  0
    5.9799   -5.8245   -0.3204 H   0  0  0  0  0  0  0  0  0  0  0  0
    8.1786   -5.3983    0.9685 H   0  0  0  0  0  0  0  0  0  0  0  0
    8.9994   -3.1833    0.5803 H   0  0  0  0  0  0  0  0  0  0  0  0
    6.1688   -6.1049    2.6009 H   0  0  0  0  0  0  0  0  0  0  0  0
    6.2708   -7.2200    1.3250 H   0  0  0  0  0  0  0  0  0  0  0  0
    3.7935   -6.1529    1.0719 H   0  0  0  0  0  0  0  0  0  0  0  0
  1  2  1  0
  1 25  1  0
  1 26  1  0
  1 27  1  0
  2  3  1  0
  2 28  1  0
  2 29  1  0
  3 24  1  0
  3  4  1  0
  3 50  1  6
  4  5  1  0
  4 30  1  0
  4 31  1  0
  5  6  1  0
  5 32  1  0
  5 33  1  0
  6  7  1  0
  7 15  1  0
  7  8  1  0
  7 34  1  6
  8  9  1  0
  9 23  1  0
  9 10  1  0
  9 35  1  1
 10 11  1  0
 10 36  1  0
 10 37  1  0
 11 18  1  0
 11 12  1  0
 11 38  1  6
 12 13  1  0
 13 14  2  0
 13 15  1  0
 15 16  1  6
 15 20  1  0
 16 17  2  0
 16 39  1  0
 17 18  1  0
 17 40  1  0
 18 19  1  0
 18 41  1  6
 19 42  1  0
 19 43  1  0
 19 44  1  0
 20 21  1  0
 20 24  1  0
 20 45  1  6
 21 22  2  3
 21 46  1  0
 22 23  1  0
 22 47  1  0
 24 48  1  0
 24 49  1  0
M  CHG  1   3   1
M  END
>  <i_m_ct_stereo_status>  (322) 
1

>  <s_m_source_file>  (322) 
/var/tmp/pbs.5076255.sched01/tmpnby3vxlc/96d7dj3887.sdf

>  <i_m_source_file_index>  (322) 
38

>  <i_lp_mmshare_version>  (322) 
48012

>  <i_f3d_flags>  (322) 
0

>  <s_epik_input>  (322) 
W0NAXTEyM1tDQEhdNE9bQ0gyXVtDSDJdTihbQ0gyXVtDSDNdKVtDSDJdW0NAQEhdMy9bQ0hdPVtDSF1cT1tDQEhdKE80KVtDSDJdW0NASF0oT0MxPU8pW0NASF0oW0NIM10pW0NIXT1bQ0hdMg==

>  <s_epik_cmdline>  (322) 
J2VwaWtfcHl0aG9uJywgJy1waHQnLCAnMi4wJywgJy1waCcsICc3LjAnLCAnLXRuJywgJzgnLCAnLW1hJywgJzIwMCcsICctaW1hZScsICc8aW5maWxlLm1hZT4nLCAnLW9tYWUnLCAnPG91dGZpbGUubWFlPic=

>  <r_epik_Ionization_Penalty>  (322) 
0.29029

>  <r_epik_Ionization_Penalty_Charging>  (322) 
0.29029

>  <r_epik_Ionization_Penalty_Neutral>  (322) 
3.94675e-16

>  <r_epik_State_Penalty>  (322) 
0.283298

>  <r_epik_Charging_Adjusted_Penalty>  (322) 
0.573587

>  <i_epik_Tot_Q>  (322) 
1

>  <i_epik_Tot_abs_Q>  (322) 
1

>  <s_epik_Chemistry_Notes>  (322) 
This compound has an ester and may undergo hydrolysis at high or low pH. This compound contains an acetal/aminal-like group ( X-CH(R)-Y where X, Y are N, S, or O) that may be acid/base labile, releasing an aldehyde.

>  <s_lp_Force_Field>  (322) 
OPLS3e

>  <r_lp_Energy>  (322) 
153.193

>  <b_lp_Chiralities_Consistent>  (322) 
1

>  <s_lp_Variant>  (322) 
77:0-1

>  <s_i_glide_gridfile>  (322) 
pfpi4k_grid

>  <i_i_glide_lignum>  (322) 
38

>  <i_i_glide_rotatable_bonds>  (322) 
1

>  <r_i_docking_score>  (322) 
-4.35579

>  <r_i_glide_ligand_efficiency>  (322) 
-0.181491

>  <r_i_glide_ligand_efficiency_sa>  (322) 
-0.523511

>  <r_i_glide_ligand_efficiency_ln>  (322) 
-1.04254

>  <r_i_glide_gscore>  (322) 
-4.35579

>  <r_i_glide_lipo>  (322) 
-0.830247

>  <r_i_glide_hbond>  (322) 
0

>  <r_i_glide_metal>  (322) 
-0

>  <r_i_glide_rewards>  (322) 
-1.80592

>  <r_i_glide_evdw>  (322) 
-27.3977

>  <r_i_glide_ecoul>  (322) 
-2.28075

>  <r_i_glide_erotb>  (322) 
0

>  <r_i_glide_esite>  (322) 
-0.00761937

>  <r_i_glide_emodel>  (322) 
-42.7143

>  <r_i_glide_energy>  (322) 
-29.6785

>  <r_i_glide_einternal>  (322) 
0.54539

>  <r_i_glide_intrahb_reward>  (322) 
-0.5

>  <i_i_glide_confnum>  (322) 
2

>  <i_i_glide_posenum>  (322) 
23

>  <r_i_glide_eff_state_penalty>  (322) 
0

>  <ligand_id>  (322) 
77

>  <original_smiles>  (322) 
CCN1CCOC2OC3CC4OC(=O)C2(C=CC4C)C(C=CO3)C1

>  <smiles>  (322) 
[H]C1=C([H])C2([H])C34C(=O)OC([H])(C([H])([H])C([H])(O1)OC3([H])OC([H])([H])C([H])([H])[N+]([H])(C([H])([H])C([H])([H])[H])C2([H])[H])C([H])(C([H])([H])[H])C([H])=C4[H]

$$$$
77:1:0
     RDKit          3D

 50 53  0  0  1  0  0  0  0  0999 V2000
    2.0648   -0.2469    2.4153 C   0  0  0  0  0  0  0  0  0  0  0  0
    3.0627   -0.5858    1.2883 C   0  0  0  0  0  0  0  0  0  0  0  0
    3.3782   -2.0375    1.1891 N   0  0  1  0  0  0  0  0  0  0  0  0
    3.8431   -2.4352   -0.1646 C   0  0  0  0  0  0  0  0  0  0  0  0
    3.1539   -3.7335   -0.6132 C   0  0  0  0  0  0  0  0  0  0  0  0
    2.4640   -4.3228    0.4865 O   0  0  0  0  0  0  0  0  0  0  0  0
    2.9797   -5.4534    1.1263 C   0  0  1  0  0  0  0  0  0  0  0  0
    3.8135   -6.2505    0.3220 O   0  0  0  0  0  0  0  0  0  0  0  0
    4.4671   -7.3588    0.8842 C   0  0  2  0  0  0  0  0  0  0  0  0
    3.5323   -8.4114    1.6718 C   0  0  0  0  0  0  0  0  0  0  0  0
    2.8368   -7.8646    2.9607 C   0  0  2  0  0  0  0  0  0  0  0  0
    3.7615   -7.3219    3.8319 O   0  0  0  0  0  0  0  0  0  0  0  0
    4.0215   -6.0236    3.8175 C   0  0  0  0  0  0  0  0  0  0  0  0
    4.6361   -5.5463    4.7723 O   0  0  0  0  0  0  0  0  0  0  0  0
    3.4461   -5.0842    2.6513 C   0  0  2  0  0  0  0  0  0  0  0  0
    2.0767   -4.8473    3.2996 C   0  0  0  0  0  0  0  0  0  0  0  0
    1.1901   -5.8684    3.5584 C   0  0  0  0  0  0  0  0  0  0  0  0
    1.3807   -7.4251    3.3614 C   0  0  1  0  0  0  0  0  0  0  0  0
    0.2969   -8.0123    2.4406 C   0  0  0  0  0  0  0  0  0  0  0  0
    4.6000   -4.0030    2.4378 C   0  0  1  0  0  0  0  0  0  0  0  0
    5.6463   -4.6580    1.5047 C   0  0  0  0  0  0  0  0  0  0  0  0
    6.2131   -5.8411    1.8505 C   0  0  0  0  0  0  0  0  0  0  0  0
    5.7427   -7.0989    1.4642 O   0  0  0  0  0  0  0  0  0  0  0  0
    4.2797   -2.4870    2.2916 C   0  0  0  0  0  0  0  0  0  0  0  0
    1.8868    0.8293    2.4443 H   0  0  0  0  0  0  0  0  0  0  0  0
    2.4264   -0.5298    3.4054 H   0  0  0  0  0  0  0  0  0  0  0  0
    1.0983   -0.7298    2.2494 H   0  0  0  0  0  0  0  0  0  0  0  0
    2.6096   -0.2552    0.3568 H   0  0  0  0  0  0  0  0  0  0  0  0
    3.9749    0.0056    1.3983 H   0  0  0  0  0  0  0  0  0  0  0  0
    3.6003   -1.6779   -0.9136 H   0  0  0  0  0  0  0  0  0  0  0  0
    4.9287   -2.5198   -0.2034 H   0  0  0  0  0  0  0  0  0  0  0  0
    2.3857   -3.4808   -1.3453 H   0  0  0  0  0  0  0  0  0  0  0  0
    3.8423   -4.3984   -1.1351 H   0  0  0  0  0  0  0  0  0  0  0  0
    2.0128   -5.9459    1.0492 H   0  0  0  0  0  0  0  0  0  0  0  0
    4.7714   -7.8810   -0.0203 H   0  0  0  0  0  0  0  0  0  0  0  0
    2.7965   -8.8180    0.9772 H   0  0  0  0  0  0  0  0  0  0  0  0
    4.1684   -9.2541    1.9465 H   0  0  0  0  0  0  0  0  0  0  0  0
    2.5790   -7.1984    2.2417 H   0  0  0  0  0  0  0  0  0  0  0  0
    1.8035   -3.8251    3.5171 H   0  0  0  0  0  0  0  0  0  0  0  0
    0.2409   -5.5945    3.9921 H   0  0  0  0  0  0  0  0  0  0  0  0
    1.2026   -7.8468    4.3509 H   0  0  0  0  0  0  0  0  0  0  0  0
   -0.7020   -7.8442    2.8454 H   0  0  0  0  0  0  0  0  0  0  0  0
    0.4247   -9.0905    2.3341 H   0  0  0  0  0  0  0  0  0  0  0  0
    0.3297   -7.5824    1.4392 H   0  0  0  0  0  0  0  0  0  0  0  0
    5.2009   -3.8982    3.3369 H   0  0  0  0  0  0  0  0  0  0  0  0
    5.3696   -4.5789    0.4714 H   0  0  0  0  0  0  0  0  0  0  0  0
    6.4698   -5.9760    2.8913 H   0  0  0  0  0  0  0  0  0  0  0  0
    5.2214   -1.9409    2.2038 H   0  0  0  0  0  0  0  0  0  0  0  0
    3.8544   -2.1659    3.2418 H   0  0  0  0  0  0  0  0  0  0  0  0
    2.5007   -2.5289    1.3026 H   0  0  0  0  0  0  0  0  0  0  0  0
  1  2  1  0
  1 25  1  0
  1 26  1  0
  1 27  1  0
  2  3  1  0
  2 28  1  0
  2 29  1  0
  3 24  1  0
  3  4  1  0
  3 50  1  1
  4  5  1  0
  4 30  1  0
  4 31  1  0
  5  6  1  0
  5 32  1  0
  5 33  1  0
  6  7  1  0
  7 15  1  0
  7  8  1  0
  7 34  1  1
  8  9  1  0
  9 23  1  0
  9 10  1  0
  9 35  1  6
 10 11  1  0
 10 36  1  0
 10 37  1  0
 11 18  1  0
 11 12  1  0
 11 38  1  1
 12 13  1  0
 13 14  2  0
 13 15  1  0
 15 16  1  1
 15 20  1  0
 16 17  2  0
 16 39  1  0
 17 18  1  0
 17 40  1  0
 18 19  1  0
 18 41  1  1
 19 42  1  0
 19 43  1  0
 19 44  1  0
 20 21  1  0
 20 24  1  0
 20 45  1  1
 21 22  2  3
 21 46  1  0
 22 23  1  0
 22 47  1  0
 24 48  1  0
 24 49  1  0
M  CHG  1   3   1
M  END
>  <i_m_ct_stereo_status>  (323) 
1

>  <s_m_source_file>  (323) 
/var/tmp/pbs.5076255.sched01/tmpnby3vxlc/96d7dj3887.sdf

>  <i_m_source_file_index>  (323) 
39

>  <i_lp_mmshare_version>  (323) 
48012

>  <i_f3d_flags>  (323) 
2

>  <s_epik_input>  (323) 
W0NAXTEyM1tDQEhdNE9bQ0gyXVtDSDJdTihbQ0gyXVtDSDNdKVtDSDJdW0NAQEhdMy9bQ0hdPVtDSF1cT1tDQEhdKE80KVtDSDJdW0NASF0oT0MxPU8pW0NASF0oW0NIM10pW0NIXT1bQ0hdMg==

>  <s_epik_cmdline>  (323) 
J2VwaWtfcHl0aG9uJywgJy1waHQnLCAnMi4wJywgJy1waCcsICc3LjAnLCAnLXRuJywgJzgnLCAnLW1hJywgJzIwMCcsICctaW1hZScsICc8aW5maWxlLm1hZT4nLCAnLW9tYWUnLCAnPG91dGZpbGUubWFlPic=

>  <r_epik_Ionization_Penalty>  (323) 
0.29029

>  <r_epik_Ionization_Penalty_Charging>  (323) 
0.29029

>  <r_epik_Ionization_Penalty_Neutral>  (323) 
3.94675e-16

>  <r_epik_State_Penalty>  (323) 
0.283298

>  <r_epik_Charging_Adjusted_Penalty>  (323) 
0.573587

>  <i_epik_Tot_Q>  (323) 
1

>  <i_epik_Tot_abs_Q>  (323) 
1

>  <s_epik_Chemistry_Notes>  (323) 
This compound has an ester and may undergo hydrolysis at high or low pH. This compound contains an acetal/aminal-like group ( X-CH(R)-Y where X, Y are N, S, or O) that may be acid/base labile, releasing an aldehyde.

>  <s_lp_Force_Field>  (323) 
OPLS3e

>  <r_lp_Energy>  (323) 
200.822

>  <b_lp_Chiralities_Consistent>  (323) 
0

>  <s_lp_Variant>  (323) 
77:0-2

>  <s_i_glide_gridfile>  (323) 
pfpi4k_grid

>  <i_i_glide_lignum>  (323) 
39

>  <i_i_glide_rotatable_bonds>  (323) 
1

>  <r_i_docking_score>  (323) 
-3.06785

>  <r_i_glide_ligand_efficiency>  (323) 
-0.127827

>  <r_i_glide_ligand_efficiency_sa>  (323) 
-0.368717

>  <r_i_glide_ligand_efficiency_ln>  (323) 
-0.734276

>  <r_i_glide_gscore>  (323) 
-3.06785

>  <r_i_glide_lipo>  (323) 
-0.142802

>  <r_i_glide_hbond>  (323) 
0

>  <r_i_glide_metal>  (323) 
-0

>  <r_i_glide_rewards>  (323) 
-1.26544

>  <r_i_glide_evdw>  (323) 
-22.2222

>  <r_i_glide_ecoul>  (323) 
-3.43079

>  <r_i_glide_erotb>  (323) 
0

>  <r_i_glide_esite>  (323) 
-0.0338736

>  <r_i_glide_emodel>  (323) 
-30.5004

>  <r_i_glide_energy>  (323) 
-25.6529

>  <r_i_glide_einternal>  (323) 
0.501364

>  <r_i_glide_intrahb_reward>  (323) 
-0

>  <i_i_glide_confnum>  (323) 
2

>  <i_i_glide_posenum>  (323) 
10

>  <r_i_glide_eff_state_penalty>  (323) 
0

>  <ligand_id>  (323) 
77

>  <original_smiles>  (323) 
CCN1CCOC2OC3CC4OC(=O)C2(C=CC4C)C(C=CO3)C1

>  <smiles>  (323) 
[H]C1=C([H])C2([H])C34C(=O)OC([H])(C([H])([H])C([H])(O1)OC3([H])OC([H])([H])C([H])([H])[N+]([H])(C([H])([H])C([H])([H])[H])C2([H])[H])C([H])(C([H])([H])[H])C([H])=C4[H]

$$$$
77:1:1
     RDKit          3D

 50 53  0  0  1  0  0  0  0  0999 V2000
    3.0308    8.0940    4.5504 C   0  0  0  0  0  0  0  0  0  0  0  0
    1.8351    7.1506    4.3009 C   0  0  0  0  0  0  0  0  0  0  0  0
    2.1528    5.7014    4.4170 N   0  0  1  0  0  0  0  0  0  0  0  0
    3.0956    5.2280    3.3801 C   0  0  0  0  0  0  0  0  0  0  0  0
    2.5936    3.9231    2.7548 C   0  0  0  0  0  0  0  0  0  0  0  0
    1.5036    3.4109    3.5153 O   0  0  0  0  0  0  0  0  0  0  0  0
    1.6747    2.2950    4.3346 C   0  0  1  0  0  0  0  0  0  0  0  0
    2.7398    1.4501    3.9696 O   0  0  0  0  0  0  0  0  0  0  0  0
    3.0792    0.3617    4.7924 C   0  0  2  0  0  0  0  0  0  0  0  0
    1.8733   -0.6426    5.1703 C   0  0  0  0  0  0  0  0  0  0  0  0
    0.7272   -0.0257    6.0373 C   0  0  2  0  0  0  0  0  0  0  0  0
    1.2234    0.5435    7.1932 O   0  0  0  0  0  0  0  0  0  0  0  0
    1.5115    1.8353    7.2377 C   0  0  0  0  0  0  0  0  0  0  0  0
    1.6961    2.3494    8.3408 O   0  0  0  0  0  0  0  0  0  0  0  0
    1.4907    2.7248    5.9041 C   0  0  2  0  0  0  0  0  0  0  0  0
   -0.0153    3.0074    5.9247 C   0  0  0  0  0  0  0  0  0  0  0  0
   -0.9602    2.0104    5.8330 C   0  0  0  0  0  0  0  0  0  0  0  0
   -0.7514    0.4444    5.7932 C   0  0  1  0  0  0  0  0  0  0  0  0
   -1.3807   -0.1765    4.5355 C   0  0  0  0  0  0  0  0  0  0  0  0
    2.6596    3.7846    6.1372 C   0  0  1  0  0  0  0  0  0  0  0  0
    3.9756    3.0720    5.7393 C   0  0  0  0  0  0  0  0  0  0  0  0
    4.3207    1.9029    6.3351 C   0  0  0  0  0  0  0  0  0  0  0  0
    4.0071    0.6357    5.8400 O   0  0  0  0  0  0  0  0  0  0  0  0
    2.4818    5.2963    5.8111 C   0  0  0  0  0  0  0  0  0  0  0  0
    2.7307    9.1319    4.3796 H   0  0  0  0  0  0  0  0  0  0  0  0
    3.8665    7.8900    3.8785 H   0  0  0  0  0  0  0  0  0  0  0  0
    3.3943    8.0387    5.5784 H   0  0  0  0  0  0  0  0  0  0  0  0
    1.0268    7.4100    4.9848 H   0  0  0  0  0  0  0  0  0  0  0  0
    1.4460    7.3277    3.3022 H   0  0  0  0  0  0  0  0  0  0  0  0
    3.1894    5.9546    2.5754 H   0  0  0  0  0  0  0  0  0  0  0  0
    4.0936    5.1325    3.7969 H   0  0  0  0  0  0  0  0  0  0  0  0
    2.2102    4.1499    1.7615 H   0  0  0  0  0  0  0  0  0  0  0  0
    3.3958    3.2166    2.5789 H   0  0  0  0  0  0  0  0  0  0  0  0
    0.8082    1.8127    3.8810 H   0  0  0  0  0  0  0  0  0  0  0  0
    3.7237   -0.2049    4.1194 H   0  0  0  0  0  0  0  0  0  0  0  0
    1.4729   -1.0706    4.2506 H   0  0  0  0  0  0  0  0  0  0  0  0
    2.3149   -1.4761    5.7196 H   0  0  0  0  0  0  0  0  0  0  0  0
    0.8059    0.6093    5.2516 H   0  0  0  0  0  0  0  0  0  0  0  0
   -0.3199    4.0421    5.9647 H   0  0  0  0  0  0  0  0  0  0  0  0
   -1.9933    2.3183    5.8154 H   0  0  0  0  0  0  0  0  0  0  0  0
   -1.3306    0.0791    6.6404 H   0  0  0  0  0  0  0  0  0  0  0  0
   -2.4502    0.0290    4.4855 H   0  0  0  0  0  0  0  0  0  0  0  0
   -1.2524   -1.2594    4.5309 H   0  0  0  0  0  0  0  0  0  0  0  0
   -0.9299    0.2120    3.6211 H   0  0  0  0  0  0  0  0  0  0  0  0
    2.8447    3.9226    7.1983 H   0  0  0  0  0  0  0  0  0  0  0  0
    4.1509    3.1035    4.6807 H   0  0  0  0  0  0  0  0  0  0  0  0
    4.1236    1.8143    7.3948 H   0  0  0  0  0  0  0  0  0  0  0  0
    3.3948    5.8067    6.1160 H   0  0  0  0  0  0  0  0  0  0  0  0
    1.7001    5.6900    6.4655 H   0  0  0  0  0  0  0  0  0  0  0  0
    1.2970    5.2192    4.1879 H   0  0  0  0  0  0  0  0  0  0  0  0
  1  2  1  0
  1 25  1  0
  1 26  1  0
  1 27  1  0
  2  3  1  0
  2 28  1  0
  2 29  1  0
  3 24  1  0
  3  4  1  0
  3 50  1  6
  4  5  1  0
  4 30  1  0
  4 31  1  0
  5  6  1  0
  5 32  1  0
  5 33  1  0
  6  7  1  0
  7 15  1  0
  7  8  1  0
  7 34  1  6
  8  9  1  0
  9 23  1  0
  9 10  1  0
  9 35  1  6
 10 11  1  0
 10 36  1  0
 10 37  1  0
 11 18  1  0
 11 12  1  0
 11 38  1  1
 12 13  1  0
 13 14  2  0
 13 15  1  0
 15 16  1  6
 15 20  1  0
 16 17  2  0
 16 39  1  0
 17 18  1  0
 17 40  1  0
 18 19  1  0
 18 41  1  1
 19 42  1  0
 19 43  1  0
 19 44  1  0
 20 21  1  0
 20 24  1  0
 20 45  1  1
 21 22  2  3
 21 46  1  0
 22 23  1  0
 22 47  1  0
 24 48  1  0
 24 49  1  0
M  CHG  1   3   1
M  END
>  <i_m_ct_stereo_status>  (324) 
1

>  <s_m_source_file>  (324) 
/var/tmp/pbs.5076255.sched01/tmpnby3vxlc/96d7dj3887.sdf

>  <i_m_source_file_index>  (324) 
39

>  <i_lp_mmshare_version>  (324) 
48012

>  <i_f3d_flags>  (324) 
2

>  <s_epik_input>  (324) 
W0NAXTEyM1tDQEhdNE9bQ0gyXVtDSDJdTihbQ0gyXVtDSDNdKVtDSDJdW0NAQEhdMy9bQ0hdPVtDSF1cT1tDQEhdKE80KVtDSDJdW0NASF0oT0MxPU8pW0NASF0oW0NIM10pW0NIXT1bQ0hdMg==

>  <s_epik_cmdline>  (324) 
J2VwaWtfcHl0aG9uJywgJy1waHQnLCAnMi4wJywgJy1waCcsICc3LjAnLCAnLXRuJywgJzgnLCAnLW1hJywgJzIwMCcsICctaW1hZScsICc8aW5maWxlLm1hZT4nLCAnLW9tYWUnLCAnPG91dGZpbGUubWFlPic=

>  <r_epik_Ionization_Penalty>  (324) 
0.29029

>  <r_epik_Ionization_Penalty_Charging>  (324) 
0.29029

>  <r_epik_Ionization_Penalty_Neutral>  (324) 
3.94675e-16

>  <r_epik_State_Penalty>  (324) 
0.283298

>  <r_epik_Charging_Adjusted_Penalty>  (324) 
0.573587

>  <i_epik_Tot_Q>  (324) 
1

>  <i_epik_Tot_abs_Q>  (324) 
1

>  <s_epik_Chemistry_Notes>  (324) 
This compound has an ester and may undergo hydrolysis at high or low pH. This compound contains an acetal/aminal-like group ( X-CH(R)-Y where X, Y are N, S, or O) that may be acid/base labile, releasing an aldehyde.

>  <s_lp_Force_Field>  (324) 
OPLS3e

>  <r_lp_Energy>  (324) 
200.822

>  <b_lp_Chiralities_Consistent>  (324) 
0

>  <s_lp_Variant>  (324) 
77:0-2

>  <s_i_glide_gridfile>  (324) 
pfpi4k_grid

>  <i_i_glide_lignum>  (324) 
39

>  <i_i_glide_rotatable_bonds>  (324) 
1

>  <r_i_docking_score>  (324) 
-2.48946

>  <r_i_glide_ligand_efficiency>  (324) 
-0.103728

>  <r_i_glide_ligand_efficiency_sa>  (324) 
-0.299202

>  <r_i_glide_ligand_efficiency_ln>  (324) 
-0.595843

>  <r_i_glide_gscore>  (324) 
-2.48946

>  <r_i_glide_lipo>  (324) 
-0.130402

>  <r_i_glide_hbond>  (324) 
0

>  <r_i_glide_metal>  (324) 
-0

>  <r_i_glide_rewards>  (324) 
-1.11544

>  <r_i_glide_evdw>  (324) 
-16.9002

>  <r_i_glide_ecoul>  (324) 
-2.50616

>  <r_i_glide_erotb>  (324) 
0

>  <r_i_glide_esite>  (324) 
-0.0226947

>  <r_i_glide_emodel>  (324) 
-23.3603

>  <r_i_glide_energy>  (324) 
-19.4063

>  <r_i_glide_einternal>  (324) 
0.364286

>  <r_i_glide_intrahb_reward>  (324) 
-0

>  <i_i_glide_confnum>  (324) 
2

>  <i_i_glide_posenum>  (324) 
5

>  <r_i_glide_eff_state_penalty>  (324) 
0

>  <ligand_id>  (324) 
77

>  <original_smiles>  (324) 
CCN1CCOC2OC3CC4OC(=O)C2(C=CC4C)C(C=CO3)C1

>  <smiles>  (324) 
[H]C1=C([H])C2([H])C34C(=O)OC([H])(C([H])([H])C([H])(O1)OC3([H])OC([H])([H])C([H])([H])[N+]([H])(C([H])([H])C([H])([H])[H])C2([H])[H])C([H])(C([H])([H])[H])C([H])=C4[H]

$$$$
77:1:2
     RDKit          3D

 50 53  0  0  1  0  0  0  0  0999 V2000
    0.9680   -2.4107    6.0745 C   0  0  0  0  0  0  0  0  0  0  0  0
    2.2891   -3.1574    6.3433 C   0  0  0  0  0  0  0  0  0  0  0  0
    2.5813   -4.2138    5.3348 N   0  0  1  0  0  0  0  0  0  0  0  0
    2.9671   -3.6581    4.0120 C   0  0  0  0  0  0  0  0  0  0  0  0
    2.2266   -4.3949    2.8880 C   0  0  0  0  0  0  0  0  0  0  0  0
    1.5799   -5.5569    3.4048 O   0  0  0  0  0  0  0  0  0  0  0  0
    2.1105   -6.8287    3.1569 C   0  0  1  0  0  0  0  0  0  0  0  0
    2.8806   -6.9139    1.9813 O   0  0  0  0  0  0  0  0  0  0  0  0
    3.5525   -8.1129    1.6808 C   0  0  2  0  0  0  0  0  0  0  0  0
    2.6455   -9.4447    1.6769 C   0  0  0  0  0  0  0  0  0  0  0  0
    2.0383   -9.8613    3.0556 C   0  0  2  0  0  0  0  0  0  0  0  0
    3.0222   -9.9726    4.0176 O   0  0  0  0  0  0  0  0  0  0  0  0
    3.3028   -8.9541    4.8148 C   0  0  0  0  0  0  0  0  0  0  0  0
    3.9869   -9.1727    5.8153 O   0  0  0  0  0  0  0  0  0  0  0  0
    2.6766   -7.5006    4.5422 C   0  0  2  0  0  0  0  0  0  0  0  0
    1.3541   -7.7619    5.2710 C   0  0  0  0  0  0  0  0  0  0  0  0
    0.4656   -8.7367    4.8741 C   0  0  0  0  0  0  0  0  0  0  0  0
    0.6173   -9.8094    3.7257 C   0  0  1  0  0  0  0  0  0  0  0  0
   -0.5274   -9.6986    2.7078 C   0  0  0  0  0  0  0  0  0  0  0  0
    3.8339   -6.4995    4.9990 C   0  0  1  0  0  0  0  0  0  0  0  0
    4.8135   -6.3955    3.8052 C   0  0  0  0  0  0  0  0  0  0  0  0
    5.3774   -7.5180    3.2924 C   0  0  0  0  0  0  0  0  0  0  0  0
    4.8598   -8.2538    2.2248 O   0  0  0  0  0  0  0  0  0  0  0  0
    3.5310   -5.2348    5.8591 C   0  0  0  0  0  0  0  0  0  0  0  0
    0.7671   -1.7061    6.8847 H   0  0  0  0  0  0  0  0  0  0  0  0
    0.1219   -3.1006    6.0200 H   0  0  0  0  0  0  0  0  0  0  0  0
    0.9979   -1.8296    5.1501 H   0  0  0  0  0  0  0  0  0  0  0  0
    3.1185   -2.4479    6.4081 H   0  0  0  0  0  0  0  0  0  0  0  0
    2.2027   -3.6047    7.3359 H   0  0  0  0  0  0  0  0  0  0  0  0
    2.7090   -2.6018    3.9346 H   0  0  0  0  0  0  0  0  0  0  0  0
    4.0472   -3.6819    3.8736 H   0  0  0  0  0  0  0  0  0  0  0  0
    1.4219   -3.7491    2.5356 H   0  0  0  0  0  0  0  0  0  0  0  0
    2.8638   -4.5616    2.0173 H   0  0  0  0  0  0  0  0  0  0  0  0
    1.1304   -7.1861    2.8456 H   0  0  0  0  0  0  0  0  0  0  0  0
    3.8187   -7.9388    0.6391 H   0  0  0  0  0  0  0  0  0  0  0  0
    1.8618   -9.3310    0.9287 H   0  0  0  0  0  0  0  0  0  0  0  0
    3.2817  -10.2561    1.3212 H   0  0  0  0  0  0  0  0  0  0  0  0
    1.7491   -8.8965    2.9411 H   0  0  0  0  0  0  0  0  0  0  0  0
    1.1139   -7.1181    6.1037 H   0  0  0  0  0  0  0  0  0  0  0  0
   -0.4561   -8.8273    5.4286 H   0  0  0  0  0  0  0  0  0  0  0  0
    0.4838  -10.7657    4.2331 H   0  0  0  0  0  0  0  0  0  0  0  0
   -1.4959   -9.8430    3.1883 H   0  0  0  0  0  0  0  0  0  0  0  0
   -0.4321  -10.4733    1.9469 H   0  0  0  0  0  0  0  0  0  0  0  0
   -0.5438   -8.7333    2.2011 H   0  0  0  0  0  0  0  0  0  0  0  0
    4.4875   -6.9747    5.7245 H   0  0  0  0  0  0  0  0  0  0  0  0
    4.4818   -5.6902    3.0686 H   0  0  0  0  0  0  0  0  0  0  0  0
    5.6912   -8.2784    3.9938 H   0  0  0  0  0  0  0  0  0  0  0  0
    4.4779   -4.7399    6.0879 H   0  0  0  0  0  0  0  0  0  0  0  0
    3.1523   -5.5879    6.8219 H   0  0  0  0  0  0  0  0  0  0  0  0
    1.7171   -4.7151    5.1712 H   0  0  0  0  0  0  0  0  0  0  0  0
  1  2  1  0
  1 25  1  0
  1 26  1  0
  1 27  1  0
  2  3  1  0
  2 28  1  0
  2 29  1  0
  3 24  1  0
  3  4  1  0
  3 50  1  6
  4  5  1  0
  4 30  1  0
  4 31  1  0
  5  6  1  0
  5 32  1  0
  5 33  1  0
  6  7  1  0
  7 15  1  0
  7  8  1  0
  7 34  1  6
  8  9  1  0
  9 23  1  0
  9 10  1  0
  9 35  1  6
 10 11  1  0
 10 36  1  0
 10 37  1  0
 11 18  1  0
 11 12  1  0
 11 38  1  6
 12 13  1  0
 13 14  2  0
 13 15  1  0
 15 16  1  1
 15 20  1  0
 16 17  2  0
 16 39  1  0
 17 18  1  0
 17 40  1  0
 18 19  1  0
 18 41  1  1
 19 42  1  0
 19 43  1  0
 19 44  1  0
 20 21  1  0
 20 24  1  0
 20 45  1  1
 21 22  2  3
 21 46  1  0
 22 23  1  0
 22 47  1  0
 24 48  1  0
 24 49  1  0
M  CHG  1   3   1
M  END
>  <i_m_ct_stereo_status>  (325) 
1

>  <s_m_source_file>  (325) 
/var/tmp/pbs.5076255.sched01/tmpnby3vxlc/96d7dj3887.sdf

>  <i_m_source_file_index>  (325) 
39

>  <i_lp_mmshare_version>  (325) 
48012

>  <i_f3d_flags>  (325) 
2

>  <s_epik_input>  (325) 
W0NAXTEyM1tDQEhdNE9bQ0gyXVtDSDJdTihbQ0gyXVtDSDNdKVtDSDJdW0NAQEhdMy9bQ0hdPVtDSF1cT1tDQEhdKE80KVtDSDJdW0NASF0oT0MxPU8pW0NASF0oW0NIM10pW0NIXT1bQ0hdMg==

>  <s_epik_cmdline>  (325) 
J2VwaWtfcHl0aG9uJywgJy1waHQnLCAnMi4wJywgJy1waCcsICc3LjAnLCAnLXRuJywgJzgnLCAnLW1hJywgJzIwMCcsICctaW1hZScsICc8aW5maWxlLm1hZT4nLCAnLW9tYWUnLCAnPG91dGZpbGUubWFlPic=

>  <r_epik_Ionization_Penalty>  (325) 
0.29029

>  <r_epik_Ionization_Penalty_Charging>  (325) 
0.29029

>  <r_epik_Ionization_Penalty_Neutral>  (325) 
3.94675e-16

>  <r_epik_State_Penalty>  (325) 
0.283298

>  <r_epik_Charging_Adjusted_Penalty>  (325) 
0.573587

>  <i_epik_Tot_Q>  (325) 
1

>  <i_epik_Tot_abs_Q>  (325) 
1

>  <s_epik_Chemistry_Notes>  (325) 
This compound has an ester and may undergo hydrolysis at high or low pH. This compound contains an acetal/aminal-like group ( X-CH(R)-Y where X, Y are N, S, or O) that may be acid/base labile, releasing an aldehyde.

>  <s_lp_Force_Field>  (325) 
OPLS3e

>  <r_lp_Energy>  (325) 
200.822

>  <b_lp_Chiralities_Consistent>  (325) 
0

>  <s_lp_Variant>  (325) 
77:0-2

>  <s_i_glide_gridfile>  (325) 
pfpi4k_grid

>  <i_i_glide_lignum>  (325) 
39

>  <i_i_glide_rotatable_bonds>  (325) 
1

>  <r_i_docking_score>  (325) 
-2.40636

>  <r_i_glide_ligand_efficiency>  (325) 
-0.100265

>  <r_i_glide_ligand_efficiency_sa>  (325) 
-0.289214

>  <r_i_glide_ligand_efficiency_ln>  (325) 
-0.575952

>  <r_i_glide_gscore>  (325) 
-2.40636

>  <r_i_glide_lipo>  (325) 
-0.0374626

>  <r_i_glide_hbond>  (325) 
0

>  <r_i_glide_metal>  (325) 
-0

>  <r_i_glide_rewards>  (325) 
-1.11544

>  <r_i_glide_evdw>  (325) 
-18.018

>  <r_i_glide_ecoul>  (325) 
-2.24027

>  <r_i_glide_erotb>  (325) 
0

>  <r_i_glide_esite>  (325) 
-0.0165204

>  <r_i_glide_emodel>  (325) 
-24.238

>  <r_i_glide_energy>  (325) 
-20.2583

>  <r_i_glide_einternal>  (325) 
0.0020185

>  <r_i_glide_intrahb_reward>  (325) 
-0

>  <i_i_glide_confnum>  (325) 
2

>  <i_i_glide_posenum>  (325) 
1

>  <r_i_glide_eff_state_penalty>  (325) 
0

>  <ligand_id>  (325) 
77

>  <original_smiles>  (325) 
CCN1CCOC2OC3CC4OC(=O)C2(C=CC4C)C(C=CO3)C1

>  <smiles>  (325) 
[H]C1=C([H])C2([H])C34C(=O)OC([H])(C([H])([H])C([H])(O1)OC3([H])OC([H])([H])C([H])([H])[N+]([H])(C([H])([H])C([H])([H])[H])C2([H])[H])C([H])(C([H])([H])[H])C([H])=C4[H]

$$$$
77:3:0
     RDKit          3D

 49 52  0  0  1  0  0  0  0  0999 V2000
    2.6459   -3.6656   -4.3084 C   0  0  0  0  0  0  0  0  0  0  0  0
    2.5854   -2.6221   -3.2064 C   0  0  0  0  0  0  0  0  0  0  0  0
    3.7690   -2.5583   -2.3501 N   0  0  0  0  0  0  0  0  0  0  0  0
    5.0219   -2.3553   -3.0756 C   0  0  0  0  0  0  0  0  0  0  0  0
    6.2730   -2.6288   -2.2187 C   0  0  0  0  0  0  0  0  0  0  0  0
    6.2934   -1.8592   -1.0264 O   0  0  0  0  0  0  0  0  0  0  0  0
    6.2568   -2.6587    0.1051 C   0  0  1  0  0  0  0  0  0  0  0  0
    6.8132   -2.0357    1.2776 O   0  0  0  0  0  0  0  0  0  0  0  0
    6.0408   -1.2622    2.2513 C   0  0  2  0  0  0  0  0  0  0  0  0
    4.9391   -1.8678    3.2978 C   0  0  0  0  0  0  0  0  0  0  0  0
    4.1293   -3.2279    3.1140 C   0  0  2  0  0  0  0  0  0  0  0  0
    5.0491   -4.1681    2.7849 O   0  0  0  0  0  0  0  0  0  0  0  0
    5.4574   -4.1985    1.5611 C   0  0  0  0  0  0  0  0  0  0  0  0
    6.2528   -5.0854    1.2267 O   0  0  0  0  0  0  0  0  0  0  0  0
    4.8367   -3.1671    0.4648 C   0  0  2  0  0  0  0  0  0  0  0  0
    3.8580   -4.2709    0.1175 C   0  0  0  0  0  0  0  0  0  0  0  0
    2.8497   -4.4321    1.0287 C   0  0  0  0  0  0  0  0  0  0  0  0
    2.7435   -3.6119    2.3893 C   0  0  1  0  0  0  0  0  0  0  0  0
    1.8793   -4.4417    3.3528 C   0  0  0  0  0  0  0  0  0  0  0  0
    3.7818   -1.9227    0.1508 C   0  0  1  0  0  0  0  0  0  0  0  0
    3.8308   -0.6462    0.9149 C   0  0  0  0  0  0  0  0  0  0  0  0
    4.9129    0.1282    0.8568 C   0  0  0  0  0  0  0  0  0  0  0  0
    5.7249    0.0315    1.9112 O   0  0  0  0  0  0  0  0  0  0  0  0
    3.5969   -1.5185   -1.3424 C   0  0  0  0  0  0  0  0  0  0  0  0
    1.6740   -3.8120   -4.7625 H   0  0  0  0  0  0  0  0  0  0  0  0
    2.9805   -4.6227   -3.9351 H   0  0  0  0  0  0  0  0  0  0  0  0
    3.3378   -3.3594   -5.0803 H   0  0  0  0  0  0  0  0  0  0  0  0
    2.3733   -1.6557   -3.6528 H   0  0  0  0  0  0  0  0  0  0  0  0
    1.7302   -2.8632   -2.5716 H   0  0  0  0  0  0  0  0  0  0  0  0
    5.1061   -3.0530   -3.8996 H   0  0  0  0  0  0  0  0  0  0  0  0
    5.0188   -1.3575   -3.5090 H   0  0  0  0  0  0  0  0  0  0  0  0
    6.3356   -3.7090   -2.0701 H   0  0  0  0  0  0  0  0  0  0  0  0
    7.2105   -2.3698   -2.7066 H   0  0  0  0  0  0  0  0  0  0  0  0
    7.0160   -3.4149   -0.1294 H   0  0  0  0  0  0  0  0  0  0  0  0
    6.8907   -0.9378    2.8291 H   0  0  0  0  0  0  0  0  0  0  0  0
    5.5149   -2.0314    4.2090 H   0  0  0  0  0  0  0  0  0  0  0  0
    4.2710   -1.0659    3.6184 H   0  0  0  0  0  0  0  0  0  0  0  0
    3.9025   -3.4515    4.1592 H   0  0  0  0  0  0  0  0  0  0  0  0
    3.9604   -4.8120   -0.8144 H   0  0  0  0  0  0  0  0  0  0  0  0
    2.0769   -5.1575    0.8275 H   0  0  0  0  0  0  0  0  0  0  0  0
    2.1565   -2.7040    2.2443 H   0  0  0  0  0  0  0  0  0  0  0  0
    0.8960   -4.6366    2.9244 H   0  0  0  0  0  0  0  0  0  0  0  0
    1.7175   -3.9170    4.2963 H   0  0  0  0  0  0  0  0  0  0  0  0
    2.3388   -5.4061    3.5821 H   0  0  0  0  0  0  0  0  0  0  0  0
    2.7447   -2.1670    0.3339 H   0  0  0  0  0  0  0  0  0  0  0  0
    3.2750   -0.6688    1.8276 H   0  0  0  0  0  0  0  0  0  0  0  0
    5.5745    0.0920    0.0118 H   0  0  0  0  0  0  0  0  0  0  0  0
    4.2535   -0.6785   -1.5771 H   0  0  0  0  0  0  0  0  0  0  0  0
    2.6133   -1.0629   -1.4481 H   0  0  0  0  0  0  0  0  0  0  0  0
  1  2  1  0
  1 25  1  0
  1 26  1  0
  1 27  1  0
  2  3  1  0
  2 28  1  0
  2 29  1  0
  3 24  1  0
  3  4  1  0
  4  5  1  0
  4 30  1  0
  4 31  1  0
  5  6  1  0
  5 32  1  0
  5 33  1  0
  6  7  1  0
  7 15  1  0
  7  8  1  0
  7 34  1  6
  8  9  1  0
  9 23  1  0
  9 10  1  0
  9 35  1  1
 10 11  1  0
 10 36  1  0
 10 37  1  0
 11 18  1  0
 11 12  1  0
 11 38  1  1
 12 13  1  0
 13 14  2  0
 13 15  1  0
 15 16  1  6
 15 20  1  0
 16 17  2  0
 16 39  1  0
 17 18  1  0
 17 40  1  0
 18 19  1  0
 18 41  1  6
 19 42  1  0
 19 43  1  0
 19 44  1  0
 20 21  1  0
 20 24  1  0
 20 45  1  1
 21 22  2  3
 21 46  1  0
 22 23  1  0
 22 47  1  0
 24 48  1  0
 24 49  1  0
M  END
>  <i_m_ct_stereo_status>  (326) 
1

>  <s_m_source_file>  (326) 
/var/tmp/pbs.5076255.sched01/tmpnby3vxlc/96d7dj3887.sdf

>  <i_m_source_file_index>  (326) 
41

>  <i_lp_mmshare_version>  (326) 
48012

>  <i_f3d_flags>  (326) 
2

>  <s_epik_input>  (326) 
W0NAXTEyM1tDQEhdNE9bQ0gyXVtDSDJdTihbQ0gyXVtDSDNdKVtDSDJdW0NAQEhdMy9bQ0hdPVtDSF1cT1tDQEhdKE80KVtDSDJdW0NASF0oT0MxPU8pW0NASF0oW0NIM10pW0NIXT1bQ0hdMg==

>  <s_epik_cmdline>  (326) 
J2VwaWtfcHl0aG9uJywgJy1waHQnLCAnMi4wJywgJy1waCcsICc3LjAnLCAnLXRuJywgJzgnLCAnLW1hJywgJzIwMCcsICctaW1hZScsICc8aW5maWxlLm1hZT4nLCAnLW9tYWUnLCAnPG91dGZpbGUubWFlPic=

>  <r_epik_Ionization_Penalty>  (326) 
0.561938

>  <r_epik_Ionization_Penalty_Charging>  (326) 
0

>  <r_epik_Ionization_Penalty_Neutral>  (326) 
0.561938

>  <r_epik_State_Penalty>  (326) 
0.573168

>  <r_epik_Charging_Adjusted_Penalty>  (326) 
0.573168

>  <i_epik_Tot_Q>  (326) 
0

>  <i_epik_Tot_abs_Q>  (326) 
0

>  <s_epik_Chemistry_Notes>  (326) 
This compound has an ester and may undergo hydrolysis at high or low pH. This compound contains an acetal/aminal-like group ( X-CH(R)-Y where X, Y are N, S, or O) that may be acid/base labile, releasing an aldehyde.

>  <s_lp_Force_Field>  (326) 
OPLS3e

>  <r_lp_Energy>  (326) 
246.079

>  <b_lp_Chiralities_Consistent>  (326) 
0

>  <s_lp_Variant>  (326) 
77:0-4

>  <s_i_glide_gridfile>  (326) 
pfpi4k_grid

>  <i_i_glide_lignum>  (326) 
41

>  <i_i_glide_rotatable_bonds>  (326) 
1

>  <r_i_docking_score>  (326) 
-3.34971

>  <r_i_glide_ligand_efficiency>  (326) 
-0.139571

>  <r_i_glide_ligand_efficiency_sa>  (326) 
-0.402593

>  <r_i_glide_ligand_efficiency_ln>  (326) 
-0.80174

>  <r_i_glide_gscore>  (326) 
-3.34971

>  <r_i_glide_lipo>  (326) 
-0.351049

>  <r_i_glide_hbond>  (326) 
-0.451208

>  <r_i_glide_metal>  (326) 
-0

>  <r_i_glide_rewards>  (326) 
-1.43549

>  <r_i_glide_evdw>  (326) 
-13.2332

>  <r_i_glide_ecoul>  (326) 
-3.00204

>  <r_i_glide_erotb>  (326) 
0

>  <r_i_glide_esite>  (326) 
0

>  <r_i_glide_emodel>  (326) 
-19.186

>  <r_i_glide_energy>  (326) 
-16.2352

>  <r_i_glide_einternal>  (326) 
1.31762

>  <r_i_glide_intrahb_reward>  (326) 
-0

>  <i_i_glide_confnum>  (326) 
1

>  <i_i_glide_posenum>  (326) 
2

>  <r_i_glide_eff_state_penalty>  (326) 
0

>  <ligand_id>  (326) 
77

>  <original_smiles>  (326) 
CCN1CCOC2OC3CC4OC(=O)C2(C=CC4C)C(C=CO3)C1

>  <smiles>  (326) 
[H]C1=C([H])C2([H])C([H])([H])N(C([H])([H])C([H])([H])[H])C([H])([H])C([H])([H])OC3([H])OC([H])(O1)C([H])([H])C1([H])OC(=O)C32C([H])=C([H])C1([H])C([H])([H])[H]

$$$$
77:3:1
     RDKit          3D

 49 52  0  0  1  0  0  0  0  0999 V2000
    1.8280   -6.8102    3.2983 C   0  0  0  0  0  0  0  0  0  0  0  0
    1.6200   -5.5704    2.4113 C   0  0  0  0  0  0  0  0  0  0  0  0
    2.7201   -4.6105    2.3735 N   0  0  0  0  0  0  0  0  0  0  0  0
    2.9769   -4.0154    3.6847 C   0  0  0  0  0  0  0  0  0  0  0  0
    3.8803   -2.7719    3.6758 C   0  0  0  0  0  0  0  0  0  0  0  0
    5.1157   -2.9710    2.9679 O   0  0  0  0  0  0  0  0  0  0  0  0
    5.2338   -2.1997    1.8077 C   0  0  1  0  0  0  0  0  0  0  0  0
    6.5950   -1.9344    1.3519 O   0  0  0  0  0  0  0  0  0  0  0  0
    7.3465   -2.7574    0.4024 C   0  0  2  0  0  0  0  0  0  0  0  0
    6.9891   -2.9215   -1.1885 C   0  0  0  0  0  0  0  0  0  0  0  0
    5.5926   -2.5882   -1.8866 C   0  0  2  0  0  0  0  0  0  0  0  0
    5.2132   -1.3787   -1.4049 O   0  0  0  0  0  0  0  0  0  0  0  0
    4.6580   -1.3699   -0.2295 C   0  0  0  0  0  0  0  0  0  0  0  0
    4.2354   -0.2923    0.2060 O   0  0  0  0  0  0  0  0  0  0  0  0
    4.4349   -2.7621    0.5982 C   0  0  2  0  0  0  0  0  0  0  0  0
    3.0405   -2.7830    0.0036 C   0  0  0  0  0  0  0  0  0  0  0  0
    2.9843   -3.1691   -1.3135 C   0  0  0  0  0  0  0  0  0  0  0  0
    4.2750   -3.4635   -2.1960 C   0  0  1  0  0  0  0  0  0  0  0  0
    3.8672   -3.2816   -3.6682 C   0  0  0  0  0  0  0  0  0  0  0  0
    4.6287   -4.4120    0.6389 C   0  0  1  0  0  0  0  0  0  0  0  0
    5.9719   -5.0489    0.4690 C   0  0  0  0  0  0  0  0  0  0  0  0
    6.9648   -4.8300    1.3308 C   0  0  0  0  0  0  0  0  0  0  0  0
    7.8896   -3.9275    0.9281 O   0  0  0  0  0  0  0  0  0  0  0  0
    3.9404   -5.1829    1.8022 C   0  0  0  0  0  0  0  0  0  0  0  0
    0.9209   -7.4082    3.3434 H   0  0  0  0  0  0  0  0  0  0  0  0
    2.0887   -6.5466    4.3239 H   0  0  0  0  0  0  0  0  0  0  0  0
    2.6169   -7.4539    2.9100 H   0  0  0  0  0  0  0  0  0  0  0  0
    1.4176   -5.9034    1.3918 H   0  0  0  0  0  0  0  0  0  0  0  0
    0.7181   -5.0523    2.7367 H   0  0  0  0  0  0  0  0  0  0  0  0
    2.0269   -3.7461    4.1503 H   0  0  0  0  0  0  0  0  0  0  0  0
    3.4312   -4.7558    4.3443 H   0  0  0  0  0  0  0  0  0  0  0  0
    3.2957   -1.9272    3.3028 H   0  0  0  0  0  0  0  0  0  0  0  0
    4.1290   -2.5245    4.7088 H   0  0  0  0  0  0  0  0  0  0  0  0
    4.9210   -1.2216    2.1818 H   0  0  0  0  0  0  0  0  0  0  0  0
    8.2563   -2.1538    0.4050 H   0  0  0  0  0  0  0  0  0  0  0  0
    7.6738   -2.2218   -1.6611 H   0  0  0  0  0  0  0  0  0  0  0  0
    7.4051   -3.8504   -1.5626 H   0  0  0  0  0  0  0  0  0  0  0  0
    5.9359   -2.3600   -2.8964 H   0  0  0  0  0  0  0  0  0  0  0  0
    2.1797   -2.5523    0.6172 H   0  0  0  0  0  0  0  0  0  0  0  0
    2.0221   -3.2617   -1.7975 H   0  0  0  0  0  0  0  0  0  0  0  0
    4.5576   -4.5143   -2.1341 H   0  0  0  0  0  0  0  0  0  0  0  0
    3.0313   -3.9353   -3.9247 H   0  0  0  0  0  0  0  0  0  0  0  0
    4.6874   -3.5350   -4.3401 H   0  0  0  0  0  0  0  0  0  0  0  0
    3.5543   -2.2580   -3.8824 H   0  0  0  0  0  0  0  0  0  0  0  0
    4.1014   -4.9219   -0.1590 H   0  0  0  0  0  0  0  0  0  0  0  0
    6.1977   -5.2009   -0.5674 H   0  0  0  0  0  0  0  0  0  0  0  0
    6.7342   -4.5720    2.3506 H   0  0  0  0  0  0  0  0  0  0  0  0
    4.6595   -5.3516    2.6096 H   0  0  0  0  0  0  0  0  0  0  0  0
    3.7444   -6.1898    1.4301 H   0  0  0  0  0  0  0  0  0  0  0  0
  1  2  1  0
  1 25  1  0
  1 26  1  0
  1 27  1  0
  2  3  1  0
  2 28  1  0
  2 29  1  0
  3 24  1  0
  3  4  1  0
  4  5  1  0
  4 30  1  0
  4 31  1  0
  5  6  1  0
  5 32  1  0
  5 33  1  0
  6  7  1  0
  7 15  1  0
  7  8  1  0
  7 34  1  1
  8  9  1  0
  9 23  1  0
  9 10  1  0
  9 35  1  6
 10 11  1  0
 10 36  1  0
 10 37  1  0
 11 18  1  0
 11 12  1  0
 11 38  1  6
 12 13  1  0
 13 14  2  0
 13 15  1  0
 15 16  1  1
 15 20  1  0
 16 17  2  0
 16 39  1  0
 17 18  1  0
 17 40  1  0
 18 19  1  0
 18 41  1  6
 19 42  1  0
 19 43  1  0
 19 44  1  0
 20 21  1  0
 20 24  1  0
 20 45  1  6
 21 22  2  3
 21 46  1  0
 22 23  1  0
 22 47  1  0
 24 48  1  0
 24 49  1  0
M  END
>  <i_m_ct_stereo_status>  (327) 
1

>  <s_m_source_file>  (327) 
/var/tmp/pbs.5076255.sched01/tmpnby3vxlc/96d7dj3887.sdf

>  <i_m_source_file_index>  (327) 
41

>  <i_lp_mmshare_version>  (327) 
48012

>  <i_f3d_flags>  (327) 
2

>  <s_epik_input>  (327) 
W0NAXTEyM1tDQEhdNE9bQ0gyXVtDSDJdTihbQ0gyXVtDSDNdKVtDSDJdW0NAQEhdMy9bQ0hdPVtDSF1cT1tDQEhdKE80KVtDSDJdW0NASF0oT0MxPU8pW0NASF0oW0NIM10pW0NIXT1bQ0hdMg==

>  <s_epik_cmdline>  (327) 
J2VwaWtfcHl0aG9uJywgJy1waHQnLCAnMi4wJywgJy1waCcsICc3LjAnLCAnLXRuJywgJzgnLCAnLW1hJywgJzIwMCcsICctaW1hZScsICc8aW5maWxlLm1hZT4nLCAnLW9tYWUnLCAnPG91dGZpbGUubWFlPic=

>  <r_epik_Ionization_Penalty>  (327) 
0.561938

>  <r_epik_Ionization_Penalty_Charging>  (327) 
0

>  <r_epik_Ionization_Penalty_Neutral>  (327) 
0.561938

>  <r_epik_State_Penalty>  (327) 
0.573168

>  <r_epik_Charging_Adjusted_Penalty>  (327) 
0.573168

>  <i_epik_Tot_Q>  (327) 
0

>  <i_epik_Tot_abs_Q>  (327) 
0

>  <s_epik_Chemistry_Notes>  (327) 
This compound has an ester and may undergo hydrolysis at high or low pH. This compound contains an acetal/aminal-like group ( X-CH(R)-Y where X, Y are N, S, or O) that may be acid/base labile, releasing an aldehyde.

>  <s_lp_Force_Field>  (327) 
OPLS3e

>  <r_lp_Energy>  (327) 
246.079

>  <b_lp_Chiralities_Consistent>  (327) 
0

>  <s_lp_Variant>  (327) 
77:0-4

>  <s_i_glide_gridfile>  (327) 
pfpi4k_grid

>  <i_i_glide_lignum>  (327) 
41

>  <i_i_glide_rotatable_bonds>  (327) 
1

>  <r_i_docking_score>  (327) 
-2.99634

>  <r_i_glide_ligand_efficiency>  (327) 
-0.124848

>  <r_i_glide_ligand_efficiency_sa>  (327) 
-0.360123

>  <r_i_glide_ligand_efficiency_ln>  (327) 
-0.717162

>  <r_i_glide_gscore>  (327) 
-2.99634

>  <r_i_glide_lipo>  (327) 
-0.519407

>  <r_i_glide_hbond>  (327) 
0

>  <r_i_glide_metal>  (327) 
-0

>  <r_i_glide_rewards>  (327) 
-1.41967

>  <r_i_glide_evdw>  (327) 
-23.0908

>  <r_i_glide_ecoul>  (327) 
0.805226

>  <r_i_glide_erotb>  (327) 
0

>  <r_i_glide_esite>  (327) 
-0.0235052

>  <r_i_glide_emodel>  (327) 
-24.0862

>  <r_i_glide_energy>  (327) 
-22.2856

>  <r_i_glide_einternal>  (327) 
4.02551

>  <r_i_glide_intrahb_reward>  (327) 
-0

>  <i_i_glide_confnum>  (327) 
2

>  <i_i_glide_posenum>  (327) 
38

>  <r_i_glide_eff_state_penalty>  (327) 
0

>  <ligand_id>  (327) 
77

>  <original_smiles>  (327) 
CCN1CCOC2OC3CC4OC(=O)C2(C=CC4C)C(C=CO3)C1

>  <smiles>  (327) 
[H]C1=C([H])C2([H])C([H])([H])N(C([H])([H])C([H])([H])[H])C([H])([H])C([H])([H])OC3([H])OC([H])(O1)C([H])([H])C1([H])OC(=O)C32C([H])=C([H])C1([H])C([H])([H])[H]

$$$$
77:3:2
     RDKit          3D

 49 52  0  0  1  0  0  0  0  0999 V2000
    1.3213   -6.2658    0.6597 C   0  0  0  0  0  0  0  0  0  0  0  0
    1.5970   -5.7766    2.0958 C   0  0  0  0  0  0  0  0  0  0  0  0
    2.6198   -4.7372    2.1668 N   0  0  0  0  0  0  0  0  0  0  0  0
    2.7018   -4.1336    3.4983 C   0  0  0  0  0  0  0  0  0  0  0  0
    3.5493   -2.8451    3.5653 C   0  0  0  0  0  0  0  0  0  0  0  0
    4.8665   -2.9855    2.9991 O   0  0  0  0  0  0  0  0  0  0  0  0
    5.0761   -2.2358    1.8347 C   0  0  1  0  0  0  0  0  0  0  0  0
    6.4632   -1.9161    1.5222 O   0  0  0  0  0  0  0  0  0  0  0  0
    7.3451   -2.7233    0.6767 C   0  0  2  0  0  0  0  0  0  0  0  0
    7.1780   -2.9424   -0.9360 C   0  0  0  0  0  0  0  0  0  0  0  0
    5.8521   -2.6930   -1.7893 C   0  0  2  0  0  0  0  0  0  0  0  0
    5.3664   -1.4931   -1.3858 O   0  0  0  0  0  0  0  0  0  0  0  0
    4.6983   -1.4823   -0.2772 C   0  0  0  0  0  0  0  0  0  0  0  0
    4.2068   -0.4068    0.0864 O   0  0  0  0  0  0  0  0  0  0  0  0
    4.4425   -2.8611    0.5593 C   0  0  2  0  0  0  0  0  0  0  0  0
    3.1232   -2.9546   -0.1819 C   0  0  0  0  0  0  0  0  0  0  0  0
    3.2263   -3.3769   -1.4833 C   0  0  0  0  0  0  0  0  0  0  0  0
    4.6141   -3.6362   -2.2135 C   0  0  1  0  0  0  0  0  0  0  0  0
    4.3650   -3.5063   -3.7284 C   0  0  0  0  0  0  0  0  0  0  0  0
    4.7077   -4.5017    0.6716 C   0  0  1  0  0  0  0  0  0  0  0  0
    6.0870   -5.0807    0.6673 C   0  0  0  0  0  0  0  0  0  0  0  0
    6.9622   -4.7858    1.6258 C   0  0  0  0  0  0  0  0  0  0  0  0
    7.8843   -3.8607    1.2810 O   0  0  0  0  0  0  0  0  0  0  0  0
    3.9380   -5.2601    1.7919 C   0  0  0  0  0  0  0  0  0  0  0  0
    0.6370   -7.1154    0.6539 H   0  0  0  0  0  0  0  0  0  0  0  0
    2.2341   -6.5876    0.1643 H   0  0  0  0  0  0  0  0  0  0  0  0
    0.9151   -5.4808    0.0225 H   0  0  0  0  0  0  0  0  0  0  0  0
    0.6632   -5.3883    2.5013 H   0  0  0  0  0  0  0  0  0  0  0  0
    1.8717   -6.6161    2.7378 H   0  0  0  0  0  0  0  0  0  0  0  0
    1.6991   -3.8966    3.8548 H   0  0  0  0  0  0  0  0  0  0  0  0
    3.0973   -4.8598    4.2110 H   0  0  0  0  0  0  0  0  0  0  0  0
    2.9743   -2.0378    3.1060 H   0  0  0  0  0  0  0  0  0  0  0  0
    3.6708   -2.5553    4.6090 H   0  0  0  0  0  0  0  0  0  0  0  0
    4.6783   -1.2658    2.1503 H   0  0  0  0  0  0  0  0  0  0  0  0
    8.2190   -2.0799    0.7586 H   0  0  0  0  0  0  0  0  0  0  0  0
    7.8798   -2.2194   -1.3478 H   0  0  0  0  0  0  0  0  0  0  0  0
    7.6810   -3.8530   -1.2356 H   0  0  0  0  0  0  0  0  0  0  0  0
    6.2991   -2.4742   -2.7570 H   0  0  0  0  0  0  0  0  0  0  0  0
    2.1926   -2.7580    0.3317 H   0  0  0  0  0  0  0  0  0  0  0  0
    2.3279   -3.5388   -2.0623 H   0  0  0  0  0  0  0  0  0  0  0  0
    4.9153   -4.6757   -2.0974 H   0  0  0  0  0  0  0  0  0  0  0  0
    3.5940   -4.2068   -4.0537 H   0  0  0  0  0  0  0  0  0  0  0  0
    5.2630   -3.7461   -4.2989 H   0  0  0  0  0  0  0  0  0  0  0  0
    4.0338   -2.5014   -4.0043 H   0  0  0  0  0  0  0  0  0  0  0  0
    4.2869   -5.0492   -0.1615 H   0  0  0  0  0  0  0  0  0  0  0  0
    6.4501   -5.2636   -0.3179 H   0  0  0  0  0  0  0  0  0  0  0  0
    6.6081   -4.5018    2.6063 H   0  0  0  0  0  0  0  0  0  0  0  0
    4.5628   -5.3432    2.6820 H   0  0  0  0  0  0  0  0  0  0  0  0
    3.8680   -6.3036    1.4838 H   0  0  0  0  0  0  0  0  0  0  0  0
  1  2  1  0
  1 25  1  0
  1 26  1  0
  1 27  1  0
  2  3  1  0
  2 28  1  0
  2 29  1  0
  3 24  1  0
  3  4  1  0
  4  5  1  0
  4 30  1  0
  4 31  1  0
  5  6  1  0
  5 32  1  0
  5 33  1  0
  6  7  1  0
  7 15  1  0
  7  8  1  0
  7 34  1  1
  8  9  1  0
  9 23  1  0
  9 10  1  0
  9 35  1  6
 10 11  1  0
 10 36  1  0
 10 37  1  0
 11 18  1  0
 11 12  1  0
 11 38  1  6
 12 13  1  0
 13 14  2  0
 13 15  1  0
 15 16  1  1
 15 20  1  0
 16 17  2  0
 16 39  1  0
 17 18  1  0
 17 40  1  0
 18 19  1  0
 18 41  1  6
 19 42  1  0
 19 43  1  0
 19 44  1  0
 20 21  1  0
 20 24  1  0
 20 45  1  6
 21 22  2  3
 21 46  1  0
 22 23  1  0
 22 47  1  0
 24 48  1  0
 24 49  1  0
M  END
>  <i_m_ct_stereo_status>  (328) 
1

>  <s_m_source_file>  (328) 
/var/tmp/pbs.5076255.sched01/tmpnby3vxlc/96d7dj3887.sdf

>  <i_m_source_file_index>  (328) 
41

>  <i_lp_mmshare_version>  (328) 
48012

>  <i_f3d_flags>  (328) 
2

>  <s_epik_input>  (328) 
W0NAXTEyM1tDQEhdNE9bQ0gyXVtDSDJdTihbQ0gyXVtDSDNdKVtDSDJdW0NAQEhdMy9bQ0hdPVtDSF1cT1tDQEhdKE80KVtDSDJdW0NASF0oT0MxPU8pW0NASF0oW0NIM10pW0NIXT1bQ0hdMg==

>  <s_epik_cmdline>  (328) 
J2VwaWtfcHl0aG9uJywgJy1waHQnLCAnMi4wJywgJy1waCcsICc3LjAnLCAnLXRuJywgJzgnLCAnLW1hJywgJzIwMCcsICctaW1hZScsICc8aW5maWxlLm1hZT4nLCAnLW9tYWUnLCAnPG91dGZpbGUubWFlPic=

>  <r_epik_Ionization_Penalty>  (328) 
0.561938

>  <r_epik_Ionization_Penalty_Charging>  (328) 
0

>  <r_epik_Ionization_Penalty_Neutral>  (328) 
0.561938

>  <r_epik_State_Penalty>  (328) 
0.573168

>  <r_epik_Charging_Adjusted_Penalty>  (328) 
0.573168

>  <i_epik_Tot_Q>  (328) 
0

>  <i_epik_Tot_abs_Q>  (328) 
0

>  <s_epik_Chemistry_Notes>  (328) 
This compound has an ester and may undergo hydrolysis at high or low pH. This compound contains an acetal/aminal-like group ( X-CH(R)-Y where X, Y are N, S, or O) that may be acid/base labile, releasing an aldehyde.

>  <s_lp_Force_Field>  (328) 
OPLS3e

>  <r_lp_Energy>  (328) 
246.079

>  <b_lp_Chiralities_Consistent>  (328) 
0

>  <s_lp_Variant>  (328) 
77:0-4

>  <s_i_glide_gridfile>  (328) 
pfpi4k_grid

>  <i_i_glide_lignum>  (328) 
41

>  <i_i_glide_rotatable_bonds>  (328) 
1

>  <r_i_docking_score>  (328) 
-2.8732

>  <r_i_glide_ligand_efficiency>  (328) 
-0.119717

>  <r_i_glide_ligand_efficiency_sa>  (328) 
-0.345323

>  <r_i_glide_ligand_efficiency_ln>  (328) 
-0.687688

>  <r_i_glide_gscore>  (328) 
-2.8732

>  <r_i_glide_lipo>  (328) 
-0.49215

>  <r_i_glide_hbond>  (328) 
0

>  <r_i_glide_metal>  (328) 
-0

>  <r_i_glide_rewards>  (328) 
-1.35256

>  <r_i_glide_evdw>  (328) 
-23.2095

>  <r_i_glide_ecoul>  (328) 
1.03102

>  <r_i_glide_erotb>  (328) 
0

>  <r_i_glide_esite>  (328) 
-0.0226732

>  <r_i_glide_emodel>  (328) 
-25.499

>  <r_i_glide_energy>  (328) 
-22.1784

>  <r_i_glide_einternal>  (328) 
0.529464

>  <r_i_glide_intrahb_reward>  (328) 
-0

>  <i_i_glide_confnum>  (328) 
2

>  <i_i_glide_posenum>  (328) 
1

>  <r_i_glide_eff_state_penalty>  (328) 
0

>  <ligand_id>  (328) 
77

>  <original_smiles>  (328) 
CCN1CCOC2OC3CC4OC(=O)C2(C=CC4C)C(C=CO3)C1

>  <smiles>  (328) 
[H]C1=C([H])C2([H])C([H])([H])N(C([H])([H])C([H])([H])[H])C([H])([H])C([H])([H])OC3([H])OC([H])(O1)C([H])([H])C1([H])OC(=O)C32C([H])=C([H])C1([H])C([H])([H])[H]

$$$$
79:0:0
     RDKit          3D

 52 56  0  0  1  0  0  0  0  0999 V2000
    0.4401    1.2615    1.5140 C   0  0  0  0  0  0  0  0  0  0  0  0
    0.7513    1.5465    2.8709 O   0  0  0  0  0  0  0  0  0  0  0  0
    0.7140    0.4715    3.7256 C   0  0  0  0  0  0  0  0  0  0  0  0
    0.1476    0.6566    4.9980 C   0  0  0  0  0  0  0  0  0  0  0  0
    0.0201   -0.4230    5.9125 C   0  0  0  0  0  0  0  0  0  0  0  0
   -0.5824   -0.2733    7.1518 O   0  0  0  0  0  0  0  0  0  0  0  0
   -0.9584    1.0217    7.5986 C   0  0  0  0  0  0  0  0  0  0  0  0
    0.5075   -1.7154    5.5426 C   0  0  0  0  0  0  0  0  0  0  0  0
    1.1640   -1.8733    4.2831 C   0  0  0  0  0  0  0  0  0  0  0  0
    1.2489   -0.7882    3.3891 C   0  0  0  0  0  0  0  0  0  0  0  0
    1.7816   -3.1678    3.8564 C   0  0  0  0  0  0  0  0  0  0  0  0
    2.2096   -3.3760    2.7216 O   0  0  0  0  0  0  0  0  0  0  0  0
    1.9495   -4.2424    4.9493 C   0  0  1  0  0  0  0  0  0  0  0  0
    3.1998   -3.8537    5.7802 C   0  0  0  0  0  0  0  0  0  0  0  0
    0.6881   -4.2096    5.8217 C   0  0  0  0  0  0  0  0  0  0  0  0
   -0.1617   -5.2503    5.9324 C   0  0  0  0  0  0  0  0  0  0  0  0
   -0.0418   -6.5277    5.1123 C   0  0  2  0  0  0  0  0  0  0  0  0
   -1.3529   -6.9087    4.7308 O   0  0  0  0  0  0  0  0  0  0  0  0
    0.6654   -7.6761    5.8782 C   0  0  1  0  0  0  0  0  0  0  0  0
    0.6009   -8.9948    5.0615 C   0  0  0  0  0  0  0  0  0  0  0  0
    0.9050   -8.8002    3.5795 C   0  0  0  0  0  0  0  0  0  0  0  0
    1.0642  -10.0630    2.7553 C   0  0  0  0  0  0  0  0  0  0  0  0
    1.0023   -7.5670    3.0433 C   0  0  0  0  0  0  0  0  0  0  0  0
    0.7919   -6.2847    3.8404 C   0  0  2  0  0  0  0  0  0  0  0  0
    2.1330   -5.6743    4.3185 C   0  0  2  0  0  0  0  0  0  0  0  0
    2.7896   -6.5472    5.2613 O   0  0  0  0  0  0  0  0  0  0  0  0
    2.1420   -7.3304    6.1740 C   0  0  0  0  0  0  0  0  0  0  0  0
    2.7052   -7.8113    7.1501 O   0  0  0  0  0  0  0  0  0  0  0  0
    0.3096   -2.9159    6.4338 C   0  0  0  0  0  0  0  0  0  0  0  0
   -0.1782   -2.8655    7.5649 O   0  0  0  0  0  0  0  0  0  0  0  0
    0.5921    2.1488    0.9060 H   0  0  0  0  0  0  0  0  0  0  0  0
   -0.6093    0.9860    1.4206 H   0  0  0  0  0  0  0  0  0  0  0  0
    1.0589    0.4998    1.0482 H   0  0  0  0  0  0  0  0  0  0  0  0
   -0.2285    1.6447    5.2264 H   0  0  0  0  0  0  0  0  0  0  0  0
   -1.3988    0.9359    8.5930 H   0  0  0  0  0  0  0  0  0  0  0  0
   -1.7094    1.4737    6.9478 H   0  0  0  0  0  0  0  0  0  0  0  0
   -0.0912    1.6780    7.6844 H   0  0  0  0  0  0  0  0  0  0  0  0
    1.7520   -0.9320    2.4450 H   0  0  0  0  0  0  0  0  0  0  0  0
    3.1863   -2.8110    6.0964 H   0  0  0  0  0  0  0  0  0  0  0  0
    4.1149   -3.9985    5.2068 H   0  0  0  0  0  0  0  0  0  0  0  0
    3.2809   -4.4509    6.6886 H   0  0  0  0  0  0  0  0  0  0  0  0
   -1.0549   -5.1623    6.5378 H   0  0  0  0  0  0  0  0  0  0  0  0
   -1.3230   -7.8248    4.4782 H   0  0  0  0  0  0  0  0  0  0  0  0
    0.1861   -7.8362    6.8440 H   0  0  0  0  0  0  0  0  0  0  0  0
    1.2998   -9.7255    5.4748 H   0  0  0  0  0  0  0  0  0  0  0  0
   -0.3892   -9.4434    5.1637 H   0  0  0  0  0  0  0  0  0  0  0  0
    0.1685  -10.6823    2.8214 H   0  0  0  0  0  0  0  0  0  0  0  0
    1.9133  -10.6511    3.1065 H   0  0  0  0  0  0  0  0  0  0  0  0
    1.2327   -9.8264    1.7044 H   0  0  0  0  0  0  0  0  0  0  0  0
    1.2174   -7.4538    1.9935 H   0  0  0  0  0  0  0  0  0  0  0  0
    0.2604   -5.5890    3.1926 H   0  0  0  0  0  0  0  0  0  0  0  0
    2.7956   -5.6018    3.4537 H   0  0  0  0  0  0  0  0  0  0  0  0
  1  2  1  0
  1 31  1  0
  1 32  1  0
  1 33  1  0
  2  3  1  0
  3 10  2  0
  3  4  1  0
  4  5  2  0
  4 34  1  0
  5  6  1  0
  5  8  1  0
  6  7  1  0
  7 35  1  0
  7 36  1  0
  7 37  1  0
  8 29  1  0
  8  9  2  0
  9 10  1  0
  9 11  1  0
 10 38  1  0
 11 12  2  0
 11 13  1  0
 13 25  1  0
 13 14  1  1
 13 15  1  0
 14 39  1  0
 14 40  1  0
 14 41  1  0
 15 16  2  0
 15 29  1  0
 16 17  1  0
 16 42  1  0
 17 24  1  0
 17 18  1  6
 17 19  1  0
 18 43  1  0
 19 27  1  0
 19 20  1  0
 19 44  1  1
 20 21  1  0
 20 45  1  0
 20 46  1  0
 21 22  1  0
 21 23  2  0
 22 47  1  0
 22 48  1  0
 22 49  1  0
 23 24  1  0
 23 50  1  0
 24 25  1  0
 24 51  1  6
 25 26  1  0
 25 52  1  6
 26 27  1  0
 27 28  2  0
 29 30  2  0
M  END
>  <i_m_ct_stereo_status>  (329) 
1

>  <s_m_source_file>  (329) 
/var/tmp/pbs.5076255.sched01/tmpnby3vxlc/96d7dj3887.sdf

>  <i_m_source_file_index>  (329) 
43

>  <i_lp_mmshare_version>  (329) 
48012

>  <i_f3d_flags>  (329) 
0

>  <s_epik_input>  (329) 
W0NIM11PYzFbY0hdYyhPW0NIM10pW2NIXWMoQzI9TyljMUMoPU8pQyhbQ0BdMjNbQ0gzXSk9W0NIXVtDQF00KFtPSF0pW0NASF01W0NIMl1DKFtDSDNdKT1bQ0hdW0NAQEhdNFtDQEBIXTNPQzU9Tw==

>  <s_epik_cmdline>  (329) 
J2VwaWtfcHl0aG9uJywgJy1waHQnLCAnMi4wJywgJy1waCcsICc3LjAnLCAnLXRuJywgJzgnLCAnLW1hJywgJzIwMCcsICctaW1hZScsICc8aW5maWxlLm1hZT4nLCAnLW9tYWUnLCAnPG91dGZpbGUubWFlPic=

>  <r_lp_tautomer_probability>  (329) 
1

>  <r_epik_Ionization_Penalty>  (329) 
3.46062e-05

>  <r_epik_Ionization_Penalty_Charging>  (329) 
0

>  <r_epik_Ionization_Penalty_Neutral>  (329) 
3.46062e-05

>  <r_epik_State_Penalty>  (329) 
-0

>  <r_epik_Charging_Adjusted_Penalty>  (329) 
0

>  <i_epik_Tot_Q>  (329) 
0

>  <i_epik_Tot_abs_Q>  (329) 
0

>  <s_epik_Chemistry_Notes>  (329) 
This compound has an ester and may undergo hydrolysis at high or low pH.

>  <s_lp_Force_Field>  (329) 
OPLS3e

>  <r_lp_Energy>  (329) 
55.2733

>  <b_lp_Chiralities_Consistent>  (329) 
1

>  <s_lp_Variant>  (329) 
79:0-1

>  <s_i_glide_gridfile>  (329) 
pfpi4k_grid

>  <i_i_glide_lignum>  (329) 
43

>  <i_i_glide_rotatable_bonds>  (329) 
3

>  <r_i_docking_score>  (329) 
-2.5081

>  <r_i_glide_ligand_efficiency>  (329) 
-0.0836034

>  <r_i_glide_ligand_efficiency_sa>  (329) 
-0.259775

>  <r_i_glide_ligand_efficiency_ln>  (329) 
-0.569868

>  <r_i_glide_gscore>  (329) 
-2.5081

>  <r_i_glide_lipo>  (329) 
-0.141872

>  <r_i_glide_hbond>  (329) 
-0.0682234

>  <r_i_glide_metal>  (329) 
-0

>  <r_i_glide_rewards>  (329) 
-0.631127

>  <r_i_glide_evdw>  (329) 
-21.3772

>  <r_i_glide_ecoul>  (329) 
-3.89313

>  <r_i_glide_erotb>  (329) 
0

>  <r_i_glide_esite>  (329) 
-0.0140534

>  <r_i_glide_emodel>  (329) 
-27.2733

>  <r_i_glide_energy>  (329) 
-25.2703

>  <r_i_glide_einternal>  (329) 
5.05386

>  <r_i_glide_intrahb_reward>  (329) 
-0

>  <i_i_glide_confnum>  (329) 
2

>  <i_i_glide_posenum>  (329) 
34

>  <r_i_glide_eff_state_penalty>  (329) 
0

>  <ligand_id>  (329) 
79

>  <original_smiles>  (329) 
COc1cc(OC)c2c(c1)C(=O)C1(C)C(=CC3(O)C4CC(C)=CC3C1OC4=O)C2=O

>  <smiles>  (329) 
[H]OC12C([H])=C3C(=O)c4c(OC([H])([H])[H])c([H])c(OC([H])([H])[H])c([H])c4C(=O)C3(C([H])([H])[H])C3([H])OC(=O)C1([H])C([H])([H])C(C([H])([H])[H])=C([H])C32[H]

$$$$
79:0:1
     RDKit          3D

 52 56  0  0  1  0  0  0  0  0999 V2000
    0.8288    1.6837    2.1050 C   0  0  0  0  0  0  0  0  0  0  0  0
    1.4330    0.4022    2.1642 O   0  0  0  0  0  0  0  0  0  0  0  0
    1.0205   -0.4809    3.1411 C   0  0  0  0  0  0  0  0  0  0  0  0
    0.0155   -0.2074    4.0940 C   0  0  0  0  0  0  0  0  0  0  0  0
   -0.3754   -1.1821    5.0508 C   0  0  0  0  0  0  0  0  0  0  0  0
   -1.3745   -0.9337    5.9768 O   0  0  0  0  0  0  0  0  0  0  0  0
   -1.9778    0.3512    6.0169 C   0  0  0  0  0  0  0  0  0  0  0  0
    0.2681   -2.4580    5.0625 C   0  0  0  0  0  0  0  0  0  0  0  0
    1.3186   -2.7105    4.1277 C   0  0  0  0  0  0  0  0  0  0  0  0
    1.6627   -1.7290    3.1718 C   0  0  0  0  0  0  0  0  0  0  0  0
    2.0856   -4.0007    4.1157 C   0  0  0  0  0  0  0  0  0  0  0  0
    2.8815   -4.3059    3.2282 O   0  0  0  0  0  0  0  0  0  0  0  0
    1.9115   -4.9214    5.3452 C   0  0  1  0  0  0  0  0  0  0  0  0
    2.7845   -4.3358    6.4838 C   0  0  0  0  0  0  0  0  0  0  0  0
    0.4303   -4.8762    5.7300 C   0  0  0  0  0  0  0  0  0  0  0  0
   -0.3737   -5.9575    5.7035 C   0  0  0  0  0  0  0  0  0  0  0  0
    0.0459   -7.3203    5.1695 C   0  0  2  0  0  0  0  0  0  0  0  0
   -1.0740   -7.8493    4.4715 O   0  0  0  0  0  0  0  0  0  0  0  0
    0.4948   -8.3047    6.2817 C   0  0  1  0  0  0  0  0  0  0  0  0
    0.7581   -9.7128    5.6906 C   0  0  0  0  0  0  0  0  0  0  0  0
    1.5388   -9.6843    4.3801 C   0  0  0  0  0  0  0  0  0  0  0  0
    2.0110  -11.0258    3.8514 C   0  0  0  0  0  0  0  0  0  0  0  0
    1.7746   -8.5243    3.7374 C   0  0  0  0  0  0  0  0  0  0  0  0
    1.2569   -7.1755    4.2225 C   0  0  2  0  0  0  0  0  0  0  0  0
    2.3377   -6.4025    5.0237 C   0  0  2  0  0  0  0  0  0  0  0  0
    2.6608   -7.0936    6.2496 O   0  0  0  0  0  0  0  0  0  0  0  0
    1.7633   -7.8031    7.0003 C   0  0  0  0  0  0  0  0  0  0  0  0
    1.9631   -8.1097    8.1698 O   0  0  0  0  0  0  0  0  0  0  0  0
   -0.1735   -3.5522    5.9999 C   0  0  0  0  0  0  0  0  0  0  0  0
   -1.0008   -3.4037    6.9011 O   0  0  0  0  0  0  0  0  0  0  0  0
    1.2711    2.2422    1.2831 H   0  0  0  0  0  0  0  0  0  0  0  0
    1.0087    2.2438    3.0233 H   0  0  0  0  0  0  0  0  0  0  0  0
   -0.2445    1.6194    1.9220 H   0  0  0  0  0  0  0  0  0  0  0  0
   -0.4731    0.7525    4.0676 H   0  0  0  0  0  0  0  0  0  0  0  0
   -2.7381    0.3810    6.7988 H   0  0  0  0  0  0  0  0  0  0  0  0
   -2.4736    0.5745    5.0722 H   0  0  0  0  0  0  0  0  0  0  0  0
   -1.2452    1.1267    6.2460 H   0  0  0  0  0  0  0  0  0  0  0  0
    2.4407   -1.9230    2.4468 H   0  0  0  0  0  0  0  0  0  0  0  0
    2.6282   -3.2669    6.6247 H   0  0  0  0  0  0  0  0  0  0  0  0
    3.8435   -4.4781    6.2781 H   0  0  0  0  0  0  0  0  0  0  0  0
    2.5659   -4.8092    7.4403 H   0  0  0  0  0  0  0  0  0  0  0  0
   -1.4233   -5.8553    5.9558 H   0  0  0  0  0  0  0  0  0  0  0  0
   -1.0467   -8.7995    4.5361 H   0  0  0  0  0  0  0  0  0  0  0  0
   -0.2731   -8.3883    7.0456 H   0  0  0  0  0  0  0  0  0  0  0  0
    1.3072  -10.3141    6.4156 H   0  0  0  0  0  0  0  0  0  0  0  0
   -0.1779  -10.2334    5.5211 H   0  0  0  0  0  0  0  0  0  0  0  0
    1.1676  -11.7006    3.7069 H   0  0  0  0  0  0  0  0  0  0  0  0
    2.7043  -11.4943    4.5504 H   0  0  0  0  0  0  0  0  0  0  0  0
    2.5183  -10.9118    2.8934 H   0  0  0  0  0  0  0  0  0  0  0  0
    2.3303   -8.5218    2.8115 H   0  0  0  0  0  0  0  0  0  0  0  0
    0.9584   -6.6141    3.3373 H   0  0  0  0  0  0  0  0  0  0  0  0
    3.2543   -6.3889    4.4323 H   0  0  0  0  0  0  0  0  0  0  0  0
  1  2  1  0
  1 31  1  0
  1 32  1  0
  1 33  1  0
  2  3  1  0
  3 10  2  0
  3  4  1  0
  4  5  2  0
  4 34  1  0
  5  6  1  0
  5  8  1  0
  6  7  1  0
  7 35  1  0
  7 36  1  0
  7 37  1  0
  8 29  1  0
  8  9  2  0
  9 10  1  0
  9 11  1  0
 10 38  1  0
 11 12  2  0
 11 13  1  0
 13 25  1  0
 13 14  1  1
 13 15  1  0
 14 39  1  0
 14 40  1  0
 14 41  1  0
 15 16  2  0
 15 29  1  0
 16 17  1  0
 16 42  1  0
 17 24  1  0
 17 18  1  6
 17 19  1  0
 18 43  1  0
 19 27  1  0
 19 20  1  0
 19 44  1  1
 20 21  1  0
 20 45  1  0
 20 46  1  0
 21 22  1  0
 21 23  2  0
 22 47  1  0
 22 48  1  0
 22 49  1  0
 23 24  1  0
 23 50  1  0
 24 25  1  0
 24 51  1  6
 25 26  1  0
 25 52  1  6
 26 27  1  0
 27 28  2  0
 29 30  2  0
M  END
>  <i_m_ct_stereo_status>  (330) 
1

>  <s_m_source_file>  (330) 
/var/tmp/pbs.5076255.sched01/tmpnby3vxlc/96d7dj3887.sdf

>  <i_m_source_file_index>  (330) 
43

>  <i_lp_mmshare_version>  (330) 
48012

>  <i_f3d_flags>  (330) 
0

>  <s_epik_input>  (330) 
W0NIM11PYzFbY0hdYyhPW0NIM10pW2NIXWMoQzI9TyljMUMoPU8pQyhbQ0BdMjNbQ0gzXSk9W0NIXVtDQF00KFtPSF0pW0NASF01W0NIMl1DKFtDSDNdKT1bQ0hdW0NAQEhdNFtDQEBIXTNPQzU9Tw==

>  <s_epik_cmdline>  (330) 
J2VwaWtfcHl0aG9uJywgJy1waHQnLCAnMi4wJywgJy1waCcsICc3LjAnLCAnLXRuJywgJzgnLCAnLW1hJywgJzIwMCcsICctaW1hZScsICc8aW5maWxlLm1hZT4nLCAnLW9tYWUnLCAnPG91dGZpbGUubWFlPic=

>  <r_lp_tautomer_probability>  (330) 
1

>  <r_epik_Ionization_Penalty>  (330) 
3.46062e-05

>  <r_epik_Ionization_Penalty_Charging>  (330) 
0

>  <r_epik_Ionization_Penalty_Neutral>  (330) 
3.46062e-05

>  <r_epik_State_Penalty>  (330) 
-0

>  <r_epik_Charging_Adjusted_Penalty>  (330) 
0

>  <i_epik_Tot_Q>  (330) 
0

>  <i_epik_Tot_abs_Q>  (330) 
0

>  <s_epik_Chemistry_Notes>  (330) 
This compound has an ester and may undergo hydrolysis at high or low pH.

>  <s_lp_Force_Field>  (330) 
OPLS3e

>  <r_lp_Energy>  (330) 
55.2733

>  <b_lp_Chiralities_Consistent>  (330) 
1

>  <s_lp_Variant>  (330) 
79:0-1

>  <s_i_glide_gridfile>  (330) 
pfpi4k_grid

>  <i_i_glide_lignum>  (330) 
43

>  <i_i_glide_rotatable_bonds>  (330) 
3

>  <r_i_docking_score>  (330) 
-2.44399

>  <r_i_glide_ligand_efficiency>  (330) 
-0.0814664

>  <r_i_glide_ligand_efficiency_sa>  (330) 
-0.253135

>  <r_i_glide_ligand_efficiency_ln>  (330) 
-0.555302

>  <r_i_glide_gscore>  (330) 
-2.44399

>  <r_i_glide_lipo>  (330) 
-0.0450503

>  <r_i_glide_hbond>  (330) 
-0.0442574

>  <r_i_glide_metal>  (330) 
-0

>  <r_i_glide_rewards>  (330) 
-0.611577

>  <r_i_glide_evdw>  (330) 
-24.3778

>  <r_i_glide_ecoul>  (330) 
-3.34416

>  <r_i_glide_erotb>  (330) 
0

>  <r_i_glide_esite>  (330) 
-0.0225943

>  <r_i_glide_emodel>  (330) 
-32.0378

>  <r_i_glide_energy>  (330) 
-27.722

>  <r_i_glide_einternal>  (330) 
0.619343

>  <r_i_glide_intrahb_reward>  (330) 
-0

>  <i_i_glide_confnum>  (330) 
1

>  <i_i_glide_posenum>  (330) 
22

>  <r_i_glide_eff_state_penalty>  (330) 
0

>  <ligand_id>  (330) 
79

>  <original_smiles>  (330) 
COc1cc(OC)c2c(c1)C(=O)C1(C)C(=CC3(O)C4CC(C)=CC3C1OC4=O)C2=O

>  <smiles>  (330) 
[H]OC12C([H])=C3C(=O)c4c(OC([H])([H])[H])c([H])c(OC([H])([H])[H])c([H])c4C(=O)C3(C([H])([H])[H])C3([H])OC(=O)C1([H])C([H])([H])C(C([H])([H])[H])=C([H])C32[H]

$$$$
79:0:2
     RDKit          3D

 52 56  0  0  1  0  0  0  0  0999 V2000
    2.8517    0.0734    1.5404 C   0  0  0  0  0  0  0  0  0  0  0  0
    1.7375    0.3873    2.3717 O   0  0  0  0  0  0  0  0  0  0  0  0
    1.3225   -0.5946    3.2579 C   0  0  0  0  0  0  0  0  0  0  0  0
    0.2347   -0.2990    4.0981 C   0  0  0  0  0  0  0  0  0  0  0  0
   -0.2780   -1.2507    5.0303 C   0  0  0  0  0  0  0  0  0  0  0  0
   -1.3474   -1.0050    5.8764 O   0  0  0  0  0  0  0  0  0  0  0  0
   -2.0883    0.1905    5.7149 C   0  0  0  0  0  0  0  0  0  0  0  0
    0.3475   -2.5412    5.1185 C   0  0  0  0  0  0  0  0  0  0  0  0
    1.4590   -2.8243    4.2916 C   0  0  0  0  0  0  0  0  0  0  0  0
    1.9303   -1.8760    3.3743 C   0  0  0  0  0  0  0  0  0  0  0  0
    2.2144   -4.1240    4.3307 C   0  0  0  0  0  0  0  0  0  0  0  0
    3.0799   -4.4330    3.5200 O   0  0  0  0  0  0  0  0  0  0  0  0
    1.9483   -5.0269    5.5262 C   0  0  1  0  0  0  0  0  0  0  0  0
    2.7334   -4.4497    6.7289 C   0  0  0  0  0  0  0  0  0  0  0  0
    0.4459   -4.9635    5.7879 C   0  0  0  0  0  0  0  0  0  0  0  0
   -0.3600   -6.0409    5.6738 C   0  0  0  0  0  0  0  0  0  0  0  0
    0.0934   -7.3978    5.1592 C   0  0  2  0  0  0  0  0  0  0  0  0
   -0.9699   -7.9027    4.3683 O   0  0  0  0  0  0  0  0  0  0  0  0
    0.4488   -8.3848    6.2867 C   0  0  1  0  0  0  0  0  0  0  0  0
    0.7566   -9.7858    5.7040 C   0  0  0  0  0  0  0  0  0  0  0  0
    1.6368   -9.7598    4.4629 C   0  0  0  0  0  0  0  0  0  0  0  0
    2.1394  -11.1018    3.9715 C   0  0  0  0  0  0  0  0  0  0  0  0
    1.9338   -8.5965    3.8580 C   0  0  0  0  0  0  0  0  0  0  0  0
    1.3815   -7.2537    4.3126 C   0  0  2  0  0  0  0  0  0  0  0  0
    2.3946   -6.5009    5.2080 C   0  0  2  0  0  0  0  0  0  0  0  0
    2.6117   -7.2051    6.4466 O   0  0  0  0  0  0  0  0  0  0  0  0
    1.6372   -7.9057    7.1186 C   0  0  0  0  0  0  0  0  0  0  0  0
    1.7114   -8.2343    8.2951 O   0  0  0  0  0  0  0  0  0  0  0  0
   -0.1770   -3.6395    6.0144 C   0  0  0  0  0  0  0  0  0  0  0  0
   -1.0595   -3.4864    6.8519 O   0  0  0  0  0  0  0  0  0  0  0  0
    3.1315    0.9049    0.8862 H   0  0  0  0  0  0  0  0  0  0  0  0
    2.6499   -0.7905    0.8978 H   0  0  0  0  0  0  0  0  0  0  0  0
    3.7378   -0.1424    2.1425 H   0  0  0  0  0  0  0  0  0  0  0  0
   -0.2114    0.6933    3.9996 H   0  0  0  0  0  0  0  0  0  0  0  0
   -2.8840    0.2016    6.4599 H   0  0  0  0  0  0  0  0  0  0  0  0
   -2.5504    0.2227    4.7276 H   0  0  0  0  0  0  0  0  0  0  0  0
   -1.4790    1.0802    5.8821 H   0  0  0  0  0  0  0  0  0  0  0  0
    2.7763   -2.1835    2.7765 H   0  0  0  0  0  0  0  0  0  0  0  0
    2.5689   -3.3806    6.8528 H   0  0  0  0  0  0  0  0  0  0  0  0
    3.8042   -4.5951    6.6042 H   0  0  0  0  0  0  0  0  0  0  0  0
    2.4297   -4.9260    7.6600 H   0  0  0  0  0  0  0  0  0  0  0  0
   -1.4288   -5.9279    5.8090 H   0  0  0  0  0  0  0  0  0  0  0  0
   -0.9852   -8.8523    4.4698 H   0  0  0  0  0  0  0  0  0  0  0  0
   -0.3849   -8.4893    6.9820 H   0  0  0  0  0  0  0  0  0  0  0  0
    1.2363  -10.3936    6.4654 H   0  0  0  0  0  0  0  0  0  0  0  0
   -0.1786  -10.3028    5.4439 H   0  0  0  0  0  0  0  0  0  0  0  0
    1.3071  -11.7692    3.7504 H   0  0  0  0  0  0  0  0  0  0  0  0
    2.7651  -11.5833    4.7243 H   0  0  0  0  0  0  0  0  0  0  0  0
    2.7263  -10.9842    3.0619 H   0  0  0  0  0  0  0  0  0  0  0  0
    2.5651   -8.5800    2.9856 H   0  0  0  0  0  0  0  0  0  0  0  0
    1.1601   -6.6879    3.4122 H   0  0  0  0  0  0  0  0  0  0  0  0
    3.3611   -6.4853    4.6937 H   0  0  0  0  0  0  0  0  0  0  0  0
  1  2  1  0
  1 31  1  0
  1 32  1  0
  1 33  1  0
  2  3  1  0
  3 10  2  0
  3  4  1  0
  4  5  2  0
  4 34  1  0
  5  6  1  0
  5  8  1  0
  6  7  1  0
  7 35  1  0
  7 36  1  0
  7 37  1  0
  8 29  1  0
  8  9  2  0
  9 10  1  0
  9 11  1  0
 10 38  1  0
 11 12  2  0
 11 13  1  0
 13 25  1  0
 13 14  1  1
 13 15  1  0
 14 39  1  0
 14 40  1  0
 14 41  1  0
 15 16  2  0
 15 29  1  0
 16 17  1  0
 16 42  1  0
 17 24  1  0
 17 18  1  6
 17 19  1  0
 18 43  1  0
 19 27  1  0
 19 20  1  0
 19 44  1  1
 20 21  1  0
 20 45  1  0
 20 46  1  0
 21 22  1  0
 21 23  2  0
 22 47  1  0
 22 48  1  0
 22 49  1  0
 23 24  1  0
 23 50  1  0
 24 25  1  0
 24 51  1  6
 25 26  1  0
 25 52  1  6
 26 27  1  0
 27 28  2  0
 29 30  2  0
M  END
>  <i_m_ct_stereo_status>  (331) 
1

>  <s_m_source_file>  (331) 
/var/tmp/pbs.5076255.sched01/tmpnby3vxlc/96d7dj3887.sdf

>  <i_m_source_file_index>  (331) 
43

>  <i_lp_mmshare_version>  (331) 
48012

>  <i_f3d_flags>  (331) 
0

>  <s_epik_input>  (331) 
W0NIM11PYzFbY0hdYyhPW0NIM10pW2NIXWMoQzI9TyljMUMoPU8pQyhbQ0BdMjNbQ0gzXSk9W0NIXVtDQF00KFtPSF0pW0NASF01W0NIMl1DKFtDSDNdKT1bQ0hdW0NAQEhdNFtDQEBIXTNPQzU9Tw==

>  <s_epik_cmdline>  (331) 
J2VwaWtfcHl0aG9uJywgJy1waHQnLCAnMi4wJywgJy1waCcsICc3LjAnLCAnLXRuJywgJzgnLCAnLW1hJywgJzIwMCcsICctaW1hZScsICc8aW5maWxlLm1hZT4nLCAnLW9tYWUnLCAnPG91dGZpbGUubWFlPic=

>  <r_lp_tautomer_probability>  (331) 
1

>  <r_epik_Ionization_Penalty>  (331) 
3.46062e-05

>  <r_epik_Ionization_Penalty_Charging>  (331) 
0

>  <r_epik_Ionization_Penalty_Neutral>  (331) 
3.46062e-05

>  <r_epik_State_Penalty>  (331) 
-0

>  <r_epik_Charging_Adjusted_Penalty>  (331) 
0

>  <i_epik_Tot_Q>  (331) 
0

>  <i_epik_Tot_abs_Q>  (331) 
0

>  <s_epik_Chemistry_Notes>  (331) 
This compound has an ester and may undergo hydrolysis at high or low pH.

>  <s_lp_Force_Field>  (331) 
OPLS3e

>  <r_lp_Energy>  (331) 
55.2733

>  <b_lp_Chiralities_Consistent>  (331) 
1

>  <s_lp_Variant>  (331) 
79:0-1

>  <s_i_glide_gridfile>  (331) 
pfpi4k_grid

>  <i_i_glide_lignum>  (331) 
43

>  <i_i_glide_rotatable_bonds>  (331) 
3

>  <r_i_docking_score>  (331) 
-2.39144

>  <r_i_glide_ligand_efficiency>  (331) 
-0.0797146

>  <r_i_glide_ligand_efficiency_sa>  (331) 
-0.247692

>  <r_i_glide_ligand_efficiency_ln>  (331) 
-0.543361

>  <r_i_glide_gscore>  (331) 
-2.39144

>  <r_i_glide_lipo>  (331) 
-0.0152126

>  <r_i_glide_hbond>  (331) 
-0.02182

>  <r_i_glide_metal>  (331) 
-0

>  <r_i_glide_rewards>  (331) 
-0.610854

>  <r_i_glide_evdw>  (331) 
-23.8482

>  <r_i_glide_ecoul>  (331) 
-3.5049

>  <r_i_glide_erotb>  (331) 
0

>  <r_i_glide_esite>  (331) 
-0.025408

>  <r_i_glide_emodel>  (331) 
-29.3421

>  <r_i_glide_energy>  (331) 
-27.3531

>  <r_i_glide_einternal>  (331) 
4.39338

>  <r_i_glide_intrahb_reward>  (331) 
-0

>  <i_i_glide_confnum>  (331) 
1

>  <i_i_glide_posenum>  (331) 
26

>  <r_i_glide_eff_state_penalty>  (331) 
0

>  <ligand_id>  (331) 
79

>  <original_smiles>  (331) 
COc1cc(OC)c2c(c1)C(=O)C1(C)C(=CC3(O)C4CC(C)=CC3C1OC4=O)C2=O

>  <smiles>  (331) 
[H]OC12C([H])=C3C(=O)c4c(OC([H])([H])[H])c([H])c(OC([H])([H])[H])c([H])c4C(=O)C3(C([H])([H])[H])C3([H])OC(=O)C1([H])C([H])([H])C(C([H])([H])[H])=C([H])C32[H]

$$$$
80:0:0
     RDKit          3D

 80 85  0  0  1  0  0  0  0  0999 V2000
    1.0930    0.2557    2.6506 C   0  0  0  0  0  0  0  0  0  0  0  0
    2.2787   -0.3039    3.4657 C   0  0  0  0  0  0  0  0  0  0  0  0
    3.6100    0.3073    2.9810 C   0  0  0  0  0  0  0  0  0  0  0  0
    2.2540   -1.8556    3.7135 C   0  0  2  0  0  0  0  0  0  0  0  0
    3.0876   -2.1605    4.9916 N   0  0  0  0  0  0  0  0  0  0  0  0
    3.8453   -3.4856    5.1873 C   0  0  0  0  0  0  0  0  0  0  0  0
    3.6176   -4.2986    3.9435 C   0  0  1  0  0  0  0  0  0  0  0  0
    2.0863   -4.6304    3.9936 C   0  0  0  0  0  0  0  0  0  0  0  0
    2.0552   -4.4450    2.5428 C   0  0  2  0  0  0  0  0  0  0  0  0
    3.0879   -5.6712    2.1804 C   0  0  1  0  0  0  0  0  0  0  0  0
    3.6446   -5.6590    0.6811 C   0  0  0  0  0  0  0  0  0  0  0  0
    5.1220   -5.2508    0.2572 C   0  0  0  0  0  0  0  0  0  0  0  0
    5.6991   -3.7825    0.0285 C   0  0  2  0  0  0  0  0  0  0  0  0
    5.7562   -2.5449    1.0305 C   0  0  2  0  0  0  0  0  0  0  0  0
    5.2778   -2.4526    2.5594 C   0  0  0  0  0  0  0  0  0  0  0  0
    3.9671   -3.2814    2.7711 C   0  0  2  0  0  0  0  0  0  0  0  0
    2.5800   -2.8891    2.4964 C   0  0  2  0  0  0  0  0  0  0  0  0
    2.2921   -2.3276    1.1110 C   0  0  0  0  0  0  0  0  0  0  0  0
    5.1198   -1.5062    0.2999 O   0  0  0  0  0  0  0  0  0  0  0  0
    5.4943   -1.6561   -1.0542 C   0  0  2  0  0  0  0  0  0  0  0  0
    4.6974   -0.7821   -2.0149 C   0  0  0  0  0  0  0  0  0  0  0  0
    3.2895   -1.2499   -2.2464 C   0  0  1  0  0  0  0  0  0  0  0  0
    2.8137   -0.3868   -3.2674 O   0  0  0  0  0  0  0  0  0  0  0  0
    3.2343   -2.7252   -2.6192 C   0  0  0  0  0  0  0  0  0  0  0  0
    1.8109   -3.2237   -2.4715 C   0  0  0  0  0  0  0  0  0  0  0  0
    3.7147   -2.9882   -4.0484 C   0  0  0  0  0  0  0  0  0  0  0  0
    3.9651   -3.4699   -1.6372 O   0  0  0  0  0  0  0  0  0  0  0  0
    5.3280   -3.1474   -1.3212 C   0  0  2  0  0  0  0  0  0  0  0  0
    6.2239   -3.6258   -2.4623 C   0  0  0  0  0  0  0  0  0  0  0  0
    4.1053   -5.6849    3.4533 C   0  0  0  0  0  0  0  0  0  0  0  0
    5.6439   -5.7418    3.2751 C   0  0  0  0  0  0  0  0  0  0  0  0
    3.8360   -6.8848    4.4189 C   0  0  0  0  0  0  0  0  0  0  0  0
    1.0046   -0.1320    1.6350 H   0  0  0  0  0  0  0  0  0  0  0  0
    1.2384    1.3270    2.5260 H   0  0  0  0  0  0  0  0  0  0  0  0
    0.1322    0.1124    3.1547 H   0  0  0  0  0  0  0  0  0  0  0  0
    2.1369    0.1354    4.4536 H   0  0  0  0  0  0  0  0  0  0  0  0
    3.8625   -0.0839    1.9923 H   0  0  0  0  0  0  0  0  0  0  0  0
    4.4179    0.0615    3.6769 H   0  0  0  0  0  0  0  0  0  0  0  0
    3.4920    1.4031    2.8667 H   0  0  0  0  0  0  0  0  0  0  0  0
    1.2280   -2.0332    4.0080 H   0  0  0  0  0  0  0  0  0  0  0  0
    3.8049   -1.4242    5.0247 H   0  0  0  0  0  0  0  0  0  0  0  0
    4.8953   -3.2611    5.3349 H   0  0  0  0  0  0  0  0  0  0  0  0
    3.4761   -3.9856    6.0753 H   0  0  0  0  0  0  0  0  0  0  0  0
    1.7639   -5.6217    4.2899 H   0  0  0  0  0  0  0  0  0  0  0  0
    1.4107   -4.0057    4.5703 H   0  0  0  0  0  0  0  0  0  0  0  0
    1.0535   -4.6113    2.1659 H   0  0  0  0  0  0  0  0  0  0  0  0
    2.4896   -6.5824    2.2355 H   0  0  0  0  0  0  0  0  0  0  0  0
    3.5632   -6.6885    0.3439 H   0  0  0  0  0  0  0  0  0  0  0  0
    2.9395   -5.1397    0.0399 H   0  0  0  0  0  0  0  0  0  0  0  0
    5.8594   -5.8376    0.7903 H   0  0  0  0  0  0  0  0  0  0  0  0
    5.2163   -5.6908   -0.7335 H   0  0  0  0  0  0  0  0  0  0  0  0
    6.7595   -4.0040   -0.0390 H   0  0  0  0  0  0  0  0  0  0  0  0
    6.8019   -2.2539    1.0662 H   0  0  0  0  0  0  0  0  0  0  0  0
    6.0539   -2.9719    3.1603 H   0  0  0  0  0  0  0  0  0  0  0  0
    5.2552   -1.4904    2.8777 H   0  0  0  0  0  0  0  0  0  0  0  0
    4.1307   -3.7596    1.8509 H   0  0  0  0  0  0  0  0  0  0  0  0
    2.6453   -3.0196    0.3417 H   0  0  0  0  0  0  0  0  0  0  0  0
    2.7385   -1.3385    0.9299 H   0  0  0  0  0  0  0  0  0  0  0  0
    1.2104   -2.2573    0.9887 H   0  0  0  0  0  0  0  0  0  0  0  0
    6.5414   -1.3914   -1.1348 H   0  0  0  0  0  0  0  0  0  0  0  0
    4.5827    0.1782   -1.5579 H   0  0  0  0  0  0  0  0  0  0  0  0
    5.1968   -0.6742   -2.9750 H   0  0  0  0  0  0  0  0  0  0  0  0
    2.7460   -1.0856   -1.3119 H   0  0  0  0  0  0  0  0  0  0  0  0
    2.4619    0.3906   -2.8601 H   0  0  0  0  0  0  0  0  0  0  0  0
    1.1499   -2.7892   -3.2162 H   0  0  0  0  0  0  0  0  0  0  0  0
    1.3986   -3.0551   -1.4782 H   0  0  0  0  0  0  0  0  0  0  0  0
    1.8209   -4.2869   -2.6218 H   0  0  0  0  0  0  0  0  0  0  0  0
    2.9124   -2.7325   -4.7286 H   0  0  0  0  0  0  0  0  0  0  0  0
    3.9713   -4.0346   -4.1985 H   0  0  0  0  0  0  0  0  0  0  0  0
    4.5614   -2.3632   -4.3221 H   0  0  0  0  0  0  0  0  0  0  0  0
    7.2583   -3.7724   -2.1514 H   0  0  0  0  0  0  0  0  0  0  0  0
    6.2801   -2.9611   -3.3253 H   0  0  0  0  0  0  0  0  0  0  0  0
    5.7597   -4.5500   -2.7906 H   0  0  0  0  0  0  0  0  0  0  0  0
    5.9514   -6.6776    2.8136 H   0  0  0  0  0  0  0  0  0  0  0  0
    6.1295   -5.6861    4.2442 H   0  0  0  0  0  0  0  0  0  0  0  0
    6.0721   -4.9531    2.6822 H   0  0  0  0  0  0  0  0  0  0  0  0
    4.5279   -7.7066    4.2334 H   0  0  0  0  0  0  0  0  0  0  0  0
    2.8541   -7.3469    4.3168 H   0  0  0  0  0  0  0  0  0  0  0  0
    3.9666   -6.5887    5.4593 H   0  0  0  0  0  0  0  0  0  0  0  0
    2.4855   -2.0144    5.8196 H   0  0  0  0  0  0  0  0  0  0  0  0
  1  2  1  0
  1 33  1  0
  1 34  1  0
  1 35  1  0
  2  3  1  0
  2  4  1  0
  2 36  1  0
  3 37  1  0
  3 38  1  0
  3 39  1  0
  4 17  1  0
  4  5  1  0
  4 40  1  1
  5  6  1  0
  5 41  1  0
  5 80  1  0
  7  6  1  1
  6 42  1  0
  6 43  1  0
  7 16  1  0
  7 30  1  0
  7  8  1  0
  8  9  1  0
  8 44  1  0
  8 45  1  0
  9 17  1  0
  9 10  1  0
  9 46  1  6
 10 11  1  0
 10 30  1  0
 10 47  1  6
 11 12  1  0
 11 48  1  0
 11 49  1  0
 12 13  1  0
 12 50  1  0
 12 51  1  0
 13 28  1  0
 13 14  1  0
 13 52  1  6
 14 15  1  0
 14 19  1  0
 14 53  1  1
 15 16  1  0
 15 54  1  0
 15 55  1  0
 16 17  1  0
 16 56  1  6
 17 18  1  6
 18 57  1  0
 18 58  1  0
 18 59  1  0
 19 20  1  0
 20 28  1  0
 20 21  1  0
 20 60  1  1
 21 22  1  0
 21 61  1  0
 21 62  1  0
 22 23  1  0
 22 24  1  0
 22 63  1  1
 23 64  1  0
 24 25  1  0
 24 26  1  0
 24 27  1  0
 25 65  1  0
 25 66  1  0
 25 67  1  0
 26 68  1  0
 26 69  1  0
 26 70  1  0
 27 28  1  0
 28 29  1  6
 29 71  1  0
 29 72  1  0
 29 73  1  0
 30 31  1  0
 30 32  1  0
 31 74  1  0
 31 75  1  0
 31 76  1  0
 32 77  1  0
 32 78  1  0
 32 79  1  0
M  CHG  1   5   1
M  END
>  <i_m_ct_stereo_status>  (332) 
1

>  <s_m_source_file>  (332) 
/var/tmp/pbs.5076255.sched01/tmpnby3vxlc/96d7dj3887.sdf

>  <i_m_source_file_index>  (332) 
44

>  <i_lp_mmshare_version>  (332) 
48012

>  <i_f3d_flags>  (332) 
0

>  <s_epik_input>  (332) 
W0NIM11bQ0hdKFtDSDNdKVtDQEhdKFtOSF1bQ0gyXTEpW0NAXShbQ0BIXTJbQ0BAXTEzNCkoW0NIM10pW0NASF0oW0NIMl0zKVtDQEhdKEM0KFtDSDNdKVtDSDNdKVtDSDJdW0NIMl1bQ0BASF01W0NASF0oW0NIMl0yKU9bQ0BIXTZbQ0BdNShbQ0gzXSlPQyhbQ0gzXSkoW0NIM10pW0NAQEhdKFtDSDJdNilbT0hd

>  <s_epik_cmdline>  (332) 
J2VwaWtfcHl0aG9uJywgJy1waHQnLCAnMi4wJywgJy1waCcsICc3LjAnLCAnLXRuJywgJzgnLCAnLW1hJywgJzIwMCcsICctaW1hZScsICc8aW5maWxlLm1hZT4nLCAnLW9tYWUnLCAnPG91dGZpbGUubWFlPic=

>  <r_lp_tautomer_probability>  (332) 
1

>  <r_epik_Ionization_Penalty>  (332) 
8.05655e-05

>  <r_epik_Ionization_Penalty_Charging>  (332) 
8.05038e-05

>  <r_epik_Ionization_Penalty_Neutral>  (332) 
6.17305e-08

>  <r_epik_State_Penalty>  (332) 
-0

>  <r_epik_Charging_Adjusted_Penalty>  (332) 
8.05038e-05

>  <i_epik_Tot_Q>  (332) 
1

>  <i_epik_Tot_abs_Q>  (332) 
1

>  <s_lp_Force_Field>  (332) 
OPLS3e

>  <r_lp_Energy>  (332) 
217.755

>  <b_lp_Chiralities_Consistent>  (332) 
1

>  <s_lp_Variant>  (332) 
80:0-1

>  <s_i_glide_gridfile>  (332) 
pfpi4k_grid

>  <i_i_glide_lignum>  (332) 
44

>  <i_i_glide_rotatable_bonds>  (332) 
2

>  <r_i_docking_score>  (332) 
-2.60193

>  <r_i_glide_ligand_efficiency>  (332) 
-0.0813102

>  <r_i_glide_ligand_efficiency_sa>  (332) 
-0.258144

>  <r_i_glide_ligand_efficiency_ln>  (332) 
-0.582642

>  <r_i_glide_gscore>  (332) 
-2.60193

>  <r_i_glide_lipo>  (332) 
-0.67244

>  <r_i_glide_hbond>  (332) 
-0.319994

>  <r_i_glide_metal>  (332) 
-0

>  <r_i_glide_rewards>  (332) 
-0.363507

>  <r_i_glide_evdw>  (332) 
-16.2004

>  <r_i_glide_ecoul>  (332) 
-2.91827

>  <r_i_glide_erotb>  (332) 
0

>  <r_i_glide_esite>  (332) 
0

>  <r_i_glide_emodel>  (332) 
-18.7733

>  <r_i_glide_energy>  (332) 
-19.1187

>  <r_i_glide_einternal>  (332) 
0.451295

>  <r_i_glide_intrahb_reward>  (332) 
-0

>  <i_i_glide_confnum>  (332) 
2

>  <i_i_glide_posenum>  (332) 
7

>  <r_i_glide_eff_state_penalty>  (332) 
0

>  <ligand_id>  (332) 
80

>  <original_smiles>  (332) 
CC(C)C1NCC23CC4C(CCC5C(CC2C41C)OC1CC(O)C(C)(C)OC15C)C3(C)C

>  <smiles>  (332) 
[H]OC1([H])C([H])([H])C2([H])OC3([H])C([H])([H])C4([H])C56C([H])([H])C([H])(C([H])(C([H])([H])C([H])([H])C3([H])C2(C([H])([H])[H])OC1(C([H])([H])[H])C([H])([H])[H])C5(C([H])([H])[H])C([H])([H])[H])C4(C([H])([H])[H])C([H])(C([H])(C([H])([H])[H])C([H])([H])[H])[N+]([H])([H])C6([H])[H]

$$$$
80:0:1
     RDKit          3D

 80 85  0  0  1  0  0  0  0  0999 V2000
    0.4957    1.2001    2.0092 C   0  0  0  0  0  0  0  0  0  0  0  0
    1.5534    1.1949    3.1355 C   0  0  0  0  0  0  0  0  0  0  0  0
    2.8864    1.7677    2.6267 C   0  0  0  0  0  0  0  0  0  0  0  0
    1.6308   -0.1108    3.9985 C   0  0  2  0  0  0  0  0  0  0  0  0
    2.2416    0.2607    5.3766 N   0  0  0  0  0  0  0  0  0  0  0  0
    3.0684   -0.7366    6.2000 C   0  0  0  0  0  0  0  0  0  0  0  0
    3.1528   -2.0050    5.3847 C   0  0  1  0  0  0  0  0  0  0  0  0
    1.6762   -2.5341    5.3696 C   0  0  0  0  0  0  0  0  0  0  0  0
    1.8903   -2.9385    3.9774 C   0  0  2  0  0  0  0  0  0  0  0  0
    3.0844   -4.0280    4.3038 C   0  0  1  0  0  0  0  0  0  0  0  0
    3.9130   -4.5222    3.0260 C   0  0  0  0  0  0  0  0  0  0  0  0
    5.3975   -4.0775    2.6569 C   0  0  0  0  0  0  0  0  0  0  0  0
    5.8435   -2.7448    1.8833 C   0  0  2  0  0  0  0  0  0  0  0  0
    5.6259   -1.2287    2.3067 C   0  0  2  0  0  0  0  0  0  0  0  0
    4.8776   -0.6446    3.5955 C   0  0  0  0  0  0  0  0  0  0  0  0
    3.6144   -1.4974    3.9559 C   0  0  2  0  0  0  0  0  0  0  0  0
    2.2672   -1.4704    3.3632 C   0  0  2  0  0  0  0  0  0  0  0  0
    2.1519   -1.5830    1.8430 C   0  0  0  0  0  0  0  0  0  0  0  0
    5.0413   -0.6702    1.1348 O   0  0  0  0  0  0  0  0  0  0  0  0
    5.6698   -1.2729    0.0094 C   0  0  2  0  0  0  0  0  0  0  0  0
    4.9865   -0.9460   -1.3279 C   0  0  0  0  0  0  0  0  0  0  0  0
    3.6828   -1.7120   -1.4796 C   0  0  1  0  0  0  0  0  0  0  0  0
    3.1387   -1.4533   -2.7580 O   0  0  0  0  0  0  0  0  0  0  0  0
    3.8305   -3.2298   -1.2312 C   0  0  0  0  0  0  0  0  0  0  0  0
    2.4524   -3.8769   -1.0483 C   0  0  0  0  0  0  0  0  0  0  0  0
    4.5958   -3.9414   -2.3596 C   0  0  0  0  0  0  0  0  0  0  0  0
    4.4555   -3.4255    0.0404 O   0  0  0  0  0  0  0  0  0  0  0  0
    5.6965   -2.7808    0.3567 C   0  0  2  0  0  0  0  0  0  0  0  0
    6.8853   -3.5366   -0.2995 C   0  0  0  0  0  0  0  0  0  0  0  0
    3.8473   -3.3774    5.5924 C   0  0  0  0  0  0  0  0  0  0  0  0
    5.3864   -3.2504    5.6550 C   0  0  0  0  0  0  0  0  0  0  0  0
    3.5212   -4.1219    6.9258 C   0  0  0  0  0  0  0  0  0  0  0  0
    0.6309    0.4292    1.2533 H   0  0  0  0  0  0  0  0  0  0  0  0
    0.5661    2.1407    1.4702 H   0  0  0  0  0  0  0  0  0  0  0  0
   -0.5258    1.1184    2.3922 H   0  0  0  0  0  0  0  0  0  0  0  0
    1.1975    1.9687    3.8162 H   0  0  0  0  0  0  0  0  0  0  0  0
    3.3522    1.0852    1.9079 H   0  0  0  0  0  0  0  0  0  0  0  0
    3.5689    1.9390    3.4650 H   0  0  0  0  0  0  0  0  0  0  0  0
    2.6999    2.7243    2.1072 H   0  0  0  0  0  0  0  0  0  0  0  0
    0.5861   -0.3162    4.2022 H   0  0  0  0  0  0  0  0  0  0  0  0
    2.8663    1.0479    5.1907 H   0  0  0  0  0  0  0  0  0  0  0  0
    4.0507   -0.3118    6.3795 H   0  0  0  0  0  0  0  0  0  0  0  0
    2.5963   -0.9018    7.1624 H   0  0  0  0  0  0  0  0  0  0  0  0
    1.4001   -3.3636    6.0099 H   0  0  0  0  0  0  0  0  0  0  0  0
    0.8521   -1.8475    5.5485 H   0  0  0  0  0  0  0  0  0  0  0  0
    0.9964   -3.3801    3.5418 H   0  0  0  0  0  0  0  0  0  0  0  0
    2.5767   -4.9282    4.6577 H   0  0  0  0  0  0  0  0  0  0  0  0
    3.9883   -5.6024    3.1433 H   0  0  0  0  0  0  0  0  0  0  0  0
    3.2879   -4.4161    2.1439 H   0  0  0  0  0  0  0  0  0  0  0  0
    6.0696   -4.2752    3.4816 H   0  0  0  0  0  0  0  0  0  0  0  0
    5.7194   -4.8557    1.9698 H   0  0  0  0  0  0  0  0  0  0  0  0
    6.9240   -2.8077    1.9085 H   0  0  0  0  0  0  0  0  0  0  0  0
    6.6170   -0.7803    2.3631 H   0  0  0  0  0  0  0  0  0  0  0  0
    5.5731   -0.7114    4.4503 H   0  0  0  0  0  0  0  0  0  0  0  0
    4.6919    0.3713    3.4665 H   0  0  0  0  0  0  0  0  0  0  0  0
    3.9955   -2.2607    3.3487 H   0  0  0  0  0  0  0  0  0  0  0  0
    2.7453   -2.4261    1.4893 H   0  0  0  0  0  0  0  0  0  0  0  0
    2.5132   -0.6873    1.3232 H   0  0  0  0  0  0  0  0  0  0  0  0
    1.1151   -1.8012    1.5586 H   0  0  0  0  0  0  0  0  0  0  0  0
    6.6831   -0.8844   -0.0192 H   0  0  0  0  0  0  0  0  0  0  0  0
    4.7451    0.1098   -1.3861 H   0  0  0  0  0  0  0  0  0  0  0  0
    5.6513   -1.1714   -2.1577 H   0  0  0  0  0  0  0  0  0  0  0  0
    3.0048   -1.2835   -0.7428 H   0  0  0  0  0  0  0  0  0  0  0  0
    2.1961   -1.4710   -2.6635 H   0  0  0  0  0  0  0  0  0  0  0  0
    1.8835   -3.8702   -1.9727 H   0  0  0  0  0  0  0  0  0  0  0  0
    1.8570   -3.3685   -0.2974 H   0  0  0  0  0  0  0  0  0  0  0  0
    2.5667   -4.9093   -0.7197 H   0  0  0  0  0  0  0  0  0  0  0  0
    3.9511   -4.1321   -3.2119 H   0  0  0  0  0  0  0  0  0  0  0  0
    4.9897   -4.8963   -2.0125 H   0  0  0  0  0  0  0  0  0  0  0  0
    5.4314   -3.3605   -2.7455 H   0  0  0  0  0  0  0  0  0  0  0  0
    7.8499   -3.3139    0.1634 H   0  0  0  0  0  0  0  0  0  0  0  0
    7.0150   -3.2773   -1.3483 H   0  0  0  0  0  0  0  0  0  0  0  0
    6.7287   -4.6102   -0.2222 H   0  0  0  0  0  0  0  0  0  0  0  0
    5.8719   -4.2251    5.6662 H   0  0  0  0  0  0  0  0  0  0  0  0
    5.6870   -2.7353    6.5656 H   0  0  0  0  0  0  0  0  0  0  0  0
    5.8193   -2.6971    4.8432 H   0  0  0  0  0  0  0  0  0  0  0  0
    4.3115   -4.8257    7.1934 H   0  0  0  0  0  0  0  0  0  0  0  0
    2.6236   -4.7387    6.9008 H   0  0  0  0  0  0  0  0  0  0  0  0
    3.4314   -3.4208    7.7569 H   0  0  0  0  0  0  0  0  0  0  0  0
    1.4930    0.6217    5.9780 H   0  0  0  0  0  0  0  0  0  0  0  0
  1  2  1  0
  1 33  1  0
  1 34  1  0
  1 35  1  0
  2  3  1  0
  2  4  1  0
  2 36  1  0
  3 37  1  0
  3 38  1  0
  3 39  1  0
  4 17  1  0
  4  5  1  0
  4 40  1  1
  5  6  1  0
  5 41  1  0
  5 80  1  0
  7  6  1  1
  6 42  1  0
  6 43  1  0
  7 16  1  0
  7 30  1  0
  7  8  1  0
  8  9  1  0
  8 44  1  0
  8 45  1  0
  9 17  1  0
  9 10  1  0
  9 46  1  6
 10 11  1  0
 10 30  1  0
 10 47  1  1
 11 12  1  0
 11 48  1  0
 11 49  1  0
 12 13  1  0
 12 50  1  0
 12 51  1  0
 13 28  1  0
 13 14  1  0
 13 52  1  6
 14 15  1  0
 14 19  1  0
 14 53  1  1
 15 16  1  0
 15 54  1  0
 15 55  1  0
 16 17  1  0
 16 56  1  6
 17 18  1  6
 18 57  1  0
 18 58  1  0
 18 59  1  0
 19 20  1  0
 20 28  1  0
 20 21  1  0
 20 60  1  6
 21 22  1  0
 21 61  1  0
 21 62  1  0
 22 23  1  0
 22 24  1  0
 22 63  1  1
 23 64  1  0
 24 25  1  0
 24 26  1  0
 24 27  1  0
 25 65  1  0
 25 66  1  0
 25 67  1  0
 26 68  1  0
 26 69  1  0
 26 70  1  0
 27 28  1  0
 28 29  1  6
 29 71  1  0
 29 72  1  0
 29 73  1  0
 30 31  1  0
 30 32  1  0
 31 74  1  0
 31 75  1  0
 31 76  1  0
 32 77  1  0
 32 78  1  0
 32 79  1  0
M  CHG  1   5   1
M  END
>  <i_m_ct_stereo_status>  (333) 
1

>  <s_m_source_file>  (333) 
/var/tmp/pbs.5076255.sched01/tmpnby3vxlc/96d7dj3887.sdf

>  <i_m_source_file_index>  (333) 
44

>  <i_lp_mmshare_version>  (333) 
48012

>  <i_f3d_flags>  (333) 
0

>  <s_epik_input>  (333) 
W0NIM11bQ0hdKFtDSDNdKVtDQEhdKFtOSF1bQ0gyXTEpW0NAXShbQ0BIXTJbQ0BAXTEzNCkoW0NIM10pW0NASF0oW0NIMl0zKVtDQEhdKEM0KFtDSDNdKVtDSDNdKVtDSDJdW0NIMl1bQ0BASF01W0NASF0oW0NIMl0yKU9bQ0BIXTZbQ0BdNShbQ0gzXSlPQyhbQ0gzXSkoW0NIM10pW0NAQEhdKFtDSDJdNilbT0hd

>  <s_epik_cmdline>  (333) 
J2VwaWtfcHl0aG9uJywgJy1waHQnLCAnMi4wJywgJy1waCcsICc3LjAnLCAnLXRuJywgJzgnLCAnLW1hJywgJzIwMCcsICctaW1hZScsICc8aW5maWxlLm1hZT4nLCAnLW9tYWUnLCAnPG91dGZpbGUubWFlPic=

>  <r_lp_tautomer_probability>  (333) 
1

>  <r_epik_Ionization_Penalty>  (333) 
8.05655e-05

>  <r_epik_Ionization_Penalty_Charging>  (333) 
8.05038e-05

>  <r_epik_Ionization_Penalty_Neutral>  (333) 
6.17305e-08

>  <r_epik_State_Penalty>  (333) 
-0

>  <r_epik_Charging_Adjusted_Penalty>  (333) 
8.05038e-05

>  <i_epik_Tot_Q>  (333) 
1

>  <i_epik_Tot_abs_Q>  (333) 
1

>  <s_lp_Force_Field>  (333) 
OPLS3e

>  <r_lp_Energy>  (333) 
217.755

>  <b_lp_Chiralities_Consistent>  (333) 
1

>  <s_lp_Variant>  (333) 
80:0-1

>  <s_i_glide_gridfile>  (333) 
pfpi4k_grid

>  <i_i_glide_lignum>  (333) 
44

>  <i_i_glide_rotatable_bonds>  (333) 
2

>  <r_i_docking_score>  (333) 
-2.44679

>  <r_i_glide_ligand_efficiency>  (333) 
-0.0764621

>  <r_i_glide_ligand_efficiency_sa>  (333) 
-0.242752

>  <r_i_glide_ligand_efficiency_ln>  (333) 
-0.547903

>  <r_i_glide_gscore>  (333) 
-2.44679

>  <r_i_glide_lipo>  (333) 
-0.489643

>  <r_i_glide_hbond>  (333) 
-0.01502

>  <r_i_glide_metal>  (333) 
-0

>  <r_i_glide_rewards>  (333) 
-0.363507

>  <r_i_glide_evdw>  (333) 
-22.895

>  <r_i_glide_ecoul>  (333) 
-2.89245

>  <r_i_glide_erotb>  (333) 
0

>  <r_i_glide_esite>  (333) 
0

>  <r_i_glide_emodel>  (333) 
-27.5051

>  <r_i_glide_energy>  (333) 
-25.7875

>  <r_i_glide_einternal>  (333) 
0.887015

>  <r_i_glide_intrahb_reward>  (333) 
-0

>  <i_i_glide_confnum>  (333) 
2

>  <i_i_glide_posenum>  (333) 
9

>  <r_i_glide_eff_state_penalty>  (333) 
0

>  <ligand_id>  (333) 
80

>  <original_smiles>  (333) 
CC(C)C1NCC23CC4C(CCC5C(CC2C41C)OC1CC(O)C(C)(C)OC15C)C3(C)C

>  <smiles>  (333) 
[H]OC1([H])C([H])([H])C2([H])OC3([H])C([H])([H])C4([H])C56C([H])([H])C([H])(C([H])(C([H])([H])C([H])([H])C3([H])C2(C([H])([H])[H])OC1(C([H])([H])[H])C([H])([H])[H])C5(C([H])([H])[H])C([H])([H])[H])C4(C([H])([H])[H])C([H])(C([H])(C([H])([H])[H])C([H])([H])[H])[N+]([H])([H])C6([H])[H]

$$$$
81:0:0
     RDKit          3D

 56 62  0  0  1  0  0  0  0  0999 V2000
    2.0578   -4.5683   -0.2287 C   0  0  0  0  0  0  0  0  0  0  0  0
    3.4736   -4.6962   -0.2942 O   0  0  0  0  0  0  0  0  0  0  0  0
    4.3515   -3.5763   -0.1258 C   0  0  2  0  0  0  0  0  0  0  0  0
    4.5999   -2.8643   -1.3723 N   0  0  0  0  0  0  0  0  0  0  0  0
    3.3863   -2.4907   -2.0989 C   0  0  0  0  0  0  0  0  0  0  0  0
    3.4482   -1.2051   -2.8890 C   0  0  0  0  0  0  0  0  0  0  0  0
    4.2764   -0.9754   -4.1343 C   0  0  0  0  0  0  0  0  0  0  0  0
    4.6567   -0.2958   -2.8177 C   0  0  0  0  0  0  0  0  0  0  0  0
    5.6676   -3.4008   -2.2325 C   0  0  0  0  0  0  0  0  0  0  0  0
    7.0434   -3.0980   -1.6999 C   0  0  0  0  0  0  0  0  0  0  0  0
    7.5420   -3.0538   -0.4516 C   0  0  0  0  0  0  0  0  0  0  0  0
    6.8923   -3.4056    0.8748 C   0  0  2  0  0  0  0  0  0  0  0  0
    7.6229   -4.6471    1.4384 C   0  0  0  0  0  0  0  0  0  0  0  0
    6.6111   -5.4142    2.2289 C   0  0  0  0  0  0  0  0  0  0  0  0
    6.7423   -6.4258    3.1936 C   0  0  0  0  0  0  0  0  0  0  0  0
    5.5928   -6.8119    3.9153 C   0  0  0  0  0  0  0  0  0  0  0  0
    4.3498   -6.1356    3.7140 C   0  0  0  0  0  0  0  0  0  0  0  0
    3.2784   -6.4955    4.4806 O   0  0  0  0  0  0  0  0  0  0  0  0
    4.2223   -5.0722    2.7858 C   0  0  0  0  0  0  0  0  0  0  0  0
    5.3648   -4.8231    2.0095 C   0  0  0  0  0  0  0  0  0  0  0  0
    5.3955   -3.7553    0.9869 C   0  0  2  0  0  0  0  0  0  0  0  0
    4.2232   -2.7597    1.1464 C   0  0  1  0  0  0  0  0  0  0  0  0
    4.4325   -1.2733    1.2103 C   0  0  0  0  0  0  0  0  0  0  0  0
    3.6630   -0.7802    2.4599 C   0  0  0  0  0  0  0  0  0  0  0  0
    3.3644   -1.9878    3.2350 N   0  0  0  0  0  0  0  0  0  0  0  0
    4.4729   -2.2620    4.1523 C   0  0  0  0  0  0  0  0  0  0  0  0
    3.1815   -2.9921    2.2333 C   0  0  2  0  0  0  0  0  0  0  0  0
    3.0858   -4.3255    2.7173 O   0  0  0  0  0  0  0  0  0  0  0  0
    1.5428   -5.3871   -0.7436 H   0  0  0  0  0  0  0  0  0  0  0  0
    1.6848   -3.6233   -0.5898 H   0  0  0  0  0  0  0  0  0  0  0  0
    1.7932   -4.6740    0.8111 H   0  0  0  0  0  0  0  0  0  0  0  0
    2.9932   -3.3002   -2.7118 H   0  0  0  0  0  0  0  0  0  0  0  0
    2.6371   -2.2451   -1.3614 H   0  0  0  0  0  0  0  0  0  0  0  0
    2.4911   -0.6889   -2.8733 H   0  0  0  0  0  0  0  0  0  0  0  0
    4.7354   -1.9079   -4.4590 H   0  0  0  0  0  0  0  0  0  0  0  0
    3.8445   -0.3162   -4.8929 H   0  0  0  0  0  0  0  0  0  0  0  0
    4.4800    0.7739   -2.7276 H   0  0  0  0  0  0  0  0  0  0  0  0
    5.4825   -0.6499   -2.1989 H   0  0  0  0  0  0  0  0  0  0  0  0
    5.5261   -4.4477   -2.5158 H   0  0  0  0  0  0  0  0  0  0  0  0
    5.7391   -2.8233   -3.1244 H   0  0  0  0  0  0  0  0  0  0  0  0
    7.7387   -2.8068   -2.4697 H   0  0  0  0  0  0  0  0  0  0  0  0
    8.5868   -2.7721   -0.3741 H   0  0  0  0  0  0  0  0  0  0  0  0
    7.0587   -2.5521    1.5357 H   0  0  0  0  0  0  0  0  0  0  0  0
    7.9630   -5.2931    0.6214 H   0  0  0  0  0  0  0  0  0  0  0  0
    8.5005   -4.3406    2.0183 H   0  0  0  0  0  0  0  0  0  0  0  0
    7.7111   -6.8647    3.4072 H   0  0  0  0  0  0  0  0  0  0  0  0
    5.6617   -7.5732    4.6572 H   0  0  0  0  0  0  0  0  0  0  0  0
    3.4407   -7.2077    5.0537 H   0  0  0  0  0  0  0  0  0  0  0  0
    5.4959   -1.0355    1.2889 H   0  0  0  0  0  0  0  0  0  0  0  0
    4.0460   -0.8023    0.3031 H   0  0  0  0  0  0  0  0  0  0  0  0
    4.1965   -0.0268    3.0291 H   0  0  0  0  0  0  0  0  0  0  0  0
    2.6994   -0.3763    2.1294 H   0  0  0  0  0  0  0  0  0  0  0  0
    4.2616   -3.1609    4.7329 H   0  0  0  0  0  0  0  0  0  0  0  0
    4.5719   -1.4279    4.8408 H   0  0  0  0  0  0  0  0  0  0  0  0
    5.4086   -2.4109    3.6170 H   0  0  0  0  0  0  0  0  0  0  0  0
    2.2046   -2.7740    1.7796 H   0  0  0  0  0  0  0  0  0  0  0  0
  1  2  1  0
  1 29  1  0
  1 30  1  0
  1 31  1  0
  3  2  1  6
  3 21  1  0
  3 22  1  0
  3  4  1  0
  4  5  1  0
  4  9  1  0
  5  6  1  0
  5 32  1  0
  5 33  1  0
  6  8  1  0
  6  7  1  0
  6 34  1  0
  7  8  1  0
  7 35  1  0
  7 36  1  0
  8 37  1  0
  8 38  1  0
  9 10  1  0
  9 39  1  0
  9 40  1  0
 10 11  2  0
 10 41  1  0
 11 12  1  0
 11 42  1  0
 12 21  1  0
 12 13  1  0
 12 43  1  1
 13 14  1  0
 13 44  1  0
 13 45  1  0
 14 20  2  0
 14 15  1  0
 15 16  2  0
 15 46  1  0
 16 17  1  0
 16 47  1  0
 17 18  1  0
 17 19  2  0
 18 48  1  0
 19 28  1  0
 19 20  1  0
 21 20  1  1
 21 22  1  0
 22 27  1  0
 22 23  1  6
 23 24  1  0
 23 49  1  0
 23 50  1  0
 24 25  1  0
 24 51  1  0
 24 52  1  0
 25 26  1  0
 25 27  1  0
 26 53  1  0
 26 54  1  0
 26 55  1  0
 27 28  1  0
 27 56  1  6
M  END
>  <i_m_ct_stereo_status>  (334) 
1

>  <s_m_source_file>  (334) 
/var/tmp/pbs.5076255.sched01/tmpnby3vxlc/96d7dj3887.sdf

>  <i_m_source_file_index>  (334) 
45

>  <i_lp_mmshare_version>  (334) 
48012

>  <i_f3d_flags>  (334) 
2

>  <s_epik_input>  (334) 
W0NIMl0xW0NIMl1bQ0hdMVtDSDJdTihbQ0BdMihbQ0BAXTM0W0NAXTI1NilPW0NIM10pW0NIMl1bQ0hdPVtDSF1bQ0BASF01W0NIMl1jN2M2YyhjKFtPSF0pW2NIXVtjSF03KU9bQ0BIXTROKFtDSDNdKVtDSDJdW0NIMl0z

>  <s_epik_cmdline>  (334) 
J2VwaWtfcHl0aG9uJywgJy1waHQnLCAnMi4wJywgJy1waCcsICc3LjAnLCAnLXRuJywgJzgnLCAnLW1hJywgJzIwMCcsICctaW1hZScsICc8aW5maWxlLm1hZT4nLCAnLW9tYWUnLCAnPG91dGZpbGUubWFlPic=

>  <r_lp_tautomer_probability>  (334) 
1

>  <r_epik_Ionization_Penalty>  (334) 
0.0303894

>  <r_epik_Ionization_Penalty_Charging>  (334) 
0

>  <r_epik_Ionization_Penalty_Neutral>  (334) 
0.0303894

>  <r_epik_State_Penalty>  (334) 
0.0243079

>  <r_epik_Charging_Adjusted_Penalty>  (334) 
0.0243079

>  <i_epik_Tot_Q>  (334) 
0

>  <i_epik_Tot_abs_Q>  (334) 
0

>  <s_epik_Chemistry_Notes>  (334) 
This compound contains an acetal/aminal-like group ( X-CH(R)-Y where X, Y are N, S, or O) that may be acid/base labile, releasing an aldehyde.

>  <s_lp_Force_Field>  (334) 
OPLS3e

>  <r_lp_Energy>  (334) 
72.1288

>  <b_lp_Chiralities_Consistent>  (334) 
0

>  <s_lp_Variant>  (334) 
81:0-1

>  <s_i_glide_gridfile>  (334) 
pfpi4k_grid

>  <i_i_glide_lignum>  (334) 
45

>  <i_i_glide_rotatable_bonds>  (334) 
4

>  <r_i_docking_score>  (334) 
-2.51631

>  <r_i_glide_ligand_efficiency>  (334) 
-0.0898681

>  <r_i_glide_ligand_efficiency_sa>  (334) 
-0.272892

>  <r_i_glide_ligand_efficiency_ln>  (334) 
-0.580837

>  <r_i_glide_gscore>  (334) 
-2.51631

>  <r_i_glide_lipo>  (334) 
-0.817214

>  <r_i_glide_hbond>  (334) 
0

>  <r_i_glide_metal>  (334) 
-0

>  <r_i_glide_rewards>  (334) 
-0.849992

>  <r_i_glide_evdw>  (334) 
-21.9889

>  <r_i_glide_ecoul>  (334) 
-0.113533

>  <r_i_glide_erotb>  (334) 
0.268033

>  <r_i_glide_esite>  (334) 
-0.000660504

>  <r_i_glide_emodel>  (334) 
-15.6168

>  <r_i_glide_energy>  (334) 
-22.1024

>  <r_i_glide_einternal>  (334) 
16.0191

>  <r_i_glide_intrahb_reward>  (334) 
-0

>  <i_i_glide_confnum>  (334) 
5

>  <i_i_glide_posenum>  (334) 
19

>  <r_i_glide_eff_state_penalty>  (334) 
0

>  <ligand_id>  (334) 
81

>  <original_smiles>  (334) 
COC12N(CC3CC3)CC=CC3Cc4ccc(O)c5c4C31C21CCN(C)C1O5

>  <smiles>  (334) 
[H]Oc1c([H])c([H])c2c3c1OC1([H])N(C([H])([H])[H])C([H])([H])C([H])([H])C14C1(OC([H])([H])[H])N(C([H])([H])C5([H])C([H])([H])C5([H])[H])C([H])([H])C([H])=C([H])C([H])(C2([H])[H])C314

$$$$
81:0:1
     RDKit          3D

 56 62  0  0  1  0  0  0  0  0999 V2000
    1.8130   -4.5228   -1.1095 C   0  0  0  0  0  0  0  0  0  0  0  0
    1.9501   -3.1893   -0.6849 O   0  0  0  0  0  0  0  0  0  0  0  0
    3.2583   -2.6300   -0.7074 C   0  0  2  0  0  0  0  0  0  0  0  0
    3.6811   -2.1597   -2.0507 N   0  0  0  0  0  0  0  0  0  0  0  0
    2.6435   -1.4029   -2.7511 C   0  0  0  0  0  0  0  0  0  0  0  0
    3.0724   -0.7870   -4.0816 C   0  0  0  0  0  0  0  0  0  0  0  0
    3.8066    0.5333   -4.1014 C   0  0  0  0  0  0  0  0  0  0  0  0
    2.3998    0.4491   -4.6510 C   0  0  0  0  0  0  0  0  0  0  0  0
    4.3464   -3.1569   -2.8690 C   0  0  0  0  0  0  0  0  0  0  0  0
    5.7247   -3.4529   -2.3659 C   0  0  0  0  0  0  0  0  0  0  0  0
    6.2184   -3.5311   -1.1245 C   0  0  0  0  0  0  0  0  0  0  0  0
    5.6037   -3.4278    0.2619 C   0  0  2  0  0  0  0  0  0  0  0  0
    5.7355   -4.8048    0.9582 C   0  0  0  0  0  0  0  0  0  0  0  0
    4.5442   -4.9478    1.8640 C   0  0  0  0  0  0  0  0  0  0  0  0
    4.2544   -5.7990    2.9373 C   0  0  0  0  0  0  0  0  0  0  0  0
    3.0941   -5.5330    3.7079 C   0  0  0  0  0  0  0  0  0  0  0  0
    2.2863   -4.4053    3.4297 C   0  0  0  0  0  0  0  0  0  0  0  0
    1.2057   -4.1435    4.2256 O   0  0  0  0  0  0  0  0  0  0  0  0
    2.5822   -3.5279    2.3695 C   0  0  0  0  0  0  0  0  0  0  0  0
    3.6942   -3.8871    1.5906 C   0  0  0  0  0  0  0  0  0  0  0  0
    4.1418   -3.0489    0.4492 C   0  0  2  0  0  0  0  0  0  0  0  0
    3.5139   -1.6691    0.4254 C   0  0  1  0  0  0  0  0  0  0  0  0
    4.3657   -0.4228    0.3373 C   0  0  0  0  0  0  0  0  0  0  0  0
    3.9126    0.4667    1.5114 C   0  0  0  0  0  0  0  0  0  0  0  0
    3.1593   -0.3874    2.4184 N   0  0  0  0  0  0  0  0  0  0  0  0
    4.1150   -0.9899    3.3563 C   0  0  0  0  0  0  0  0  0  0  0  0
    2.5087   -1.3034    1.5227 C   0  0  2  0  0  0  0  0  0  0  0  0
    1.8533   -2.3812    2.1563 O   0  0  0  0  0  0  0  0  0  0  0  0
    0.8861   -4.9800   -0.7687 H   0  0  0  0  0  0  0  0  0  0  0  0
    2.6259   -5.1328   -0.7142 H   0  0  0  0  0  0  0  0  0  0  0  0
    1.7529   -4.5063   -2.1949 H   0  0  0  0  0  0  0  0  0  0  0  0
    1.7982   -2.0655   -2.9104 H   0  0  0  0  0  0  0  0  0  0  0  0
    2.3289   -0.5911   -2.1022 H   0  0  0  0  0  0  0  0  0  0  0  0
    3.3017   -1.5153   -4.8563 H   0  0  0  0  0  0  0  0  0  0  0  0
    3.9826    0.9890   -3.1268 H   0  0  0  0  0  0  0  0  0  0  0  0
    4.6085    0.6496   -4.8274 H   0  0  0  0  0  0  0  0  0  0  0  0
    2.2846    0.4667   -5.7328 H   0  0  0  0  0  0  0  0  0  0  0  0
    1.5802    0.9198   -4.1033 H   0  0  0  0  0  0  0  0  0  0  0  0
    3.7552   -4.0623   -3.0169 H   0  0  0  0  0  0  0  0  0  0  0  0
    4.5648   -2.7670   -3.8639 H   0  0  0  0  0  0  0  0  0  0  0  0
    6.4155   -3.6351   -3.1656 H   0  0  0  0  0  0  0  0  0  0  0  0
    7.2687   -3.7696   -1.0768 H   0  0  0  0  0  0  0  0  0  0  0  0
    6.1961   -2.7057    0.8319 H   0  0  0  0  0  0  0  0  0  0  0  0
    5.6888   -5.6211    0.2326 H   0  0  0  0  0  0  0  0  0  0  0  0
    6.6735   -4.8791    1.5092 H   0  0  0  0  0  0  0  0  0  0  0  0
    4.9220   -6.6076    3.2062 H   0  0  0  0  0  0  0  0  0  0  0  0
    2.8505   -6.1592    4.5535 H   0  0  0  0  0  0  0  0  0  0  0  0
    0.7911   -3.3210    4.0128 H   0  0  0  0  0  0  0  0  0  0  0  0
    5.4186   -0.6841    0.4121 H   0  0  0  0  0  0  0  0  0  0  0  0
    4.2209    0.0700   -0.6185 H   0  0  0  0  0  0  0  0  0  0  0  0
    4.7517    0.8922    2.0300 H   0  0  0  0  0  0  0  0  0  0  0  0
    3.2541    1.2662    1.1620 H   0  0  0  0  0  0  0  0  0  0  0  0
    3.5928   -1.6272    4.0704 H   0  0  0  0  0  0  0  0  0  0  0  0
    4.6302   -0.2185    3.9305 H   0  0  0  0  0  0  0  0  0  0  0  0
    4.8704   -1.5930    2.8495 H   0  0  0  0  0  0  0  0  0  0  0  0
    1.7174   -0.7152    1.0625 H   0  0  0  0  0  0  0  0  0  0  0  0
  1  2  1  0
  1 29  1  0
  1 30  1  0
  1 31  1  0
  3  2  1  6
  3 21  1  0
  3 22  1  0
  3  4  1  0
  4  5  1  0
  4  9  1  0
  5  6  1  0
  5 32  1  0
  5 33  1  0
  6  8  1  0
  6  7  1  0
  6 34  1  0
  7  8  1  0
  7 35  1  0
  7 36  1  0
  8 37  1  0
  8 38  1  0
  9 10  1  0
  9 39  1  0
  9 40  1  0
 10 11  2  0
 10 41  1  0
 11 12  1  0
 11 42  1  0
 12 21  1  0
 12 13  1  0
 12 43  1  1
 13 14  1  0
 13 44  1  0
 13 45  1  0
 14 20  2  0
 14 15  1  0
 15 16  2  0
 15 46  1  0
 16 17  1  0
 16 47  1  0
 17 18  1  0
 17 19  2  0
 18 48  1  0
 19 28  1  0
 19 20  1  0
 21 20  1  1
 21 22  1  0
 22 27  1  0
 22 23  1  6
 23 24  1  0
 23 49  1  0
 23 50  1  0
 24 25  1  0
 24 51  1  0
 24 52  1  0
 25 26  1  0
 25 27  1  0
 26 53  1  0
 26 54  1  0
 26 55  1  0
 27 28  1  0
 27 56  1  6
M  END
>  <i_m_ct_stereo_status>  (335) 
1

>  <s_m_source_file>  (335) 
/var/tmp/pbs.5076255.sched01/tmpnby3vxlc/96d7dj3887.sdf

>  <i_m_source_file_index>  (335) 
45

>  <i_lp_mmshare_version>  (335) 
48012

>  <i_f3d_flags>  (335) 
2

>  <s_epik_input>  (335) 
W0NIMl0xW0NIMl1bQ0hdMVtDSDJdTihbQ0BdMihbQ0BAXTM0W0NAXTI1NilPW0NIM10pW0NIMl1bQ0hdPVtDSF1bQ0BASF01W0NIMl1jN2M2YyhjKFtPSF0pW2NIXVtjSF03KU9bQ0BIXTROKFtDSDNdKVtDSDJdW0NIMl0z

>  <s_epik_cmdline>  (335) 
J2VwaWtfcHl0aG9uJywgJy1waHQnLCAnMi4wJywgJy1waCcsICc3LjAnLCAnLXRuJywgJzgnLCAnLW1hJywgJzIwMCcsICctaW1hZScsICc8aW5maWxlLm1hZT4nLCAnLW9tYWUnLCAnPG91dGZpbGUubWFlPic=

>  <r_lp_tautomer_probability>  (335) 
1

>  <r_epik_Ionization_Penalty>  (335) 
0.0303894

>  <r_epik_Ionization_Penalty_Charging>  (335) 
0

>  <r_epik_Ionization_Penalty_Neutral>  (335) 
0.0303894

>  <r_epik_State_Penalty>  (335) 
0.0243079

>  <r_epik_Charging_Adjusted_Penalty>  (335) 
0.0243079

>  <i_epik_Tot_Q>  (335) 
0

>  <i_epik_Tot_abs_Q>  (335) 
0

>  <s_epik_Chemistry_Notes>  (335) 
This compound contains an acetal/aminal-like group ( X-CH(R)-Y where X, Y are N, S, or O) that may be acid/base labile, releasing an aldehyde.

>  <s_lp_Force_Field>  (335) 
OPLS3e

>  <r_lp_Energy>  (335) 
72.1288

>  <b_lp_Chiralities_Consistent>  (335) 
0

>  <s_lp_Variant>  (335) 
81:0-1

>  <s_i_glide_gridfile>  (335) 
pfpi4k_grid

>  <i_i_glide_lignum>  (335) 
45

>  <i_i_glide_rotatable_bonds>  (335) 
4

>  <r_i_docking_score>  (335) 
-2.29688

>  <r_i_glide_ligand_efficiency>  (335) 
-0.0820313

>  <r_i_glide_ligand_efficiency_sa>  (335) 
-0.249095

>  <r_i_glide_ligand_efficiency_ln>  (335) 
-0.530187

>  <r_i_glide_gscore>  (335) 
-2.29688

>  <r_i_glide_lipo>  (335) 
-0.889239

>  <r_i_glide_hbond>  (335) 
-0.0574283

>  <r_i_glide_metal>  (335) 
-0

>  <r_i_glide_rewards>  (335) 
-0.814909

>  <r_i_glide_evdw>  (335) 
-12.1218

>  <r_i_glide_ecoul>  (335) 
-0.563495

>  <r_i_glide_erotb>  (335) 
0.268033

>  <r_i_glide_esite>  (335) 
-0.112719

>  <r_i_glide_emodel>  (335) 
-13.4498

>  <r_i_glide_energy>  (335) 
-12.6853

>  <r_i_glide_einternal>  (335) 
3.89555

>  <r_i_glide_intrahb_reward>  (335) 
-0

>  <i_i_glide_confnum>  (335) 
6

>  <i_i_glide_posenum>  (335) 
25

>  <r_i_glide_eff_state_penalty>  (335) 
0

>  <ligand_id>  (335) 
81

>  <original_smiles>  (335) 
COC12N(CC3CC3)CC=CC3Cc4ccc(O)c5c4C31C21CCN(C)C1O5

>  <smiles>  (335) 
[H]Oc1c([H])c([H])c2c3c1OC1([H])N(C([H])([H])[H])C([H])([H])C([H])([H])C14C1(OC([H])([H])[H])N(C([H])([H])C5([H])C([H])([H])C5([H])[H])C([H])([H])C([H])=C([H])C([H])(C2([H])[H])C314

$$$$
81:0:2
     RDKit          3D

 56 62  0  0  1  0  0  0  0  0999 V2000
    2.3404   -4.4335   -0.6867 C   0  0  0  0  0  0  0  0  0  0  0  0
    2.3431   -3.2097    0.0279 O   0  0  0  0  0  0  0  0  0  0  0  0
    3.6271   -2.6409    0.2991 C   0  0  2  0  0  0  0  0  0  0  0  0
    4.3052   -2.1508   -0.9157 N   0  0  0  0  0  0  0  0  0  0  0  0
    3.3884   -1.4248   -1.7948 C   0  0  0  0  0  0  0  0  0  0  0  0
    4.1105   -0.6717   -2.8925 C   0  0  0  0  0  0  0  0  0  0  0  0
    3.3322    0.1402   -3.9000 C   0  0  0  0  0  0  0  0  0  0  0  0
    3.9962   -1.1390   -4.3222 C   0  0  0  0  0  0  0  0  0  0  0  0
    5.1457   -3.1242   -1.5987 C   0  0  0  0  0  0  0  0  0  0  0  0
    6.4078   -3.4398   -0.8395 C   0  0  0  0  0  0  0  0  0  0  0  0
    6.6463   -3.5271    0.4788 C   0  0  0  0  0  0  0  0  0  0  0  0
    5.7599   -3.4142    1.7138 C   0  0  2  0  0  0  0  0  0  0  0  0
    5.7822   -4.7745    2.4479 C   0  0  0  0  0  0  0  0  0  0  0  0
    4.4349   -4.9455    3.0980 C   0  0  0  0  0  0  0  0  0  0  0  0
    3.9601   -5.7985    4.1050 C   0  0  0  0  0  0  0  0  0  0  0  0
    2.6662   -5.5624    4.6240 C   0  0  0  0  0  0  0  0  0  0  0  0
    1.8957   -4.4566    4.1813 C   0  0  0  0  0  0  0  0  0  0  0  0
    0.6771   -4.2289    4.7565 O   0  0  0  0  0  0  0  0  0  0  0  0
    2.3745   -3.5702    3.1862 C   0  0  0  0  0  0  0  0  0  0  0  0
    3.6266   -3.9087    2.6447 C   0  0  0  0  0  0  0  0  0  0  0  0
    4.2768   -3.0613    1.6094 C   0  0  2  0  0  0  0  0  0  0  0  0
    3.6437   -1.6842    1.4714 C   0  0  1  0  0  0  0  0  0  0  0  0
    4.4680   -0.4149    1.5494 C   0  0  0  0  0  0  0  0  0  0  0  0
    3.8130    0.4722    2.6314 C   0  0  0  0  0  0  0  0  0  0  0  0
    2.8848   -0.4009    3.3440 N   0  0  0  0  0  0  0  0  0  0  0  0
    3.6278   -0.9946    4.4604 C   0  0  0  0  0  0  0  0  0  0  0  0
    2.4365   -1.3360    2.3361 C   0  0  2  0  0  0  0  0  0  0  0  0
    1.6896   -2.4305    2.8288 O   0  0  0  0  0  0  0  0  0  0  0  0
    1.4098   -4.9806   -0.5526 H   0  0  0  0  0  0  0  0  0  0  0  0
    3.1507   -5.0864   -0.3650 H   0  0  0  0  0  0  0  0  0  0  0  0
    2.4238   -4.2421   -1.7529 H   0  0  0  0  0  0  0  0  0  0  0  0
    2.6301   -2.0757   -2.2293 H   0  0  0  0  0  0  0  0  0  0  0  0
    2.8716   -0.6836   -1.1886 H   0  0  0  0  0  0  0  0  0  0  0  0
    5.0520   -0.2308   -2.5747 H   0  0  0  0  0  0  0  0  0  0  0  0
    2.2496    0.1510   -3.8006 H   0  0  0  0  0  0  0  0  0  0  0  0
    3.7825    1.0754   -4.2409 H   0  0  0  0  0  0  0  0  0  0  0  0
    4.8811   -1.0562   -4.9426 H   0  0  0  0  0  0  0  0  0  0  0  0
    3.3636   -2.0058   -4.5187 H   0  0  0  0  0  0  0  0  0  0  0  0
    4.6247   -4.0418   -1.8628 H   0  0  0  0  0  0  0  0  0  0  0  0
    5.4982   -2.7092   -2.5424 H   0  0  0  0  0  0  0  0  0  0  0  0
    7.2521   -3.5966   -1.4921 H   0  0  0  0  0  0  0  0  0  0  0  0
    7.6691   -3.7476    0.7434 H   0  0  0  0  0  0  0  0  0  0  0  0
    6.2121   -2.6749    2.3771 H   0  0  0  0  0  0  0  0  0  0  0  0
    5.8959   -5.5989    1.7413 H   0  0  0  0  0  0  0  0  0  0  0  0
    6.5910   -4.8373    3.1760 H   0  0  0  0  0  0  0  0  0  0  0  0
    4.5815   -6.5899    4.5000 H   0  0  0  0  0  0  0  0  0  0  0  0
    2.2854   -6.2043    5.4039 H   0  0  0  0  0  0  0  0  0  0  0  0
    0.4778   -4.8372    5.4508 H   0  0  0  0  0  0  0  0  0  0  0  0
    5.4973   -0.6545    1.8092 H   0  0  0  0  0  0  0  0  0  0  0  0
    4.4661    0.0909    0.5833 H   0  0  0  0  0  0  0  0  0  0  0  0
    4.5429    0.9493    3.2859 H   0  0  0  0  0  0  0  0  0  0  0  0
    3.2196    1.2487    2.1446 H   0  0  0  0  0  0  0  0  0  0  0  0
    2.9840   -1.6454    5.0546 H   0  0  0  0  0  0  0  0  0  0  0  0
    4.0040   -0.2177    5.1294 H   0  0  0  0  0  0  0  0  0  0  0  0
    4.4826   -1.5839    4.1230 H   0  0  0  0  0  0  0  0  0  0  0  0
    1.7261   -0.7915    1.7081 H   0  0  0  0  0  0  0  0  0  0  0  0
  1  2  1  0
  1 29  1  0
  1 30  1  0
  1 31  1  0
  3  2  1  6
  3 21  1  0
  3 22  1  0
  3  4  1  0
  4  5  1  0
  4  9  1  0
  5  6  1  0
  5 32  1  0
  5 33  1  0
  6  8  1  0
  6  7  1  0
  6 34  1  0
  7  8  1  0
  7 35  1  0
  7 36  1  0
  8 37  1  0
  8 38  1  0
  9 10  1  0
  9 39  1  0
  9 40  1  0
 10 11  2  0
 10 41  1  0
 11 12  1  0
 11 42  1  0
 12 21  1  0
 12 13  1  0
 12 43  1  1
 13 14  1  0
 13 44  1  0
 13 45  1  0
 14 20  2  0
 14 15  1  0
 15 16  2  0
 15 46  1  0
 16 17  1  0
 16 47  1  0
 17 18  1  0
 17 19  2  0
 18 48  1  0
 19 28  1  0
 19 20  1  0
 21 20  1  1
 21 22  1  0
 22 27  1  0
 22 23  1  6
 23 24  1  0
 23 49  1  0
 23 50  1  0
 24 25  1  0
 24 51  1  0
 24 52  1  0
 25 26  1  0
 25 27  1  0
 26 53  1  0
 26 54  1  0
 26 55  1  0
 27 28  1  0
 27 56  1  6
M  END
>  <i_m_ct_stereo_status>  (336) 
1

>  <s_m_source_file>  (336) 
/var/tmp/pbs.5076255.sched01/tmpnby3vxlc/96d7dj3887.sdf

>  <i_m_source_file_index>  (336) 
45

>  <i_lp_mmshare_version>  (336) 
48012

>  <i_f3d_flags>  (336) 
2

>  <s_epik_input>  (336) 
W0NIMl0xW0NIMl1bQ0hdMVtDSDJdTihbQ0BdMihbQ0BAXTM0W0NAXTI1NilPW0NIM10pW0NIMl1bQ0hdPVtDSF1bQ0BASF01W0NIMl1jN2M2YyhjKFtPSF0pW2NIXVtjSF03KU9bQ0BIXTROKFtDSDNdKVtDSDJdW0NIMl0z

>  <s_epik_cmdline>  (336) 
J2VwaWtfcHl0aG9uJywgJy1waHQnLCAnMi4wJywgJy1waCcsICc3LjAnLCAnLXRuJywgJzgnLCAnLW1hJywgJzIwMCcsICctaW1hZScsICc8aW5maWxlLm1hZT4nLCAnLW9tYWUnLCAnPG91dGZpbGUubWFlPic=

>  <r_lp_tautomer_probability>  (336) 
1

>  <r_epik_Ionization_Penalty>  (336) 
0.0303894

>  <r_epik_Ionization_Penalty_Charging>  (336) 
0

>  <r_epik_Ionization_Penalty_Neutral>  (336) 
0.0303894

>  <r_epik_State_Penalty>  (336) 
0.0243079

>  <r_epik_Charging_Adjusted_Penalty>  (336) 
0.0243079

>  <i_epik_Tot_Q>  (336) 
0

>  <i_epik_Tot_abs_Q>  (336) 
0

>  <s_epik_Chemistry_Notes>  (336) 
This compound contains an acetal/aminal-like group ( X-CH(R)-Y where X, Y are N, S, or O) that may be acid/base labile, releasing an aldehyde.

>  <s_lp_Force_Field>  (336) 
OPLS3e

>  <r_lp_Energy>  (336) 
72.1288

>  <b_lp_Chiralities_Consistent>  (336) 
0

>  <s_lp_Variant>  (336) 
81:0-1

>  <s_i_glide_gridfile>  (336) 
pfpi4k_grid

>  <i_i_glide_lignum>  (336) 
45

>  <i_i_glide_rotatable_bonds>  (336) 
4

>  <r_i_docking_score>  (336) 
-2.17947

>  <r_i_glide_ligand_efficiency>  (336) 
-0.0778384

>  <r_i_glide_ligand_efficiency_sa>  (336) 
-0.236363

>  <r_i_glide_ligand_efficiency_ln>  (336) 
-0.503087

>  <r_i_glide_gscore>  (336) 
-2.17947

>  <r_i_glide_lipo>  (336) 
-0.678775

>  <r_i_glide_hbond>  (336) 
-0.00774142

>  <r_i_glide_metal>  (336) 
-0

>  <r_i_glide_rewards>  (336) 
-0.814909

>  <r_i_glide_evdw>  (336) 
-22.4417

>  <r_i_glide_ecoul>  (336) 
1.45566

>  <r_i_glide_erotb>  (336) 
0.268033

>  <r_i_glide_esite>  (336) 
-0.0423469

>  <r_i_glide_emodel>  (336) 
-23.3979

>  <r_i_glide_energy>  (336) 
-20.986

>  <r_i_glide_einternal>  (336) 
0.823537

>  <r_i_glide_intrahb_reward>  (336) 
-0

>  <i_i_glide_confnum>  (336) 
4

>  <i_i_glide_posenum>  (336) 
4

>  <r_i_glide_eff_state_penalty>  (336) 
0

>  <ligand_id>  (336) 
81

>  <original_smiles>  (336) 
COC12N(CC3CC3)CC=CC3Cc4ccc(O)c5c4C31C21CCN(C)C1O5

>  <smiles>  (336) 
[H]Oc1c([H])c([H])c2c3c1OC1([H])N(C([H])([H])[H])C([H])([H])C([H])([H])C14C1(OC([H])([H])[H])N(C([H])([H])C5([H])C([H])([H])C5([H])[H])C([H])([H])C([H])=C([H])C([H])(C2([H])[H])C314

$$$$
81:1:0
     RDKit          3D

 57 63  0  0  1  0  0  0  0  0999 V2000
    2.2022   -4.3361   -0.9230 C   0  0  0  0  0  0  0  0  0  0  0  0
    2.3239   -3.0961   -0.2624 O   0  0  0  0  0  0  0  0  0  0  0  0
    3.6428   -2.5728   -0.1959 C   0  0  2  0  0  0  0  0  0  0  0  0
    4.1156   -2.0075   -1.4654 N   0  0  0  0  0  0  0  0  0  0  0  0
    3.0845   -1.2409   -2.1562 C   0  0  0  0  0  0  0  0  0  0  0  0
    3.6921   -0.2978   -3.1938 C   0  0  0  0  0  0  0  0  0  0  0  0
    2.9005    0.3378   -4.3411 C   0  0  0  0  0  0  0  0  0  0  0  0
    3.8396   -0.7969   -4.6121 C   0  0  0  0  0  0  0  0  0  0  0  0
    4.7892   -2.9397   -2.3458 C   0  0  0  0  0  0  0  0  0  0  0  0
    6.1353   -3.3396   -1.8240 C   0  0  0  0  0  0  0  0  0  0  0  0
    6.5994   -3.4710   -0.5888 C   0  0  0  0  0  0  0  0  0  0  0  0
    5.9703   -3.3780    0.8040 C   0  0  2  0  0  0  0  0  0  0  0  0
    6.1349   -4.7541    1.4864 C   0  0  0  0  0  0  0  0  0  0  0  0
    4.9319   -4.9580    2.3605 C   0  0  0  0  0  0  0  0  0  0  0  0
    4.6695   -5.8329    3.4275 C   0  0  0  0  0  0  0  0  0  0  0  0
    3.5006   -5.6134    4.1781 C   0  0  0  0  0  0  0  0  0  0  0  0
    2.6459   -4.5119    3.9110 C   0  0  0  0  0  0  0  0  0  0  0  0
    1.5471   -4.3266    4.6857 O   0  0  0  0  0  0  0  0  0  0  0  0
    2.9183   -3.5750    2.8649 C   0  0  0  0  0  0  0  0  0  0  0  0
    4.0418   -3.9019    2.1002 C   0  0  0  0  0  0  0  0  0  0  0  0
    4.4947   -3.0310    0.9900 C   0  0  2  0  0  0  0  0  0  0  0  0
    3.8156   -1.6653    0.9970 C   0  0  1  0  0  0  0  0  0  0  0  0
    4.6843   -0.4401    1.0196 C   0  0  0  0  0  0  0  0  0  0  0  0
    4.7796   -0.1552    2.5049 C   0  0  0  0  0  0  0  0  0  0  0  0
    3.4176   -0.3766    2.9791 N   0  0  2  0  0  0  0  0  0  0  0  0
    3.3846   -0.7204    4.4145 C   0  0  0  0  0  0  0  0  0  0  0  0
    2.6239   -1.3578    1.9402 C   0  0  2  0  0  0  0  0  0  0  0  0
    2.1236   -2.4599    2.6788 O   0  0  0  0  0  0  0  0  0  0  0  0
    1.2878   -4.8776   -0.6767 H   0  0  0  0  0  0  0  0  0  0  0  0
    3.0374   -4.9910   -0.6749 H   0  0  0  0  0  0  0  0  0  0  0  0
    2.1654   -4.1823   -1.9978 H   0  0  0  0  0  0  0  0  0  0  0  0
    2.2880   -1.8314   -2.5985 H   0  0  0  0  0  0  0  0  0  0  0  0
    2.6284   -0.6699   -1.3599 H   0  0  0  0  0  0  0  0  0  0  0  0
    4.5115    0.3145   -2.8142 H   0  0  0  0  0  0  0  0  0  0  0  0
    1.8419    0.1245   -4.4567 H   0  0  0  0  0  0  0  0  0  0  0  0
    3.2090    1.3254   -4.6958 H   0  0  0  0  0  0  0  0  0  0  0  0
    4.7706   -0.5840   -5.1180 H   0  0  0  0  0  0  0  0  0  0  0  0
    3.4325   -1.7931   -4.7837 H   0  0  0  0  0  0  0  0  0  0  0  0
    4.1825   -3.7941   -2.6274 H   0  0  0  0  0  0  0  0  0  0  0  0
    5.0893   -2.4463   -3.2614 H   0  0  0  0  0  0  0  0  0  0  0  0
    6.8301   -3.4902   -2.6443 H   0  0  0  0  0  0  0  0  0  0  0  0
    7.6407   -3.7528   -0.5361 H   0  0  0  0  0  0  0  0  0  0  0  0
    6.5439   -2.6410    1.3660 H   0  0  0  0  0  0  0  0  0  0  0  0
    6.1278   -5.5662    0.7522 H   0  0  0  0  0  0  0  0  0  0  0  0
    7.0686   -4.8051    2.0519 H   0  0  0  0  0  0  0  0  0  0  0  0
    5.3713   -6.6256    3.6863 H   0  0  0  0  0  0  0  0  0  0  0  0
    3.2602   -6.2664    5.0070 H   0  0  0  0  0  0  0  0  0  0  0  0
    0.9727   -3.6429    4.3813 H   0  0  0  0  0  0  0  0  0  0  0  0
    5.6648   -0.6316    0.5833 H   0  0  0  0  0  0  0  0  0  0  0  0
    4.1841    0.3495    0.4501 H   0  0  0  0  0  0  0  0  0  0  0  0
    5.5118   -0.8252    2.9627 H   0  0  0  0  0  0  0  0  0  0  0  0
    5.0341    0.8465    2.8291 H   0  0  0  0  0  0  0  0  0  0  0  0
    3.9573   -1.6251    4.6445 H   0  0  0  0  0  0  0  0  0  0  0  0
    2.3607   -0.8409    4.7699 H   0  0  0  0  0  0  0  0  0  0  0  0
    3.8325    0.0949    4.9953 H   0  0  0  0  0  0  0  0  0  0  0  0
    1.8105   -0.8208    1.4183 H   0  0  0  0  0  0  0  0  0  0  0  0
    2.9771    0.5340    2.9174 H   0  0  0  0  0  0  0  0  0  0  0  0
  1  2  1  0
  1 29  1  0
  1 30  1  0
  1 31  1  0
  3  2  1  6
  3 21  1  0
  3 22  1  0
  3  4  1  0
  4  5  1  0
  4  9  1  0
  5  6  1  0
  5 32  1  0
  5 33  1  0
  6  8  1  0
  6  7  1  0
  6 34  1  0
  7  8  1  0
  7 35  1  0
  7 36  1  0
  8 37  1  0
  8 38  1  0
  9 10  1  0
  9 39  1  0
  9 40  1  0
 10 11  2  0
 10 41  1  0
 11 12  1  0
 11 42  1  0
 12 21  1  0
 12 13  1  0
 12 43  1  1
 13 14  1  0
 13 44  1  0
 13 45  1  0
 14 20  2  0
 14 15  1  0
 15 16  2  0
 15 46  1  0
 16 17  1  0
 16 47  1  0
 17 18  1  0
 17 19  2  0
 18 48  1  0
 19 28  1  0
 19 20  1  0
 21 20  1  1
 21 22  1  0
 22 27  1  0
 22 23  1  6
 23 24  1  0
 23 49  1  0
 23 50  1  0
 24 25  1  0
 24 51  1  0
 24 52  1  0
 25 26  1  0
 25 27  1  0
 25 57  1  1
 26 53  1  0
 26 54  1  0
 26 55  1  0
 27 28  1  0
 27 56  1  6
M  CHG  1  25   1
M  END
>  <i_m_ct_stereo_status>  (337) 
1

>  <s_m_source_file>  (337) 
/var/tmp/pbs.5076255.sched01/tmpnby3vxlc/96d7dj3887.sdf

>  <i_m_source_file_index>  (337) 
46

>  <i_lp_mmshare_version>  (337) 
48012

>  <i_f3d_flags>  (337) 
2

>  <s_epik_input>  (337) 
W0NIMl0xW0NIMl1bQ0hdMVtDSDJdTihbQ0BdMihbQ0BAXTM0W0NAXTI1NilPW0NIM10pW0NIMl1bQ0hdPVtDSF1bQ0BASF01W0NIMl1jN2M2YyhjKFtPSF0pW2NIXVtjSF03KU9bQ0BIXTROKFtDSDNdKVtDSDJdW0NIMl0z

>  <s_epik_cmdline>  (337) 
J2VwaWtfcHl0aG9uJywgJy1waHQnLCAnMi4wJywgJy1waCcsICc3LjAnLCAnLXRuJywgJzgnLCAnLW1hJywgJzIwMCcsICctaW1hZScsICc8aW5maWxlLm1hZT4nLCAnLW9tYWUnLCAnPG91dGZpbGUubWFlPic=

>  <r_lp_tautomer_probability>  (337) 
1

>  <r_epik_Ionization_Penalty>  (337) 
1.79248

>  <r_epik_Ionization_Penalty_Charging>  (337) 
1.79129

>  <r_epik_Ionization_Penalty_Neutral>  (337) 
0.00119113

>  <r_epik_State_Penalty>  (337) 
1.90423

>  <r_epik_Charging_Adjusted_Penalty>  (337) 
3.69552

>  <i_epik_Tot_Q>  (337) 
1

>  <i_epik_Tot_abs_Q>  (337) 
1

>  <s_epik_Chemistry_Notes>  (337) 
This compound contains an acetal/aminal-like group ( X-CH(R)-Y where X, Y are N, S, or O) that may be acid/base labile, releasing an aldehyde.

>  <s_lp_Force_Field>  (337) 
OPLS3e

>  <r_lp_Energy>  (337) 
66.6521

>  <b_lp_Chiralities_Consistent>  (337) 
0

>  <s_lp_Variant>  (337) 
81:0-2

>  <s_i_glide_gridfile>  (337) 
pfpi4k_grid

>  <i_i_glide_lignum>  (337) 
46

>  <i_i_glide_rotatable_bonds>  (337) 
4

>  <r_i_docking_score>  (337) 
-3.02094

>  <r_i_glide_ligand_efficiency>  (337) 
-0.107891

>  <r_i_glide_ligand_efficiency_sa>  (337) 
-0.32762

>  <r_i_glide_ligand_efficiency_ln>  (337) 
-0.697323

>  <r_i_glide_gscore>  (337) 
-3.02094

>  <r_i_glide_lipo>  (337) 
-1.05559

>  <r_i_glide_hbond>  (337) 
-0.0126343

>  <r_i_glide_metal>  (337) 
-0

>  <r_i_glide_rewards>  (337) 
-0.808037

>  <r_i_glide_evdw>  (337) 
-18.7537

>  <r_i_glide_ecoul>  (337) 
-2.71097

>  <r_i_glide_erotb>  (337) 
0.266766

>  <r_i_glide_esite>  (337) 
-0.0671181

>  <r_i_glide_emodel>  (337) 
-24.0489

>  <r_i_glide_energy>  (337) 
-21.4646

>  <r_i_glide_einternal>  (337) 
1.69824

>  <r_i_glide_intrahb_reward>  (337) 
-0

>  <i_i_glide_confnum>  (337) 
2

>  <i_i_glide_posenum>  (337) 
19

>  <r_i_glide_eff_state_penalty>  (337) 
0

>  <ligand_id>  (337) 
81

>  <original_smiles>  (337) 
COC12N(CC3CC3)CC=CC3Cc4ccc(O)c5c4C31C21CCN(C)C1O5

>  <smiles>  (337) 
[H]Oc1c([H])c([H])c2c3c1OC1([H])C4(C([H])([H])C([H])([H])[N+]1([H])C([H])([H])[H])C1(OC([H])([H])[H])N(C([H])([H])C5([H])C([H])([H])C5([H])[H])C([H])([H])C([H])=C([H])C([H])(C2([H])[H])C314

$$$$
81:1:1
     RDKit          3D

 57 63  0  0  1  0  0  0  0  0999 V2000
    2.6622   -4.4773   -0.5291 C   0  0  0  0  0  0  0  0  0  0  0  0
    2.7720   -3.2905    0.2362 O   0  0  0  0  0  0  0  0  0  0  0  0
    4.0872   -2.7348    0.3073 C   0  0  2  0  0  0  0  0  0  0  0  0
    4.5376   -2.1462   -0.9580 N   0  0  0  0  0  0  0  0  0  0  0  0
    3.5081   -1.3327   -1.6033 C   0  0  0  0  0  0  0  0  0  0  0  0
    4.1368   -0.4689   -2.6826 C   0  0  0  0  0  0  0  0  0  0  0  0
    3.2912    0.2340   -3.7108 C   0  0  0  0  0  0  0  0  0  0  0  0
    4.1239   -0.9383   -4.1253 C   0  0  0  0  0  0  0  0  0  0  0  0
    5.2351   -3.0550   -1.8576 C   0  0  0  0  0  0  0  0  0  0  0  0
    6.5962   -3.4463   -1.3644 C   0  0  0  0  0  0  0  0  0  0  0  0
    7.0785   -3.6075   -0.1212 C   0  0  0  0  0  0  0  0  0  0  0  0
    6.4470   -3.5230    1.2612 C   0  0  2  0  0  0  0  0  0  0  0  0
    6.6420   -4.8904    1.9523 C   0  0  0  0  0  0  0  0  0  0  0  0
    5.4543   -5.0933    2.8558 C   0  0  0  0  0  0  0  0  0  0  0  0
    5.2132   -5.9760    3.9210 C   0  0  0  0  0  0  0  0  0  0  0  0
    4.0462   -5.7834    4.6905 C   0  0  0  0  0  0  0  0  0  0  0  0
    3.1799   -4.6876    4.4390 C   0  0  0  0  0  0  0  0  0  0  0  0
    2.0981   -4.5014    5.2509 O   0  0  0  0  0  0  0  0  0  0  0  0
    3.4221   -3.7608    3.3894 C   0  0  0  0  0  0  0  0  0  0  0  0
    4.5465   -4.0652    2.5987 C   0  0  0  0  0  0  0  0  0  0  0  0
    4.9664   -3.1966    1.4702 C   0  0  2  0  0  0  0  0  0  0  0  0
    4.2902   -1.8363    1.5021 C   0  0  1  0  0  0  0  0  0  0  0  0
    5.1448   -0.5940    1.4969 C   0  0  0  0  0  0  0  0  0  0  0  0
    5.2454   -0.2641    2.9743 C   0  0  0  0  0  0  0  0  0  0  0  0
    3.8903   -0.5284    3.4887 N   0  0  2  0  0  0  0  0  0  0  0  0
    3.8774   -0.8800    4.9270 C   0  0  0  0  0  0  0  0  0  0  0  0
    3.1227   -1.5455    2.4753 C   0  0  2  0  0  0  0  0  0  0  0  0
    2.6279   -2.6464    3.2073 O   0  0  0  0  0  0  0  0  0  0  0  0
    1.7704   -5.0456   -0.2698 H   0  0  0  0  0  0  0  0  0  0  0  0
    3.5234   -5.1325   -0.3953 H   0  0  0  0  0  0  0  0  0  0  0  0
    2.5655   -4.2226   -1.5814 H   0  0  0  0  0  0  0  0  0  0  0  0
    2.7082   -1.9330   -2.0303 H   0  0  0  0  0  0  0  0  0  0  0  0
    3.0615   -0.6754   -0.8623 H   0  0  0  0  0  0  0  0  0  0  0  0
    5.0132    0.0823   -2.3465 H   0  0  0  0  0  0  0  0  0  0  0  0
    2.2103    0.1137   -3.6276 H   0  0  0  0  0  0  0  0  0  0  0  0
    3.6273    1.2151   -4.0428 H   0  0  0  0  0  0  0  0  0  0  0  0
    5.0006   -0.7233   -4.7206 H   0  0  0  0  0  0  0  0  0  0  0  0
    3.6190   -1.8829   -4.3302 H   0  0  0  0  0  0  0  0  0  0  0  0
    4.6599   -3.9307   -2.1443 H   0  0  0  0  0  0  0  0  0  0  0  0
    5.4757   -2.5481   -2.7862 H   0  0  0  0  0  0  0  0  0  0  0  0
    7.2952   -3.5973   -2.1768 H   0  0  0  0  0  0  0  0  0  0  0  0
    8.1239   -3.8712   -0.0782 H   0  0  0  0  0  0  0  0  0  0  0  0
    7.0113   -2.7716    1.8117 H   0  0  0  0  0  0  0  0  0  0  0  0
    6.6292   -5.7075    1.2269 H   0  0  0  0  0  0  0  0  0  0  0  0
    7.5915   -4.9477    2.4791 H   0  0  0  0  0  0  0  0  0  0  0  0
    5.9201   -6.7575    4.1642 H   0  0  0  0  0  0  0  0  0  0  0  0
    3.8428   -6.4528    5.5146 H   0  0  0  0  0  0  0  0  0  0  0  0
    2.0247   -5.1538    5.9307 H   0  0  0  0  0  0  0  0  0  0  0  0
    6.1240   -0.7781    1.0503 H   0  0  0  0  0  0  0  0  0  0  0  0
    4.6393    0.1845    0.9224 H   0  0  0  0  0  0  0  0  0  0  0  0
    5.9739   -0.9276    3.4386 H   0  0  0  0  0  0  0  0  0  0  0  0
    5.5574    0.7540    3.1977 H   0  0  0  0  0  0  0  0  0  0  0  0
    4.4546   -1.7821    5.1410 H   0  0  0  0  0  0  0  0  0  0  0  0
    2.8546   -1.0241    5.2837 H   0  0  0  0  0  0  0  0  0  0  0  0
    4.3120   -0.0627    5.5076 H   0  0  0  0  0  0  0  0  0  0  0  0
    2.2944   -1.0186    1.9884 H   0  0  0  0  0  0  0  0  0  0  0  0
    3.4081    0.3553    3.4261 H   0  0  0  0  0  0  0  0  0  0  0  0
  1  2  1  0
  1 29  1  0
  1 30  1  0
  1 31  1  0
  3  2  1  6
  3 21  1  0
  3 22  1  0
  3  4  1  0
  4  5  1  0
  4  9  1  0
  5  6  1  0
  5 32  1  0
  5 33  1  0
  6  8  1  0
  6  7  1  0
  6 34  1  0
  7  8  1  0
  7 35  1  0
  7 36  1  0
  8 37  1  0
  8 38  1  0
  9 10  1  0
  9 39  1  0
  9 40  1  0
 10 11  2  0
 10 41  1  0
 11 12  1  0
 11 42  1  0
 12 21  1  0
 12 13  1  0
 12 43  1  1
 13 14  1  0
 13 44  1  0
 13 45  1  0
 14 20  2  0
 14 15  1  0
 15 16  2  0
 15 46  1  0
 16 17  1  0
 16 47  1  0
 17 18  1  0
 17 19  2  0
 18 48  1  0
 19 28  1  0
 19 20  1  0
 21 20  1  1
 21 22  1  0
 22 27  1  0
 22 23  1  6
 23 24  1  0
 23 49  1  0
 23 50  1  0
 24 25  1  0
 24 51  1  0
 24 52  1  0
 25 26  1  0
 25 27  1  0
 25 57  1  1
 26 53  1  0
 26 54  1  0
 26 55  1  0
 27 28  1  0
 27 56  1  6
M  CHG  1  25   1
M  END
>  <i_m_ct_stereo_status>  (338) 
1

>  <s_m_source_file>  (338) 
/var/tmp/pbs.5076255.sched01/tmpnby3vxlc/96d7dj3887.sdf

>  <i_m_source_file_index>  (338) 
46

>  <i_lp_mmshare_version>  (338) 
48012

>  <i_f3d_flags>  (338) 
2

>  <s_epik_input>  (338) 
W0NIMl0xW0NIMl1bQ0hdMVtDSDJdTihbQ0BdMihbQ0BAXTM0W0NAXTI1NilPW0NIM10pW0NIMl1bQ0hdPVtDSF1bQ0BASF01W0NIMl1jN2M2YyhjKFtPSF0pW2NIXVtjSF03KU9bQ0BIXTROKFtDSDNdKVtDSDJdW0NIMl0z

>  <s_epik_cmdline>  (338) 
J2VwaWtfcHl0aG9uJywgJy1waHQnLCAnMi4wJywgJy1waCcsICc3LjAnLCAnLXRuJywgJzgnLCAnLW1hJywgJzIwMCcsICctaW1hZScsICc8aW5maWxlLm1hZT4nLCAnLW9tYWUnLCAnPG91dGZpbGUubWFlPic=

>  <r_lp_tautomer_probability>  (338) 
1

>  <r_epik_Ionization_Penalty>  (338) 
1.79248

>  <r_epik_Ionization_Penalty_Charging>  (338) 
1.79129

>  <r_epik_Ionization_Penalty_Neutral>  (338) 
0.00119113

>  <r_epik_State_Penalty>  (338) 
1.90423

>  <r_epik_Charging_Adjusted_Penalty>  (338) 
3.69552

>  <i_epik_Tot_Q>  (338) 
1

>  <i_epik_Tot_abs_Q>  (338) 
1

>  <s_epik_Chemistry_Notes>  (338) 
This compound contains an acetal/aminal-like group ( X-CH(R)-Y where X, Y are N, S, or O) that may be acid/base labile, releasing an aldehyde.

>  <s_lp_Force_Field>  (338) 
OPLS3e

>  <r_lp_Energy>  (338) 
66.6521

>  <b_lp_Chiralities_Consistent>  (338) 
0

>  <s_lp_Variant>  (338) 
81:0-2

>  <s_i_glide_gridfile>  (338) 
pfpi4k_grid

>  <i_i_glide_lignum>  (338) 
46

>  <i_i_glide_rotatable_bonds>  (338) 
4

>  <r_i_docking_score>  (338) 
-2.89587

>  <r_i_glide_ligand_efficiency>  (338) 
-0.103424

>  <r_i_glide_ligand_efficiency_sa>  (338) 
-0.314056

>  <r_i_glide_ligand_efficiency_ln>  (338) 
-0.668451

>  <r_i_glide_gscore>  (338) 
-2.89587

>  <r_i_glide_lipo>  (338) 
-1.12452

>  <r_i_glide_hbond>  (338) 
0

>  <r_i_glide_metal>  (338) 
-0

>  <r_i_glide_rewards>  (338) 
-0.808037

>  <r_i_glide_evdw>  (338) 
-19.3491

>  <r_i_glide_ecoul>  (338) 
-1.70203

>  <r_i_glide_erotb>  (338) 
0.266766

>  <r_i_glide_esite>  (338) 
-0.00731583

>  <r_i_glide_emodel>  (338) 
-24.4061

>  <r_i_glide_energy>  (338) 
-21.0511

>  <r_i_glide_einternal>  (338) 
1.50428

>  <r_i_glide_intrahb_reward>  (338) 
-0

>  <i_i_glide_confnum>  (338) 
6

>  <i_i_glide_posenum>  (338) 
21

>  <r_i_glide_eff_state_penalty>  (338) 
0

>  <ligand_id>  (338) 
81

>  <original_smiles>  (338) 
COC12N(CC3CC3)CC=CC3Cc4ccc(O)c5c4C31C21CCN(C)C1O5

>  <smiles>  (338) 
[H]Oc1c([H])c([H])c2c3c1OC1([H])C4(C([H])([H])C([H])([H])[N+]1([H])C([H])([H])[H])C1(OC([H])([H])[H])N(C([H])([H])C5([H])C([H])([H])C5([H])[H])C([H])([H])C([H])=C([H])C([H])(C2([H])[H])C314

$$$$
81:1:2
     RDKit          3D

 57 63  0  0  1  0  0  0  0  0999 V2000
    2.2859   -4.4964   -0.6755 C   0  0  0  0  0  0  0  0  0  0  0  0
    2.2330   -3.2966    0.0734 O   0  0  0  0  0  0  0  0  0  0  0  0
    3.4916   -2.7008    0.3881 C   0  0  2  0  0  0  0  0  0  0  0  0
    4.2395   -2.2466   -0.7917 N   0  0  0  0  0  0  0  0  0  0  0  0
    3.4075   -1.5246   -1.7489 C   0  0  0  0  0  0  0  0  0  0  0  0
    4.2532   -0.7652   -2.7469 C   0  0  0  0  0  0  0  0  0  0  0  0
    3.6358    0.2500   -3.6720 C   0  0  0  0  0  0  0  0  0  0  0  0
    4.1066   -1.0651   -4.2188 C   0  0  0  0  0  0  0  0  0  0  0  0
    5.1262   -3.2283   -1.4058 C   0  0  0  0  0  0  0  0  0  0  0  0
    6.3187   -3.5470   -0.5419 C   0  0  0  0  0  0  0  0  0  0  0  0
    6.4798   -3.5444    0.7926 C   0  0  0  0  0  0  0  0  0  0  0  0
    5.5429   -3.3112    1.9776 C   0  0  2  0  0  0  0  0  0  0  0  0
    5.5390   -4.5967    2.8412 C   0  0  0  0  0  0  0  0  0  0  0  0
    4.1686   -4.7302    3.4362 C   0  0  0  0  0  0  0  0  0  0  0  0
    3.6857   -5.4804    4.5179 C   0  0  0  0  0  0  0  0  0  0  0  0
    2.3721   -5.2237    4.9596 C   0  0  0  0  0  0  0  0  0  0  0  0
    1.6017   -4.1813    4.3767 C   0  0  0  0  0  0  0  0  0  0  0  0
    0.3610   -3.9272    4.8790 O   0  0  0  0  0  0  0  0  0  0  0  0
    2.0950   -3.3702    3.3212 C   0  0  0  0  0  0  0  0  0  0  0  0
    3.3675   -3.7427    2.8579 C   0  0  0  0  0  0  0  0  0  0  0  0
    4.0565   -2.9945    1.7776 C   0  0  2  0  0  0  0  0  0  0  0  0
    3.3913   -1.6604    1.4773 C   0  0  1  0  0  0  0  0  0  0  0  0
    4.2209   -0.4081    1.5335 C   0  0  0  0  0  0  0  0  0  0  0  0
    3.9684    0.1001    2.9367 C   0  0  0  0  0  0  0  0  0  0  0  0
    2.5318   -0.1376    3.1423 N   0  0  2  0  0  0  0  0  0  0  0  0
    2.1734   -0.3285    4.5665 C   0  0  0  0  0  0  0  0  0  0  0  0
    2.0193   -1.2842    2.0972 C   0  0  2  0  0  0  0  0  0  0  0  0
    1.3722   -2.2992    2.8388 O   0  0  0  0  0  0  0  0  0  0  0  0
    1.3708   -5.0775   -0.5903 H   0  0  0  0  0  0  0  0  0  0  0  0
    3.1098   -5.1411   -0.3611 H   0  0  0  0  0  0  0  0  0  0  0  0
    2.3895   -4.2279   -1.7262 H   0  0  0  0  0  0  0  0  0  0  0  0
    2.7079   -2.1693   -2.2756 H   0  0  0  0  0  0  0  0  0  0  0  0
    2.8215   -0.7901   -1.2069 H   0  0  0  0  0  0  0  0  0  0  0  0
    5.2422   -0.4997   -2.3785 H   0  0  0  0  0  0  0  0  0  0  0  0
    2.5607    0.4004   -3.5906 H   0  0  0  0  0  0  0  0  0  0  0  0
    4.2178    1.1459   -3.8829 H   0  0  0  0  0  0  0  0  0  0  0  0
    5.0081   -1.0535   -4.8113 H   0  0  0  0  0  0  0  0  0  0  0  0
    3.3465   -1.7837   -4.5214 H   0  0  0  0  0  0  0  0  0  0  0  0
    4.6243   -4.1433   -1.7053 H   0  0  0  0  0  0  0  0  0  0  0  0
    5.5618   -2.8318   -2.3231 H   0  0  0  0  0  0  0  0  0  0  0  0
    7.1938   -3.7820   -1.1315 H   0  0  0  0  0  0  0  0  0  0  0  0
    7.4787   -3.7824    1.1201 H   0  0  0  0  0  0  0  0  0  0  0  0
    5.9625   -2.4892    2.5665 H   0  0  0  0  0  0  0  0  0  0  0  0
    5.7122   -5.4861    2.2275 H   0  0  0  0  0  0  0  0  0  0  0  0
    6.2811   -4.5902    3.6363 H   0  0  0  0  0  0  0  0  0  0  0  0
    4.3177   -6.2061    5.0227 H   0  0  0  0  0  0  0  0  0  0  0  0
    1.9622   -5.7883    5.7822 H   0  0  0  0  0  0  0  0  0  0  0  0
   -0.0844   -3.2323    4.4225 H   0  0  0  0  0  0  0  0  0  0  0  0
    5.2791   -0.6111    1.3704 H   0  0  0  0  0  0  0  0  0  0  0  0
    3.8667    0.2878    0.7765 H   0  0  0  0  0  0  0  0  0  0  0  0
    4.5682   -0.4709    3.6495 H   0  0  0  0  0  0  0  0  0  0  0  0
    4.1985    1.1572    3.0761 H   0  0  0  0  0  0  0  0  0  0  0  0
    2.6783   -1.1853    5.0224 H   0  0  0  0  0  0  0  0  0  0  0  0
    1.0927   -0.4565    4.6868 H   0  0  0  0  0  0  0  0  0  0  0  0
    2.4553    0.5587    5.1385 H   0  0  0  0  0  0  0  0  0  0  0  0
    1.3390   -0.8435    1.3587 H   0  0  0  0  0  0  0  0  0  0  0  0
    2.0825    0.7221    2.8679 H   0  0  0  0  0  0  0  0  0  0  0  0
  1  2  1  0
  1 29  1  0
  1 30  1  0
  1 31  1  0
  3  2  1  6
  3 21  1  0
  3 22  1  0
  3  4  1  0
  4  5  1  0
  4  9  1  0
  5  6  1  0
  5 32  1  0
  5 33  1  0
  6  8  1  0
  6  7  1  0
  6 34  1  0
  7  8  1  0
  7 35  1  0
  7 36  1  0
  8 37  1  0
  8 38  1  0
  9 10  1  0
  9 39  1  0
  9 40  1  0
 10 11  2  0
 10 41  1  0
 11 12  1  0
 11 42  1  0
 12 21  1  0
 12 13  1  0
 12 43  1  1
 13 14  1  0
 13 44  1  0
 13 45  1  0
 14 20  2  0
 14 15  1  0
 15 16  2  0
 15 46  1  0
 16 17  1  0
 16 47  1  0
 17 18  1  0
 17 19  2  0
 18 48  1  0
 19 28  1  0
 19 20  1  0
 21 20  1  1
 21 22  1  0
 22 27  1  0
 22 23  1  6
 23 24  1  0
 23 49  1  0
 23 50  1  0
 24 25  1  0
 24 51  1  0
 24 52  1  0
 25 26  1  0
 25 27  1  0
 25 57  1  6
 26 53  1  0
 26 54  1  0
 26 55  1  0
 27 28  1  0
 27 56  1  6
M  CHG  1  25   1
M  END
>  <i_m_ct_stereo_status>  (339) 
1

>  <s_m_source_file>  (339) 
/var/tmp/pbs.5076255.sched01/tmpnby3vxlc/96d7dj3887.sdf

>  <i_m_source_file_index>  (339) 
46

>  <i_lp_mmshare_version>  (339) 
48012

>  <i_f3d_flags>  (339) 
2

>  <s_epik_input>  (339) 
W0NIMl0xW0NIMl1bQ0hdMVtDSDJdTihbQ0BdMihbQ0BAXTM0W0NAXTI1NilPW0NIM10pW0NIMl1bQ0hdPVtDSF1bQ0BASF01W0NIMl1jN2M2YyhjKFtPSF0pW2NIXVtjSF03KU9bQ0BIXTROKFtDSDNdKVtDSDJdW0NIMl0z

>  <s_epik_cmdline>  (339) 
J2VwaWtfcHl0aG9uJywgJy1waHQnLCAnMi4wJywgJy1waCcsICc3LjAnLCAnLXRuJywgJzgnLCAnLW1hJywgJzIwMCcsICctaW1hZScsICc8aW5maWxlLm1hZT4nLCAnLW9tYWUnLCAnPG91dGZpbGUubWFlPic=

>  <r_lp_tautomer_probability>  (339) 
1

>  <r_epik_Ionization_Penalty>  (339) 
1.79248

>  <r_epik_Ionization_Penalty_Charging>  (339) 
1.79129

>  <r_epik_Ionization_Penalty_Neutral>  (339) 
0.00119113

>  <r_epik_State_Penalty>  (339) 
1.90423

>  <r_epik_Charging_Adjusted_Penalty>  (339) 
3.69552

>  <i_epik_Tot_Q>  (339) 
1

>  <i_epik_Tot_abs_Q>  (339) 
1

>  <s_epik_Chemistry_Notes>  (339) 
This compound contains an acetal/aminal-like group ( X-CH(R)-Y where X, Y are N, S, or O) that may be acid/base labile, releasing an aldehyde.

>  <s_lp_Force_Field>  (339) 
OPLS3e

>  <r_lp_Energy>  (339) 
66.6521

>  <b_lp_Chiralities_Consistent>  (339) 
0

>  <s_lp_Variant>  (339) 
81:0-2

>  <s_i_glide_gridfile>  (339) 
pfpi4k_grid

>  <i_i_glide_lignum>  (339) 
46

>  <i_i_glide_rotatable_bonds>  (339) 
4

>  <r_i_docking_score>  (339) 
-2.69139

>  <r_i_glide_ligand_efficiency>  (339) 
-0.0961212

>  <r_i_glide_ligand_efficiency_sa>  (339) 
-0.29188

>  <r_i_glide_ligand_efficiency_ln>  (339) 
-0.621252

>  <r_i_glide_gscore>  (339) 
-2.69139

>  <r_i_glide_lipo>  (339) 
-0.524559

>  <r_i_glide_hbond>  (339) 
-0.0119051

>  <r_i_glide_metal>  (339) 
-0

>  <r_i_glide_rewards>  (339) 
-0.808037

>  <r_i_glide_evdw>  (339) 
-20.0424

>  <r_i_glide_ecoul>  (339) 
-3.56717

>  <r_i_glide_erotb>  (339) 
0.266766

>  <r_i_glide_esite>  (339) 
-0.0764606

>  <r_i_glide_emodel>  (339) 
-26.113

>  <r_i_glide_energy>  (339) 
-23.6096

>  <r_i_glide_einternal>  (339) 
2.33199

>  <r_i_glide_intrahb_reward>  (339) 
-0

>  <i_i_glide_confnum>  (339) 
2

>  <i_i_glide_posenum>  (339) 
5

>  <r_i_glide_eff_state_penalty>  (339) 
0

>  <ligand_id>  (339) 
81

>  <original_smiles>  (339) 
COC12N(CC3CC3)CC=CC3Cc4ccc(O)c5c4C31C21CCN(C)C1O5

>  <smiles>  (339) 
[H]Oc1c([H])c([H])c2c3c1OC1([H])C4(C([H])([H])C([H])([H])[N+]1([H])C([H])([H])[H])C1(OC([H])([H])[H])N(C([H])([H])C5([H])C([H])([H])C5([H])[H])C([H])([H])C([H])=C([H])C([H])(C2([H])[H])C314

$$$$
82:0:0
     RDKit          3D

 60 65  0  0  1  0  0  0  0  0999 V2000
   -0.0996   -1.5626    7.3960 C   0  0  0  0  0  0  0  0  0  0  0  0
    0.2475   -2.4875    8.3070 C   0  0  0  0  0  0  0  0  0  0  0  0
    0.1287   -3.9314    8.1598 C   0  0  0  0  0  0  0  0  0  0  0  0
    0.5367   -4.7289    9.1652 C   0  0  0  0  0  0  0  0  0  0  0  0
    0.3566   -6.2013    9.1062 C   0  0  0  0  0  0  0  0  0  0  0  0
    0.0999   -6.8011   10.1470 O   0  0  0  0  0  0  0  0  0  0  0  0
    0.3576   -6.8290    7.7040 C   0  0  2  0  0  0  0  0  0  0  0  0
   -0.4640   -5.8678    6.8226 C   0  0  0  0  0  0  0  0  0  0  0  0
   -0.5220   -4.5411    7.0044 C   0  0  0  0  0  0  0  0  0  0  0  0
    0.0538   -8.3445    7.4929 C   0  0  1  0  0  0  0  0  0  0  0  0
    0.0197   -8.7205    6.0034 C   0  0  0  0  0  0  0  0  0  0  0  0
    1.2462   -7.8732    5.5962 C   0  0  2  0  0  0  0  0  0  0  0  0
    2.3821   -8.4740    4.7121 C   0  0  1  0  0  0  0  0  0  0  0  0
    3.0361   -9.7662    5.2747 C   0  0  0  0  0  0  0  0  0  0  0  0
    1.8026   -8.8922    3.3388 C   0  0  0  0  0  0  0  0  0  0  0  0
    1.4907   -7.7008    2.5098 C   0  0  0  0  0  0  0  0  0  0  0  0
    0.5495   -7.4785    1.4773 C   0  0  0  0  0  0  0  0  0  0  0  0
    0.6323   -6.2605    1.0004 N   0  0  0  0  0  0  0  0  0  0  0  0
    1.6497   -5.6214    1.7306 O   0  0  0  0  0  0  0  0  0  0  0  0
    2.1216   -6.5065    2.6444 C   0  0  0  0  0  0  0  0  0  0  0  0
    3.1755   -6.1251    3.6152 C   0  0  0  0  0  0  0  0  0  0  0  0
    4.4651   -5.7776    2.8485 C   0  0  0  0  0  0  0  0  0  0  0  0
    2.7057   -4.8389    4.3362 C   0  0  0  0  0  0  0  0  0  0  0  0
    3.4793   -7.3421    4.5919 C   0  0  1  0  0  0  0  0  0  0  0  0
    4.0074   -6.9401    5.9978 C   0  0  0  0  0  0  0  0  0  0  0  0
    2.9276   -6.5275    7.0203 C   0  0  0  0  0  0  0  0  0  0  0  0
    1.6544   -7.3778    7.0004 C   0  0  1  0  0  0  0  0  0  0  0  0
    1.5063   -8.5986    7.9421 C   0  0  1  0  0  0  0  0  0  0  0  0
    2.0925   -8.7400    9.3461 C   0  0  0  0  0  0  0  0  0  0  0  0
   -0.5181   -1.8110    6.4306 H   0  0  0  0  0  0  0  0  0  0  0  0
    0.0513   -0.5133    7.6105 H   0  0  0  0  0  0  0  0  0  0  0  0
    0.6602   -2.1225    9.2344 H   0  0  0  0  0  0  0  0  0  0  0  0
    0.9743   -4.3255   10.0622 H   0  0  0  0  0  0  0  0  0  0  0  0
   -0.9967   -6.2814    5.9938 H   0  0  0  0  0  0  0  0  0  0  0  0
   -1.1082   -3.9429    6.3219 H   0  0  0  0  0  0  0  0  0  0  0  0
   -0.7004   -8.7869    8.1416 H   0  0  0  0  0  0  0  0  0  0  0  0
    0.1425   -9.7937    5.8460 H   0  0  0  0  0  0  0  0  0  0  0  0
   -0.9048   -8.4244    5.5079 H   0  0  0  0  0  0  0  0  0  0  0  0
    0.8582   -7.0397    5.0258 H   0  0  0  0  0  0  0  0  0  0  0  0
    3.8066  -10.1323    4.5949 H   0  0  0  0  0  0  0  0  0  0  0  0
    2.3126  -10.5764    5.3873 H   0  0  0  0  0  0  0  0  0  0  0  0
    3.5279   -9.6356    6.2361 H   0  0  0  0  0  0  0  0  0  0  0  0
    2.5356   -9.5029    2.8107 H   0  0  0  0  0  0  0  0  0  0  0  0
    0.9303   -9.5330    3.4538 H   0  0  0  0  0  0  0  0  0  0  0  0
   -0.1800   -8.1603    1.0664 H   0  0  0  0  0  0  0  0  0  0  0  0
    5.2786   -5.5174    3.5250 H   0  0  0  0  0  0  0  0  0  0  0  0
    4.3183   -4.9389    2.1642 H   0  0  0  0  0  0  0  0  0  0  0  0
    4.7988   -6.6248    2.2462 H   0  0  0  0  0  0  0  0  0  0  0  0
    3.4529   -4.4490    5.0254 H   0  0  0  0  0  0  0  0  0  0  0  0
    1.7808   -4.9965    4.8897 H   0  0  0  0  0  0  0  0  0  0  0  0
    2.4992   -4.0347    3.6241 H   0  0  0  0  0  0  0  0  0  0  0  0
    4.3155   -7.8539    4.1191 H   0  0  0  0  0  0  0  0  0  0  0  0
    4.5628   -7.7739    6.4258 H   0  0  0  0  0  0  0  0  0  0  0  0
    4.7487   -6.1433    5.9210 H   0  0  0  0  0  0  0  0  0  0  0  0
    3.3693   -6.5704    8.0039 H   0  0  0  0  0  0  0  0  0  0  0  0
    2.6605   -5.4843    6.8970 H   0  0  0  0  0  0  0  0  0  0  0  0
    1.7484   -9.5243    7.4484 H   0  0  0  0  0  0  0  0  0  0  0  0
    2.4475   -7.7978    9.7665 H   0  0  0  0  0  0  0  0  0  0  0  0
    2.9678   -9.3896    9.3109 H   0  0  0  0  0  0  0  0  0  0  0  0
    1.3907   -9.2056   10.0420 H   0  0  0  0  0  0  0  0  0  0  0  0
  1  2  2  0
  1 30  1  0
  1 31  1  0
  2  3  1  0
  2 32  1  0
  3  9  1  0
  3  4  2  0
  4  5  1  0
  4 33  1  0
  5  6  2  0
  7  5  1  1
  7 27  1  0
  7  8  1  0
  7 10  1  0
  8  9  2  0
  8 34  1  0
  9 35  1  0
 10 28  1  0
 10 11  1  0
 10 36  1  1
 11 12  1  0
 11 37  1  0
 11 38  1  0
 12 27  1  0
 12 13  1  0
 12 39  1  6
 13 24  1  0
 13 14  1  1
 13 15  1  0
 14 40  1  0
 14 41  1  0
 14 42  1  0
 15 16  1  0
 15 43  1  0
 15 44  1  0
 16 20  2  0
 16 17  1  0
 17 18  2  0
 17 45  1  0
 18 19  1  0
 19 20  1  0
 20 21  1  0
 21 22  1  0
 21 23  1  0
 21 24  1  0
 22 46  1  0
 22 47  1  0
 22 48  1  0
 23 49  1  0
 23 50  1  0
 23 51  1  0
 24 25  1  0
 24 52  1  6
 25 26  1  0
 25 53  1  0
 25 54  1  0
 27 26  1  6
 26 55  1  0
 26 56  1  0
 27 28  1  0
 28 29  1  0
 28 57  1  6
 29 58  1  0
 29 59  1  0
 29 60  1  0
M  END
>  <i_m_ct_stereo_status>  (340) 
1

>  <s_m_source_file>  (340) 
/var/tmp/pbs.5076255.sched01/tmpnby3vxlc/96d7dj3887.sdf

>  <i_m_source_file_index>  (340) 
47

>  <i_lp_mmshare_version>  (340) 
48012

>  <i_f3d_flags>  (340) 
0

>  <s_epik_input>  (340) 
W0NIMl09W0NIXUMoW0NIXT1bQ0hdMSk9W0NIXUMoPU8pW0NAXTEyW0NAQF0zNFtDQEhdKFtDSDJdW0NASF0yW0NAQEhdNFtDSDNdKVtDQF01KFtDSDNdKVtDQEhdKFtDSDJdW0NIMl0zKUMoW0NIM10pKFtDSDNdKWM2YyhbQ0gyXTUpW2NIXW5vNg==

>  <s_epik_cmdline>  (340) 
J2VwaWtfcHl0aG9uJywgJy1waHQnLCAnMi4wJywgJy1waCcsICc3LjAnLCAnLXRuJywgJzgnLCAnLW1hJywgJzIwMCcsICctaW1hZScsICc8aW5maWxlLm1hZT4nLCAnLW9tYWUnLCAnPG91dGZpbGUubWFlPic=

>  <r_lp_tautomer_probability>  (340) 
1

>  <r_epik_Ionization_Penalty>  (340) 
2.73269e-09

>  <r_epik_Ionization_Penalty_Charging>  (340) 
0

>  <r_epik_Ionization_Penalty_Neutral>  (340) 
2.73269e-09

>  <r_epik_State_Penalty>  (340) 
-0

>  <r_epik_Charging_Adjusted_Penalty>  (340) 
0

>  <i_epik_Tot_Q>  (340) 
0

>  <i_epik_Tot_abs_Q>  (340) 
0

>  <s_lp_Force_Field>  (340) 
OPLS3e

>  <r_lp_Energy>  (340) 
104.425

>  <b_lp_Chiralities_Consistent>  (340) 
1

>  <s_lp_Variant>  (340) 
82:0-1

>  <s_i_glide_gridfile>  (340) 
pfpi4k_grid

>  <i_i_glide_lignum>  (340) 
47

>  <i_i_glide_rotatable_bonds>  (340) 
1

>  <r_i_docking_score>  (340) 
-2.95627

>  <r_i_glide_ligand_efficiency>  (340) 
-0.10194

>  <r_i_glide_ligand_efficiency_sa>  (340) 
-0.313193

>  <r_i_glide_ligand_efficiency_ln>  (340) 
-0.676912

>  <r_i_glide_gscore>  (340) 
-2.95627

>  <r_i_glide_lipo>  (340) 
-0.0275358

>  <r_i_glide_hbond>  (340) 
-0.32

>  <r_i_glide_metal>  (340) 
-0

>  <r_i_glide_rewards>  (340) 
-0.753206

>  <r_i_glide_evdw>  (340) 
-14.2587

>  <r_i_glide_ecoul>  (340) 
-7.20592

>  <r_i_glide_erotb>  (340) 
0.128483

>  <r_i_glide_esite>  (340) 
-0.190194

>  <r_i_glide_emodel>  (340) 
-25.4738

>  <r_i_glide_energy>  (340) 
-21.4646

>  <r_i_glide_einternal>  (340) 
0.00670248

>  <r_i_glide_intrahb_reward>  (340) 
-0

>  <i_i_glide_confnum>  (340) 
2

>  <i_i_glide_posenum>  (340) 
19

>  <r_i_glide_eff_state_penalty>  (340) 
0

>  <ligand_id>  (340) 
82

>  <original_smiles>  (340) 
C=CC1=CC(=O)C2(C=C1)C1CC3C4(C)Cc5cnoc5C(C)(C)C4CCC32C1C

>  <smiles>  (340) 
[H]C([H])=C([H])C1=C([H])C(=O)C2(C([H])=C1[H])C1([H])C([H])([H])C3([H])C4(C([H])([H])[H])C([H])([H])c5c([H])noc5C(C([H])([H])[H])(C([H])([H])[H])C4([H])C([H])([H])C([H])([H])C23C1([H])C([H])([H])[H]

$$$$
82:0:1
     RDKit          3D

 60 65  0  0  1  0  0  0  0  0999 V2000
    0.9836  -11.6710    3.4164 C   0  0  0  0  0  0  0  0  0  0  0  0
    0.5512  -10.4077    3.2547 C   0  0  0  0  0  0  0  0  0  0  0  0
    1.3442   -9.3089    2.7089 C   0  0  0  0  0  0  0  0  0  0  0  0
    2.6212   -9.4819    2.2819 C   0  0  0  0  0  0  0  0  0  0  0  0
    3.3821   -8.3838    1.6637 C   0  0  0  0  0  0  0  0  0  0  0  0
    4.1988   -8.6488    0.7769 O   0  0  0  0  0  0  0  0  0  0  0  0
    3.0085   -6.9592    2.1116 C   0  0  2  0  0  0  0  0  0  0  0  0
    1.4702   -6.9276    2.1984 C   0  0  0  0  0  0  0  0  0  0  0  0
    0.7231   -8.0000    2.5338 C   0  0  0  0  0  0  0  0  0  0  0  0
    3.6706   -5.7225    1.4312 C   0  0  1  0  0  0  0  0  0  0  0  0
    3.0936   -4.4107    1.9817 C   0  0  0  0  0  0  0  0  0  0  0  0
    3.0455   -4.8426    3.4643 C   0  0  2  0  0  0  0  0  0  0  0  0
    3.6102   -3.9200    4.5936 C   0  0  1  0  0  0  0  0  0  0  0  0
    5.0912   -3.4814    4.4169 C   0  0  0  0  0  0  0  0  0  0  0  0
    2.8106   -2.5880    4.6227 C   0  0  0  0  0  0  0  0  0  0  0  0
    1.4465   -2.7981    5.1782 C   0  0  0  0  0  0  0  0  0  0  0  0
    0.2194   -2.1097    4.9860 C   0  0  0  0  0  0  0  0  0  0  0  0
   -0.7519   -2.6367    5.7138 N   0  0  0  0  0  0  0  0  0  0  0  0
   -0.1764   -3.7277    6.3883 O   0  0  0  0  0  0  0  0  0  0  0  0
    1.1315   -3.7991    6.0322 C   0  0  0  0  0  0  0  0  0  0  0  0
    2.0173   -4.8760    6.5704 C   0  0  0  0  0  0  0  0  0  0  0  0
    2.1359   -4.7153    8.0992 C   0  0  0  0  0  0  0  0  0  0  0  0
    1.3284   -6.2365    6.2966 C   0  0  0  0  0  0  0  0  0  0  0  0
    3.4706   -4.7423    5.9360 C   0  0  1  0  0  0  0  0  0  0  0  0
    4.2698   -6.0785    5.8448 C   0  0  0  0  0  0  0  0  0  0  0  0
    3.9355   -6.9718    4.6298 C   0  0  0  0  0  0  0  0  0  0  0  0
    3.7236   -6.2252    3.3081 C   0  0  1  0  0  0  0  0  0  0  0  0
    4.9032   -5.9968    2.3257 C   0  0  1  0  0  0  0  0  0  0  0  0
    6.0686   -6.9658    2.0953 C   0  0  0  0  0  0  0  0  0  0  0  0
    1.9782  -11.9876    3.1366 H   0  0  0  0  0  0  0  0  0  0  0  0
    0.3419  -12.4277    3.8455 H   0  0  0  0  0  0  0  0  0  0  0  0
   -0.4657  -10.2078    3.5685 H   0  0  0  0  0  0  0  0  0  0  0  0
    3.1281  -10.4261    2.3353 H   0  0  0  0  0  0  0  0  0  0  0  0
    0.9726   -5.9874    2.0096 H   0  0  0  0  0  0  0  0  0  0  0  0
   -0.3515   -7.8983    2.5964 H   0  0  0  0  0  0  0  0  0  0  0  0
    3.8422   -5.7835    0.3532 H   0  0  0  0  0  0  0  0  0  0  0  0
    3.7441   -3.5557    1.7925 H   0  0  0  0  0  0  0  0  0  0  0  0
    2.1157   -4.1690    1.5741 H   0  0  0  0  0  0  0  0  0  0  0  0
    2.0002   -4.9822    3.7159 H   0  0  0  0  0  0  0  0  0  0  0  0
    5.4045   -2.8293    5.2361 H   0  0  0  0  0  0  0  0  0  0  0  0
    5.2399   -2.9143    3.4964 H   0  0  0  0  0  0  0  0  0  0  0  0
    5.8019   -4.3060    4.4086 H   0  0  0  0  0  0  0  0  0  0  0  0
    3.3306   -1.8715    5.2629 H   0  0  0  0  0  0  0  0  0  0  0  0
    2.7732   -2.1293    3.6339 H   0  0  0  0  0  0  0  0  0  0  0  0
    0.0140   -1.2501    4.3653 H   0  0  0  0  0  0  0  0  0  0  0  0
    2.7996   -5.4659    8.5311 H   0  0  0  0  0  0  0  0  0  0  0  0
    1.1656   -4.8062    8.5931 H   0  0  0  0  0  0  0  0  0  0  0  0
    2.5377   -3.7327    8.3595 H   0  0  0  0  0  0  0  0  0  0  0  0
    1.8826   -7.0770    6.7184 H   0  0  0  0  0  0  0  0  0  0  0  0
    1.1900   -6.4152    5.2286 H   0  0  0  0  0  0  0  0  0  0  0  0
    0.3309   -6.2730    6.7453 H   0  0  0  0  0  0  0  0  0  0  0  0
    4.0229   -4.1420    6.6606 H   0  0  0  0  0  0  0  0  0  0  0  0
    5.3364   -5.8554    5.8072 H   0  0  0  0  0  0  0  0  0  0  0  0
    4.1580   -6.6590    6.7600 H   0  0  0  0  0  0  0  0  0  0  0  0
    4.7439   -7.6909    4.5119 H   0  0  0  0  0  0  0  0  0  0  0  0
    3.0620   -7.5853    4.8356 H   0  0  0  0  0  0  0  0  0  0  0  0
    5.3744   -5.0263    2.4423 H   0  0  0  0  0  0  0  0  0  0  0  0
    5.9138   -7.9620    2.5102 H   0  0  0  0  0  0  0  0  0  0  0  0
    6.9592   -6.5900    2.5926 H   0  0  0  0  0  0  0  0  0  0  0  0
    6.3248   -7.0608    1.0402 H   0  0  0  0  0  0  0  0  0  0  0  0
  1  2  2  0
  1 30  1  0
  1 31  1  0
  2  3  1  0
  2 32  1  0
  3  9  1  0
  3  4  2  0
  4  5  1  0
  4 33  1  0
  5  6  2  0
  7  5  1  6
  7 27  1  0
  7  8  1  0
  7 10  1  0
  8  9  2  0
  8 34  1  0
  9 35  1  0
 10 28  1  0
 10 11  1  0
 10 36  1  6
 11 12  1  0
 11 37  1  0
 11 38  1  0
 12 27  1  0
 12 13  1  0
 12 39  1  1
 13 24  1  0
 13 14  1  6
 13 15  1  0
 14 40  1  0
 14 41  1  0
 14 42  1  0
 15 16  1  0
 15 43  1  0
 15 44  1  0
 16 20  2  0
 16 17  1  0
 17 18  2  0
 17 45  1  0
 18 19  1  0
 19 20  1  0
 20 21  1  0
 21 22  1  0
 21 23  1  0
 21 24  1  0
 22 46  1  0
 22 47  1  0
 22 48  1  0
 23 49  1  0
 23 50  1  0
 23 51  1  0
 24 25  1  0
 24 52  1  1
 25 26  1  0
 25 53  1  0
 25 54  1  0
 27 26  1  1
 26 55  1  0
 26 56  1  0
 27 28  1  0
 28 29  1  0
 28 57  1  1
 29 58  1  0
 29 59  1  0
 29 60  1  0
M  END
>  <i_m_ct_stereo_status>  (341) 
1

>  <s_m_source_file>  (341) 
/var/tmp/pbs.5076255.sched01/tmpnby3vxlc/96d7dj3887.sdf

>  <i_m_source_file_index>  (341) 
47

>  <i_lp_mmshare_version>  (341) 
48012

>  <i_f3d_flags>  (341) 
0

>  <s_epik_input>  (341) 
W0NIMl09W0NIXUMoW0NIXT1bQ0hdMSk9W0NIXUMoPU8pW0NAXTEyW0NAQF0zNFtDQEhdKFtDSDJdW0NASF0yW0NAQEhdNFtDSDNdKVtDQF01KFtDSDNdKVtDQEhdKFtDSDJdW0NIMl0zKUMoW0NIM10pKFtDSDNdKWM2YyhbQ0gyXTUpW2NIXW5vNg==

>  <s_epik_cmdline>  (341) 
J2VwaWtfcHl0aG9uJywgJy1waHQnLCAnMi4wJywgJy1waCcsICc3LjAnLCAnLXRuJywgJzgnLCAnLW1hJywgJzIwMCcsICctaW1hZScsICc8aW5maWxlLm1hZT4nLCAnLW9tYWUnLCAnPG91dGZpbGUubWFlPic=

>  <r_lp_tautomer_probability>  (341) 
1

>  <r_epik_Ionization_Penalty>  (341) 
2.73269e-09

>  <r_epik_Ionization_Penalty_Charging>  (341) 
0

>  <r_epik_Ionization_Penalty_Neutral>  (341) 
2.73269e-09

>  <r_epik_State_Penalty>  (341) 
-0

>  <r_epik_Charging_Adjusted_Penalty>  (341) 
0

>  <i_epik_Tot_Q>  (341) 
0

>  <i_epik_Tot_abs_Q>  (341) 
0

>  <s_lp_Force_Field>  (341) 
OPLS3e

>  <r_lp_Energy>  (341) 
104.425

>  <b_lp_Chiralities_Consistent>  (341) 
1

>  <s_lp_Variant>  (341) 
82:0-1

>  <s_i_glide_gridfile>  (341) 
pfpi4k_grid

>  <i_i_glide_lignum>  (341) 
47

>  <i_i_glide_rotatable_bonds>  (341) 
1

>  <r_i_docking_score>  (341) 
-2.2538

>  <r_i_glide_ligand_efficiency>  (341) 
-0.0777172

>  <r_i_glide_ligand_efficiency_sa>  (341) 
-0.238772

>  <r_i_glide_ligand_efficiency_ln>  (341) 
-0.516063

>  <r_i_glide_gscore>  (341) 
-2.2538

>  <r_i_glide_lipo>  (341) 
-0.284668

>  <r_i_glide_hbond>  (341) 
0

>  <r_i_glide_metal>  (341) 
-0

>  <r_i_glide_rewards>  (341) 
-0.753206

>  <r_i_glide_evdw>  (341) 
-19.5102

>  <r_i_glide_ecoul>  (341) 
-2.06011

>  <r_i_glide_erotb>  (341) 
0.128483

>  <r_i_glide_esite>  (341) 
-0.0598806

>  <r_i_glide_emodel>  (341) 
-24.0451

>  <r_i_glide_energy>  (341) 
-21.5704

>  <r_i_glide_einternal>  (341) 
1.17268

>  <r_i_glide_intrahb_reward>  (341) 
-0

>  <i_i_glide_confnum>  (341) 
2

>  <i_i_glide_posenum>  (341) 
2

>  <r_i_glide_eff_state_penalty>  (341) 
0

>  <ligand_id>  (341) 
82

>  <original_smiles>  (341) 
C=CC1=CC(=O)C2(C=C1)C1CC3C4(C)Cc5cnoc5C(C)(C)C4CCC32C1C

>  <smiles>  (341) 
[H]C([H])=C([H])C1=C([H])C(=O)C2(C([H])=C1[H])C1([H])C([H])([H])C3([H])C4(C([H])([H])[H])C([H])([H])c5c([H])noc5C(C([H])([H])[H])(C([H])([H])[H])C4([H])C([H])([H])C([H])([H])C23C1([H])C([H])([H])[H]

$$$$
82:0:2
     RDKit          3D

 60 65  0  0  1  0  0  0  0  0999 V2000
   -1.7939   -7.7733    3.4034 C   0  0  0  0  0  0  0  0  0  0  0  0
   -0.7002   -7.7211    2.6275 C   0  0  0  0  0  0  0  0  0  0  0  0
    0.4197   -8.6540    2.7049 C   0  0  0  0  0  0  0  0  0  0  0  0
    0.4040   -9.7208    3.5299 C   0  0  0  0  0  0  0  0  0  0  0  0
    1.4911  -10.7037    3.5365 C   0  0  0  0  0  0  0  0  0  0  0  0
    1.1844  -11.8605    3.7770 O   0  0  0  0  0  0  0  0  0  0  0  0
    2.8848  -10.1874    3.1410 C   0  0  2  0  0  0  0  0  0  0  0  0
    2.6504   -9.2539    1.9433 C   0  0  0  0  0  0  0  0  0  0  0  0
    1.5416   -8.5054    1.7869 C   0  0  0  0  0  0  0  0  0  0  0  0
    4.0901  -11.1621    3.0128 C   0  0  1  0  0  0  0  0  0  0  0  0
    5.3511  -10.4318    2.5213 C   0  0  0  0  0  0  0  0  0  0  0  0
    5.1680   -9.1711    3.3959 C   0  0  2  0  0  0  0  0  0  0  0  0
    6.3517   -8.5934    4.2356 C   0  0  1  0  0  0  0  0  0  0  0  0
    7.0112   -9.5928    5.2242 C   0  0  0  0  0  0  0  0  0  0  0  0
    7.5018   -8.1676    3.2866 C   0  0  0  0  0  0  0  0  0  0  0  0
    7.1502   -6.9365    2.5349 C   0  0  0  0  0  0  0  0  0  0  0  0
    7.5678   -6.4278    1.2837 C   0  0  0  0  0  0  0  0  0  0  0  0
    6.9806   -5.2748    1.0110 N   0  0  0  0  0  0  0  0  0  0  0  0
    6.1496   -4.9941    2.1058 O   0  0  0  0  0  0  0  0  0  0  0  0
    6.2571   -6.0132    2.9891 C   0  0  0  0  0  0  0  0  0  0  0  0
    5.4673   -6.0301    4.2513 C   0  0  0  0  0  0  0  0  0  0  0  0
    5.8976   -4.8428    5.1331 C   0  0  0  0  0  0  0  0  0  0  0  0
    3.9810   -5.8160    3.8781 C   0  0  0  0  0  0  0  0  0  0  0  0
    5.7511   -7.3767    5.0478 C   0  0  1  0  0  0  0  0  0  0  0  0
    4.5857   -7.8543    5.9649 C   0  0  0  0  0  0  0  0  0  0  0  0
    3.4578   -8.6361    5.2551 C   0  0  0  0  0  0  0  0  0  0  0  0
    3.9213   -9.6315    4.1879 C   0  0  1  0  0  0  0  0  0  0  0  0
    4.1838  -11.1135    4.5513 C   0  0  1  0  0  0  0  0  0  0  0  0
    3.4215  -11.9306    5.5994 C   0  0  0  0  0  0  0  0  0  0  0  0
   -1.9519   -8.5243    4.1607 H   0  0  0  0  0  0  0  0  0  0  0  0
   -2.5844   -7.0549    3.3095 H   0  0  0  0  0  0  0  0  0  0  0  0
   -0.6475   -6.9353    1.8865 H   0  0  0  0  0  0  0  0  0  0  0  0
   -0.4021   -9.9471    4.2023 H   0  0  0  0  0  0  0  0  0  0  0  0
    3.4269   -9.1818    1.2066 H   0  0  0  0  0  0  0  0  0  0  0  0
    1.4533   -7.8601    0.9212 H   0  0  0  0  0  0  0  0  0  0  0  0
    3.8780  -12.1423    2.5924 H   0  0  0  0  0  0  0  0  0  0  0  0
    6.2604  -10.9950    2.7329 H   0  0  0  0  0  0  0  0  0  0  0  0
    5.3259  -10.2280    1.4503 H   0  0  0  0  0  0  0  0  0  0  0  0
    4.8843   -8.3725    2.7207 H   0  0  0  0  0  0  0  0  0  0  0  0
    7.8367   -9.1186    5.7575 H   0  0  0  0  0  0  0  0  0  0  0  0
    7.4340  -10.4582    4.7091 H   0  0  0  0  0  0  0  0  0  0  0  0
    6.3394   -9.9675    5.9944 H   0  0  0  0  0  0  0  0  0  0  0  0
    8.3996   -7.9655    3.8720 H   0  0  0  0  0  0  0  0  0  0  0  0
    7.7723   -8.9749    2.6085 H   0  0  0  0  0  0  0  0  0  0  0  0
    8.2641   -6.8542    0.5690 H   0  0  0  0  0  0  0  0  0  0  0  0
    5.3607   -4.8314    6.0831 H   0  0  0  0  0  0  0  0  0  0  0  0
    5.7218   -3.8847    4.6395 H   0  0  0  0  0  0  0  0  0  0  0  0
    6.9636   -4.8934    5.3589 H   0  0  0  0  0  0  0  0  0  0  0  0
    3.3349   -5.7534    4.7542 H   0  0  0  0  0  0  0  0  0  0  0  0
    3.6051   -6.6118    3.2362 H   0  0  0  0  0  0  0  0  0  0  0  0
    3.8394   -4.8843    3.3232 H   0  0  0  0  0  0  0  0  0  0  0  0
    6.5533   -7.1138    5.7364 H   0  0  0  0  0  0  0  0  0  0  0  0
    4.9853   -8.4962    6.7501 H   0  0  0  0  0  0  0  0  0  0  0  0
    4.1525   -7.0150    6.5102 H   0  0  0  0  0  0  0  0  0  0  0  0
    2.8886   -9.1620    6.0121 H   0  0  0  0  0  0  0  0  0  0  0  0
    2.7383   -7.9528    4.8166 H   0  0  0  0  0  0  0  0  0  0  0  0
    5.2226  -11.3148    4.7476 H   0  0  0  0  0  0  0  0  0  0  0  0
    2.5050  -11.4501    5.9322 H   0  0  0  0  0  0  0  0  0  0  0  0
    4.0235  -12.0354    6.5014 H   0  0  0  0  0  0  0  0  0  0  0  0
    3.1960  -12.9422    5.2595 H   0  0  0  0  0  0  0  0  0  0  0  0
  1  2  2  0
  1 30  1  0
  1 31  1  0
  2  3  1  0
  2 32  1  0
  3  9  1  0
  3  4  2  0
  4  5  1  0
  4 33  1  0
  5  6  2  0
  7  5  1  1
  7 27  1  0
  7  8  1  0
  7 10  1  0
  8  9  2  0
  8 34  1  0
  9 35  1  0
 10 28  1  0
 10 11  1  0
 10 36  1  6
 11 12  1  0
 11 37  1  0
 11 38  1  0
 12 27  1  0
 12 13  1  0
 12 39  1  6
 13 24  1  0
 13 14  1  1
 13 15  1  0
 14 40  1  0
 14 41  1  0
 14 42  1  0
 15 16  1  0
 15 43  1  0
 15 44  1  0
 16 20  2  0
 16 17  1  0
 17 18  2  0
 17 45  1  0
 18 19  1  0
 19 20  1  0
 20 21  1  0
 21 22  1  0
 21 23  1  0
 21 24  1  0
 22 46  1  0
 22 47  1  0
 22 48  1  0
 23 49  1  0
 23 50  1  0
 23 51  1  0
 24 25  1  0
 24 52  1  1
 25 26  1  0
 25 53  1  0
 25 54  1  0
 27 26  1  1
 26 55  1  0
 26 56  1  0
 27 28  1  0
 28 29  1  0
 28 57  1  6
 29 58  1  0
 29 59  1  0
 29 60  1  0
M  END
>  <i_m_ct_stereo_status>  (342) 
1

>  <s_m_source_file>  (342) 
/var/tmp/pbs.5076255.sched01/tmpnby3vxlc/96d7dj3887.sdf

>  <i_m_source_file_index>  (342) 
47

>  <i_lp_mmshare_version>  (342) 
48012

>  <i_f3d_flags>  (342) 
0

>  <s_epik_input>  (342) 
W0NIMl09W0NIXUMoW0NIXT1bQ0hdMSk9W0NIXUMoPU8pW0NAXTEyW0NAQF0zNFtDQEhdKFtDSDJdW0NASF0yW0NAQEhdNFtDSDNdKVtDQF01KFtDSDNdKVtDQEhdKFtDSDJdW0NIMl0zKUMoW0NIM10pKFtDSDNdKWM2YyhbQ0gyXTUpW2NIXW5vNg==

>  <s_epik_cmdline>  (342) 
J2VwaWtfcHl0aG9uJywgJy1waHQnLCAnMi4wJywgJy1waCcsICc3LjAnLCAnLXRuJywgJzgnLCAnLW1hJywgJzIwMCcsICctaW1hZScsICc8aW5maWxlLm1hZT4nLCAnLW9tYWUnLCAnPG91dGZpbGUubWFlPic=

>  <r_lp_tautomer_probability>  (342) 
1

>  <r_epik_Ionization_Penalty>  (342) 
2.73269e-09

>  <r_epik_Ionization_Penalty_Charging>  (342) 
0

>  <r_epik_Ionization_Penalty_Neutral>  (342) 
2.73269e-09

>  <r_epik_State_Penalty>  (342) 
-0

>  <r_epik_Charging_Adjusted_Penalty>  (342) 
0

>  <i_epik_Tot_Q>  (342) 
0

>  <i_epik_Tot_abs_Q>  (342) 
0

>  <s_lp_Force_Field>  (342) 
OPLS3e

>  <r_lp_Energy>  (342) 
104.425

>  <b_lp_Chiralities_Consistent>  (342) 
1

>  <s_lp_Variant>  (342) 
82:0-1

>  <s_i_glide_gridfile>  (342) 
pfpi4k_grid

>  <i_i_glide_lignum>  (342) 
47

>  <i_i_glide_rotatable_bonds>  (342) 
1

>  <r_i_docking_score>  (342) 
-1.79527

>  <r_i_glide_ligand_efficiency>  (342) 
-0.0619058

>  <r_i_glide_ligand_efficiency_sa>  (342) 
-0.190194

>  <r_i_glide_ligand_efficiency_ln>  (342) 
-0.411071

>  <r_i_glide_gscore>  (342) 
-1.79527

>  <r_i_glide_lipo>  (342) 
-0.0284351

>  <r_i_glide_hbond>  (342) 
0

>  <r_i_glide_metal>  (342) 
-0

>  <r_i_glide_rewards>  (342) 
-0.911307

>  <r_i_glide_evdw>  (342) 
-22.7132

>  <r_i_glide_ecoul>  (342) 
1.01101

>  <r_i_glide_erotb>  (342) 
0.128483

>  <r_i_glide_esite>  (342) 
0

>  <r_i_glide_emodel>  (342) 
-23.3679

>  <r_i_glide_energy>  (342) 
-21.7022

>  <r_i_glide_einternal>  (342) 
1.28406

>  <r_i_glide_intrahb_reward>  (342) 
-0

>  <i_i_glide_confnum>  (342) 
4

>  <i_i_glide_posenum>  (342) 
6

>  <r_i_glide_eff_state_penalty>  (342) 
0

>  <ligand_id>  (342) 
82

>  <original_smiles>  (342) 
C=CC1=CC(=O)C2(C=C1)C1CC3C4(C)Cc5cnoc5C(C)(C)C4CCC32C1C

>  <smiles>  (342) 
[H]C([H])=C([H])C1=C([H])C(=O)C2(C([H])=C1[H])C1([H])C([H])([H])C3([H])C4(C([H])([H])[H])C([H])([H])c5c([H])noc5C(C([H])([H])[H])(C([H])([H])[H])C4([H])C([H])([H])C([H])([H])C23C1([H])C([H])([H])[H]

$$$$
83:0:0
     RDKit          3D

 46 51  0  0  1  0  0  0  0  0999 V2000
   -1.2112    2.5965    3.9268 C   0  0  0  0  0  0  0  0  0  0  0  0
    0.1798    3.1488    3.7143 C   0  0  0  0  0  0  0  0  0  0  0  0
    0.3286    4.5277    3.9110 N   0  0  0  0  0  0  0  0  0  0  0  0
    1.5225    4.9973    3.6869 N   0  0  0  0  0  0  0  0  0  0  0  0
    2.5638    3.7766    3.2526 S   0  0  0  0  0  0  0  0  0  0  0  0
    1.3575    2.5407    3.3525 C   0  0  0  0  0  0  0  0  0  0  0  0
    1.7599    1.0989    3.0556 C   0  0  2  0  0  0  0  0  0  0  0  0
    0.5810    0.3066    2.9980 O   0  0  0  0  0  0  0  0  0  0  0  0
    0.3692   -0.4441    4.0823 C   0  0  0  0  0  0  0  0  0  0  0  0
   -0.6252   -1.1409    4.2646 O   0  0  0  0  0  0  0  0  0  0  0  0
    1.5012   -0.3346    4.8653 N   0  0  0  0  0  0  0  0  0  0  0  0
    2.1491   -1.4621    5.5028 C   0  0  1  0  0  0  0  0  0  0  0  0
    1.2408   -2.5350    6.1198 C   0  0  0  0  0  0  0  0  0  0  0  0
    1.3301   -3.9002    5.7683 C   0  0  0  0  0  0  0  0  0  0  0  0
    0.4511   -4.8229    6.3688 C   0  0  0  0  0  0  0  0  0  0  0  0
   -0.4824   -4.3516    7.3095 C   0  0  0  0  0  0  0  0  0  0  0  0
   -0.5849   -3.0553    7.6678 N   0  0  0  0  0  0  0  0  0  0  0  0
    0.2683   -2.1815    7.0882 C   0  0  0  0  0  0  0  0  0  0  0  0
    3.1441   -1.9439    4.5563 N   0  0  0  0  0  0  0  0  0  0  0  0
    3.5799   -0.7285    3.8479 C   0  0  1  0  0  0  0  0  0  0  0  0
    5.0023   -0.3215    4.2878 C   0  0  0  0  0  0  0  0  0  0  0  0
    5.3166   -0.0708    5.4549 O   0  0  0  0  0  0  0  0  0  0  0  0
    5.8211   -0.2545    3.2330 N   0  0  0  0  0  0  0  0  0  0  0  0
    5.1678   -0.6608    2.0759 C   0  0  0  0  0  0  0  0  0  0  0  0
    5.6904   -0.7558    0.7804 C   0  0  0  0  0  0  0  0  0  0  0  0
    4.8269   -1.2243   -0.2327 C   0  0  0  0  0  0  0  0  0  0  0  0
    3.4960   -1.5840    0.0648 C   0  0  0  0  0  0  0  0  0  0  0  0
    2.9868   -1.4665    1.3779 C   0  0  0  0  0  0  0  0  0  0  0  0
    3.8580   -0.9791    2.3738 C   0  0  0  0  0  0  0  0  0  0  0  0
    2.5304    0.3921    4.1861 C   0  0  1  0  0  0  0  0  0  0  0  0
   -1.3044    1.5094    3.7999 H   0  0  0  0  0  0  0  0  0  0  0  0
   -1.9090    3.0350    3.2046 H   0  0  0  0  0  0  0  0  0  0  0  0
   -1.5521    2.8310    4.9413 H   0  0  0  0  0  0  0  0  0  0  0  0
    2.3424    1.0822    2.1293 H   0  0  0  0  0  0  0  0  0  0  0  0
    2.7039   -1.0505    6.3505 H   0  0  0  0  0  0  0  0  0  0  0  0
    2.0546   -4.2479    5.0466 H   0  0  0  0  0  0  0  0  0  0  0  0
    0.5030   -5.8749    6.1197 H   0  0  0  0  0  0  0  0  0  0  0  0
   -1.1617   -5.0311    7.7942 H   0  0  0  0  0  0  0  0  0  0  0  0
    0.1564   -1.1531    7.4038 H   0  0  0  0  0  0  0  0  0  0  0  0
    2.7414   -2.5994    3.8968 H   0  0  0  0  0  0  0  0  0  0  0  0
    6.7992   -0.0061    3.2589 H   0  0  0  0  0  0  0  0  0  0  0  0
    6.7111   -0.4757    0.5745 H   0  0  0  0  0  0  0  0  0  0  0  0
    5.1760   -1.3016   -1.2460 H   0  0  0  0  0  0  0  0  0  0  0  0
    2.8506   -1.9423   -0.7186 H   0  0  0  0  0  0  0  0  0  0  0  0
    1.9538   -1.7244    1.5966 H   0  0  0  0  0  0  0  0  0  0  0  0
    2.9541    1.1235    4.8820 H   0  0  0  0  0  0  0  0  0  0  0  0
  1  2  1  0
  1 31  1  0
  1 32  1  0
  1 33  1  0
  2  6  2  0
  2  3  1  0
  3  4  2  0
  4  5  1  0
  5  6  1  0
  6  7  1  0
  7 30  1  0
  7  8  1  0
  7 34  1  6
  8  9  1  0
  9 10  2  0
  9 11  1  0
 11 30  1  0
 11 12  1  0
 12 13  1  0
 12 19  1  0
 12 35  1  1
 13 18  1  0
 13 14  2  0
 14 15  1  0
 14 36  1  0
 15 16  2  0
 15 37  1  0
 16 17  1  0
 16 38  1  0
 17 18  2  0
 18 39  1  0
 20 19  1  1
 19 40  1  0
 20 29  1  0
 20 21  1  0
 20 30  1  0
 21 22  2  0
 21 23  1  0
 23 24  1  0
 23 41  1  0
 24 29  2  0
 24 25  1  0
 25 26  2  0
 25 42  1  0
 26 27  1  0
 26 43  1  0
 27 28  2  0
 27 44  1  0
 28 29  1  0
 28 45  1  0
 30 46  1  1
M  END
>  <i_m_ct_stereo_status>  (343) 
1

>  <s_m_source_file>  (343) 
/var/tmp/pbs.5076255.sched01/tmpnby3vxlc/96d7dj3887.sdf

>  <i_m_source_file_index>  (343) 
48

>  <i_lp_mmshare_version>  (343) 
48012

>  <i_f3d_flags>  (343) 
0

>  <s_epik_input>  (343) 
W0NIM11jMW5uc2MxW0NAQEhdMk9DKD1PKU4oW0NASF0oW05IXTMpYzRbY0hdW2NIXVtjSF1uW2NIXTQpW0NASF0yW0NAXTM1YzZjKFtOSF1DNT1PKVtjSF1bY0hdW2NIXVtjSF02

>  <s_epik_cmdline>  (343) 
J2VwaWtfcHl0aG9uJywgJy1waHQnLCAnMi4wJywgJy1waCcsICc3LjAnLCAnLXRuJywgJzgnLCAnLW1hJywgJzIwMCcsICctaW1hZScsICc8aW5maWxlLm1hZT4nLCAnLW9tYWUnLCAnPG91dGZpbGUubWFlPic=

>  <r_lp_tautomer_probability>  (343) 
1

>  <r_epik_Ionization_Penalty>  (343) 
0.0162441

>  <r_epik_Ionization_Penalty_Charging>  (343) 
0

>  <r_epik_Ionization_Penalty_Neutral>  (343) 
0.0162441

>  <r_epik_State_Penalty>  (343) 
0.0124214

>  <r_epik_Charging_Adjusted_Penalty>  (343) 
0.0124214

>  <i_epik_Tot_Q>  (343) 
0

>  <i_epik_Tot_abs_Q>  (343) 
0

>  <s_epik_Chemistry_Notes>  (343) 
This compound has an ester and may undergo hydrolysis at high or low pH. This compound contains an acetal/aminal-like group ( X-CH(R)-Y where X, Y are N, S, or O) that may be acid/base labile, releasing an aldehyde.

>  <s_lp_Force_Field>  (343) 
OPLS3e

>  <r_lp_Energy>  (343) 
27.2661

>  <b_lp_Chiralities_Consistent>  (343) 
1

>  <s_lp_Variant>  (343) 
83:0-1

>  <s_i_glide_gridfile>  (343) 
pfpi4k_grid

>  <i_i_glide_lignum>  (343) 
48

>  <i_i_glide_rotatable_bonds>  (343) 
2

>  <r_i_docking_score>  (343) 
-2.96368

>  <r_i_glide_ligand_efficiency>  (343) 
-0.0987895

>  <r_i_glide_ligand_efficiency_sa>  (343) 
-0.306962

>  <r_i_glide_ligand_efficiency_ln>  (343) 
-0.673381

>  <r_i_glide_gscore>  (343) 
-2.96368

>  <r_i_glide_lipo>  (343) 
-0.271368

>  <r_i_glide_hbond>  (343) 
-0.140253

>  <r_i_glide_metal>  (343) 
-0

>  <r_i_glide_rewards>  (343) 
-0.655899

>  <r_i_glide_evdw>  (343) 
-27.554

>  <r_i_glide_ecoul>  (343) 
-3.88966

>  <r_i_glide_erotb>  (343) 
0.223929

>  <r_i_glide_esite>  (343) 
-0.158947

>  <r_i_glide_emodel>  (343) 
-36.2598

>  <r_i_glide_energy>  (343) 
-31.4436

>  <r_i_glide_einternal>  (343) 
1.81007

>  <r_i_glide_intrahb_reward>  (343) 
-0

>  <i_i_glide_confnum>  (343) 
2

>  <i_i_glide_posenum>  (343) 
1

>  <r_i_glide_eff_state_penalty>  (343) 
0

>  <ligand_id>  (343) 
83

>  <original_smiles>  (343) 
Cc1nnsc1C1OC(=O)N2C(c3cccnc3)NC3(C(=O)Nc4ccccc43)C12

>  <smiles>  (343) 
[H]c1nc([H])c(C2([H])N([H])C3(C(=O)N([H])c4c([H])c([H])c([H])c([H])c43)C3([H])N2C(=O)OC3([H])c2snnc2C([H])([H])[H])c([H])c1[H]

$$$$
83:0:1
     RDKit          3D

 46 51  0  0  1  0  0  0  0  0999 V2000
    4.1379  -10.6443    3.2737 C   0  0  0  0  0  0  0  0  0  0  0  0
    5.3051   -9.7132    3.1522 C   0  0  0  0  0  0  0  0  0  0  0  0
    6.5796  -10.1923    3.4940 N   0  0  0  0  0  0  0  0  0  0  0  0
    7.5350   -9.3234    3.3593 N   0  0  0  0  0  0  0  0  0  0  0  0
    6.9604   -7.8761    2.7589 S   0  0  0  0  0  0  0  0  0  0  0  0
    5.3133   -8.4083    2.7315 C   0  0  0  0  0  0  0  0  0  0  0  0
    4.1934   -7.5237    2.2468 C   0  0  2  0  0  0  0  0  0  0  0  0
    4.4684   -7.2369    0.8771 O   0  0  0  0  0  0  0  0  0  0  0  0
    4.8013   -5.9576    0.6243 C   0  0  0  0  0  0  0  0  0  0  0  0
    5.0159   -5.4909   -0.4891 O   0  0  0  0  0  0  0  0  0  0  0  0
    4.7449   -5.2919    1.8345 N   0  0  0  0  0  0  0  0  0  0  0  0
    4.2178   -3.9575    2.0266 C   0  0  1  0  0  0  0  0  0  0  0  0
    4.5003   -2.9197    0.9337 C   0  0  0  0  0  0  0  0  0  0  0  0
    3.4791   -2.4041    0.1055 C   0  0  0  0  0  0  0  0  0  0  0  0
    3.8146   -1.4654   -0.8840 C   0  0  0  0  0  0  0  0  0  0  0  0
    5.1523   -1.0651   -1.0101 C   0  0  0  0  0  0  0  0  0  0  0  0
    6.1464   -1.5388   -0.2313 N   0  0  0  0  0  0  0  0  0  0  0  0
    5.8178   -2.4451    0.7179 C   0  0  0  0  0  0  0  0  0  0  0  0
    2.8217   -4.1179    2.3929 N   0  0  0  0  0  0  0  0  0  0  0  0
    2.7851   -5.3924    3.1258 C   0  0  1  0  0  0  0  0  0  0  0  0
    2.5847   -5.1367    4.6396 C   0  0  0  0  0  0  0  0  0  0  0  0
    3.3333   -4.4362    5.3198 O   0  0  0  0  0  0  0  0  0  0  0  0
    1.4985   -5.7760    5.0895 N   0  0  0  0  0  0  0  0  0  0  0  0
    0.8375   -6.4173    4.0447 C   0  0  0  0  0  0  0  0  0  0  0  0
   -0.3487   -7.1635    4.0997 C   0  0  0  0  0  0  0  0  0  0  0  0
   -0.8503   -7.6790    2.8863 C   0  0  0  0  0  0  0  0  0  0  0  0
   -0.1738   -7.4373    1.6670 C   0  0  0  0  0  0  0  0  0  0  0  0
    1.0253   -6.6877    1.6320 C   0  0  0  0  0  0  0  0  0  0  0  0
    1.5234   -6.1976    2.8559 C   0  0  0  0  0  0  0  0  0  0  0  0
    4.1531   -6.1056    2.8530 C   0  0  1  0  0  0  0  0  0  0  0  0
    3.1993  -10.1946    2.9402 H   0  0  0  0  0  0  0  0  0  0  0  0
    4.0048  -10.9560    4.3108 H   0  0  0  0  0  0  0  0  0  0  0  0
    4.2951  -11.5460    2.6783 H   0  0  0  0  0  0  0  0  0  0  0  0
    3.2349   -8.0338    2.3876 H   0  0  0  0  0  0  0  0  0  0  0  0
    4.7165   -3.5689    2.9168 H   0  0  0  0  0  0  0  0  0  0  0  0
    2.4509   -2.7124    0.2138 H   0  0  0  0  0  0  0  0  0  0  0  0
    3.0444   -1.0577   -1.5230 H   0  0  0  0  0  0  0  0  0  0  0  0
    5.4298   -0.3417   -1.7594 H   0  0  0  0  0  0  0  0  0  0  0  0
    6.6360   -2.8009    1.3279 H   0  0  0  0  0  0  0  0  0  0  0  0
    2.2440   -4.1697    1.5676 H   0  0  0  0  0  0  0  0  0  0  0  0
    1.1725   -5.7703    6.0440 H   0  0  0  0  0  0  0  0  0  0  0  0
   -0.8536   -7.3433    5.0376 H   0  0  0  0  0  0  0  0  0  0  0  0
   -1.7500   -8.2737    2.8911 H   0  0  0  0  0  0  0  0  0  0  0  0
   -0.5730   -7.8488    0.7532 H   0  0  0  0  0  0  0  0  0  0  0  0
    1.5497   -6.5171    0.6987 H   0  0  0  0  0  0  0  0  0  0  0  0
    4.7903   -6.0669    3.7403 H   0  0  0  0  0  0  0  0  0  0  0  0
  1  2  1  0
  1 31  1  0
  1 32  1  0
  1 33  1  0
  2  6  2  0
  2  3  1  0
  3  4  2  0
  4  5  1  0
  5  6  1  0
  6  7  1  0
  7 30  1  0
  7  8  1  0
  7 34  1  6
  8  9  1  0
  9 10  2  0
  9 11  1  0
 11 30  1  0
 11 12  1  0
 12 13  1  0
 12 19  1  0
 12 35  1  1
 13 18  1  0
 13 14  2  0
 14 15  1  0
 14 36  1  0
 15 16  2  0
 15 37  1  0
 16 17  1  0
 16 38  1  0
 17 18  2  0
 18 39  1  0
 20 19  1  6
 19 40  1  0
 20 29  1  0
 20 21  1  0
 20 30  1  0
 21 22  2  0
 21 23  1  0
 23 24  1  0
 23 41  1  0
 24 29  2  0
 24 25  1  0
 25 26  2  0
 25 42  1  0
 26 27  1  0
 26 43  1  0
 27 28  2  0
 27 44  1  0
 28 29  1  0
 28 45  1  0
 30 46  1  1
M  END
>  <i_m_ct_stereo_status>  (344) 
1

>  <s_m_source_file>  (344) 
/var/tmp/pbs.5076255.sched01/tmpnby3vxlc/96d7dj3887.sdf

>  <i_m_source_file_index>  (344) 
48

>  <i_lp_mmshare_version>  (344) 
48012

>  <i_f3d_flags>  (344) 
0

>  <s_epik_input>  (344) 
W0NIM11jMW5uc2MxW0NAQEhdMk9DKD1PKU4oW0NASF0oW05IXTMpYzRbY0hdW2NIXVtjSF1uW2NIXTQpW0NASF0yW0NAXTM1YzZjKFtOSF1DNT1PKVtjSF1bY0hdW2NIXVtjSF02

>  <s_epik_cmdline>  (344) 
J2VwaWtfcHl0aG9uJywgJy1waHQnLCAnMi4wJywgJy1waCcsICc3LjAnLCAnLXRuJywgJzgnLCAnLW1hJywgJzIwMCcsICctaW1hZScsICc8aW5maWxlLm1hZT4nLCAnLW9tYWUnLCAnPG91dGZpbGUubWFlPic=

>  <r_lp_tautomer_probability>  (344) 
1

>  <r_epik_Ionization_Penalty>  (344) 
0.0162441

>  <r_epik_Ionization_Penalty_Charging>  (344) 
0

>  <r_epik_Ionization_Penalty_Neutral>  (344) 
0.0162441

>  <r_epik_State_Penalty>  (344) 
0.0124214

>  <r_epik_Charging_Adjusted_Penalty>  (344) 
0.0124214

>  <i_epik_Tot_Q>  (344) 
0

>  <i_epik_Tot_abs_Q>  (344) 
0

>  <s_epik_Chemistry_Notes>  (344) 
This compound has an ester and may undergo hydrolysis at high or low pH. This compound contains an acetal/aminal-like group ( X-CH(R)-Y where X, Y are N, S, or O) that may be acid/base labile, releasing an aldehyde.

>  <s_lp_Force_Field>  (344) 
OPLS3e

>  <r_lp_Energy>  (344) 
27.2661

>  <b_lp_Chiralities_Consistent>  (344) 
1

>  <s_lp_Variant>  (344) 
83:0-1

>  <s_i_glide_gridfile>  (344) 
pfpi4k_grid

>  <i_i_glide_lignum>  (344) 
48

>  <i_i_glide_rotatable_bonds>  (344) 
2

>  <r_i_docking_score>  (344) 
-2.49617

>  <r_i_glide_ligand_efficiency>  (344) 
-0.0832056

>  <r_i_glide_ligand_efficiency_sa>  (344) 
-0.258539

>  <r_i_glide_ligand_efficiency_ln>  (344) 
-0.567157

>  <r_i_glide_gscore>  (344) 
-2.49617

>  <r_i_glide_lipo>  (344) 
-0.125135

>  <r_i_glide_hbond>  (344) 
-0.021091

>  <r_i_glide_metal>  (344) 
-0

>  <r_i_glide_rewards>  (344) 
-0.737523

>  <r_i_glide_evdw>  (344) 
-29.8261

>  <r_i_glide_ecoul>  (344) 
-2.29245

>  <r_i_glide_erotb>  (344) 
0.223929

>  <r_i_glide_esite>  (344) 
-0.00117626

>  <r_i_glide_emodel>  (344) 
-36.7379

>  <r_i_glide_energy>  (344) 
-32.1185

>  <r_i_glide_einternal>  (344) 
0.739564

>  <r_i_glide_intrahb_reward>  (344) 
-0

>  <i_i_glide_confnum>  (344) 
2

>  <i_i_glide_posenum>  (344) 
38

>  <r_i_glide_eff_state_penalty>  (344) 
0

>  <ligand_id>  (344) 
83

>  <original_smiles>  (344) 
Cc1nnsc1C1OC(=O)N2C(c3cccnc3)NC3(C(=O)Nc4ccccc43)C12

>  <smiles>  (344) 
[H]c1nc([H])c(C2([H])N([H])C3(C(=O)N([H])c4c([H])c([H])c([H])c([H])c43)C3([H])N2C(=O)OC3([H])c2snnc2C([H])([H])[H])c([H])c1[H]

$$$$
83:0:2
     RDKit          3D

 46 51  0  0  1  0  0  0  0  0999 V2000
    6.7231   -6.2996    1.3104 C   0  0  0  0  0  0  0  0  0  0  0  0
    6.1145   -7.6260    1.6808 C   0  0  0  0  0  0  0  0  0  0  0  0
    6.9931   -8.7308    1.6940 N   0  0  0  0  0  0  0  0  0  0  0  0
    6.4734   -9.8587    2.0489 N   0  0  0  0  0  0  0  0  0  0  0  0
    4.8561   -9.6914    2.4040 S   0  0  0  0  0  0  0  0  0  0  0  0
    4.8317   -8.0058    1.9963 C   0  0  0  0  0  0  0  0  0  0  0  0
    3.5249   -7.2742    2.0970 C   0  0  2  0  0  0  0  0  0  0  0  0
    3.3816   -6.4693    0.9357 O   0  0  0  0  0  0  0  0  0  0  0  0
    3.4574   -5.1589    1.1599 C   0  0  0  0  0  0  0  0  0  0  0  0
    3.3029   -4.2948    0.3112 O   0  0  0  0  0  0  0  0  0  0  0  0
    3.6724   -5.0292    2.5374 N   0  0  0  0  0  0  0  0  0  0  0  0
    3.0986   -4.0030    3.3693 C   0  0  1  0  0  0  0  0  0  0  0  0
    3.0846   -2.5825    2.7963 C   0  0  0  0  0  0  0  0  0  0  0  0
    1.8890   -1.8439    2.6555 C   0  0  0  0  0  0  0  0  0  0  0  0
    1.9451   -0.5575    2.0843 C   0  0  0  0  0  0  0  0  0  0  0  0
    3.1950   -0.0530    1.6844 C   0  0  0  0  0  0  0  0  0  0  0  0
    4.3517   -0.7311    1.8258 N   0  0  0  0  0  0  0  0  0  0  0  0
    4.2842   -1.9643    2.3699 C   0  0  0  0  0  0  0  0  0  0  0  0
    1.8312   -4.5214    3.8705 N   0  0  0  0  0  0  0  0  0  0  0  0
    2.0817   -5.9664    4.0010 C   0  0  1  0  0  0  0  0  0  0  0  0
    2.1605   -6.3690    5.4912 C   0  0  0  0  0  0  0  0  0  0  0  0
    2.9575   -5.8773    6.2998 O   0  0  0  0  0  0  0  0  0  0  0  0
    1.2511   -7.3058    5.7858 N   0  0  0  0  0  0  0  0  0  0  0  0
    0.4745   -7.5827    4.6611 C   0  0  0  0  0  0  0  0  0  0  0  0
   -0.5875   -8.4812    4.5589 C   0  0  0  0  0  0  0  0  0  0  0  0
   -1.2412   -8.5673    3.3120 C   0  0  0  0  0  0  0  0  0  0  0  0
   -0.8243   -7.7768    2.2157 C   0  0  0  0  0  0  0  0  0  0  0  0
    0.2578   -6.8796    2.3419 C   0  0  0  0  0  0  0  0  0  0  0  0
    0.8944   -6.8109    3.5950 C   0  0  0  0  0  0  0  0  0  0  0  0
    3.4289   -6.2500    3.2356 C   0  0  1  0  0  0  0  0  0  0  0  0
    6.0649   -5.4289    1.4007 H   0  0  0  0  0  0  0  0  0  0  0  0
    7.0851   -6.2942    0.2724 H   0  0  0  0  0  0  0  0  0  0  0  0
    7.5748   -6.0761    1.9648 H   0  0  0  0  0  0  0  0  0  0  0  0
    2.7153   -8.0093    2.1877 H   0  0  0  0  0  0  0  0  0  0  0  0
    3.7559   -3.9305    4.2354 H   0  0  0  0  0  0  0  0  0  0  0  0
    0.9396   -2.2521    2.9627 H   0  0  0  0  0  0  0  0  0  0  0  0
    1.0420    0.0242    1.9305 H   0  0  0  0  0  0  0  0  0  0  0  0
    3.2680    0.9249    1.2363 H   0  0  0  0  0  0  0  0  0  0  0  0
    5.2344   -2.4710    2.4478 H   0  0  0  0  0  0  0  0  0  0  0  0
    1.1006   -4.3423    3.1920 H   0  0  0  0  0  0  0  0  0  0  0  0
    1.1117   -7.7348    6.6790 H   0  0  0  0  0  0  0  0  0  0  0  0
   -0.9012   -9.0803    5.3959 H   0  0  0  0  0  0  0  0  0  0  0  0
   -2.0555   -9.2594    3.1910 H   0  0  0  0  0  0  0  0  0  0  0  0
   -1.3372   -7.8761    1.2738 H   0  0  0  0  0  0  0  0  0  0  0  0
    0.6035   -6.2825    1.5086 H   0  0  0  0  0  0  0  0  0  0  0  0
    4.2472   -6.4123    3.9371 H   0  0  0  0  0  0  0  0  0  0  0  0
  1  2  1  0
  1 31  1  0
  1 32  1  0
  1 33  1  0
  2  6  2  0
  2  3  1  0
  3  4  2  0
  4  5  1  0
  5  6  1  0
  6  7  1  0
  7 30  1  0
  7  8  1  0
  7 34  1  1
  8  9  1  0
  9 10  2  0
  9 11  1  0
 11 30  1  0
 11 12  1  0
 12 13  1  0
 12 19  1  0
 12 35  1  1
 13 18  1  0
 13 14  2  0
 14 15  1  0
 14 36  1  0
 15 16  2  0
 15 37  1  0
 16 17  1  0
 16 38  1  0
 17 18  2  0
 18 39  1  0
 20 19  1  1
 19 40  1  0
 20 29  1  0
 20 21  1  0
 20 30  1  0
 21 22  2  0
 21 23  1  0
 23 24  1  0
 23 41  1  0
 24 29  2  0
 24 25  1  0
 25 26  2  0
 25 42  1  0
 26 27  1  0
 26 43  1  0
 27 28  2  0
 27 44  1  0
 28 29  1  0
 28 45  1  0
 30 46  1  1
M  END
>  <i_m_ct_stereo_status>  (345) 
1

>  <s_m_source_file>  (345) 
/var/tmp/pbs.5076255.sched01/tmpnby3vxlc/96d7dj3887.sdf

>  <i_m_source_file_index>  (345) 
48

>  <i_lp_mmshare_version>  (345) 
48012

>  <i_f3d_flags>  (345) 
0

>  <s_epik_input>  (345) 
W0NIM11jMW5uc2MxW0NAQEhdMk9DKD1PKU4oW0NASF0oW05IXTMpYzRbY0hdW2NIXVtjSF1uW2NIXTQpW0NASF0yW0NAXTM1YzZjKFtOSF1DNT1PKVtjSF1bY0hdW2NIXVtjSF02

>  <s_epik_cmdline>  (345) 
J2VwaWtfcHl0aG9uJywgJy1waHQnLCAnMi4wJywgJy1waCcsICc3LjAnLCAnLXRuJywgJzgnLCAnLW1hJywgJzIwMCcsICctaW1hZScsICc8aW5maWxlLm1hZT4nLCAnLW9tYWUnLCAnPG91dGZpbGUubWFlPic=

>  <r_lp_tautomer_probability>  (345) 
1

>  <r_epik_Ionization_Penalty>  (345) 
0.0162441

>  <r_epik_Ionization_Penalty_Charging>  (345) 
0

>  <r_epik_Ionization_Penalty_Neutral>  (345) 
0.0162441

>  <r_epik_State_Penalty>  (345) 
0.0124214

>  <r_epik_Charging_Adjusted_Penalty>  (345) 
0.0124214

>  <i_epik_Tot_Q>  (345) 
0

>  <i_epik_Tot_abs_Q>  (345) 
0

>  <s_epik_Chemistry_Notes>  (345) 
This compound has an ester and may undergo hydrolysis at high or low pH. This compound contains an acetal/aminal-like group ( X-CH(R)-Y where X, Y are N, S, or O) that may be acid/base labile, releasing an aldehyde.

>  <s_lp_Force_Field>  (345) 
OPLS3e

>  <r_lp_Energy>  (345) 
27.2661

>  <b_lp_Chiralities_Consistent>  (345) 
1

>  <s_lp_Variant>  (345) 
83:0-1

>  <s_i_glide_gridfile>  (345) 
pfpi4k_grid

>  <i_i_glide_lignum>  (345) 
48

>  <i_i_glide_rotatable_bonds>  (345) 
2

>  <r_i_docking_score>  (345) 
-2.30223

>  <r_i_glide_ligand_efficiency>  (345) 
-0.0767409

>  <r_i_glide_ligand_efficiency_sa>  (345) 
-0.238452

>  <r_i_glide_ligand_efficiency_ln>  (345) 
-0.523091

>  <r_i_glide_gscore>  (345) 
-2.30223

>  <r_i_glide_lipo>  (345) 
-0.232601

>  <r_i_glide_hbond>  (345) 
0

>  <r_i_glide_metal>  (345) 
-0

>  <r_i_glide_rewards>  (345) 
-0.542442

>  <r_i_glide_evdw>  (345) 
-29.9712

>  <r_i_glide_ecoul>  (345) 
-1.55885

>  <r_i_glide_erotb>  (345) 
0.223929

>  <r_i_glide_esite>  (345) 
-0.0187269

>  <r_i_glide_emodel>  (345) 
-34.8182

>  <r_i_glide_energy>  (345) 
-31.53

>  <r_i_glide_einternal>  (345) 
2.04004

>  <r_i_glide_intrahb_reward>  (345) 
-0

>  <i_i_glide_confnum>  (345) 
6

>  <i_i_glide_posenum>  (345) 
19

>  <r_i_glide_eff_state_penalty>  (345) 
0

>  <ligand_id>  (345) 
83

>  <original_smiles>  (345) 
Cc1nnsc1C1OC(=O)N2C(c3cccnc3)NC3(C(=O)Nc4ccccc43)C12

>  <smiles>  (345) 
[H]c1nc([H])c(C2([H])N([H])C3(C(=O)N([H])c4c([H])c([H])c([H])c([H])c43)C3([H])N2C(=O)OC3([H])c2snnc2C([H])([H])[H])c([H])c1[H]

$$$$
83:1:0
     RDKit          3D

 47 52  0  0  1  0  0  0  0  0999 V2000
    0.5510   -1.5361    4.1029 C   0  0  0  0  0  0  0  0  0  0  0  0
    0.2333   -2.7057    4.9860 C   0  0  0  0  0  0  0  0  0  0  0  0
   -0.5198   -2.4817    6.1506 N   0  0  0  0  0  0  0  0  0  0  0  0
   -0.7554   -3.5513    6.8536 N   0  0  0  0  0  0  0  0  0  0  0  0
   -0.0926   -4.9031    6.1358 S   0  0  0  0  0  0  0  0  0  0  0  0
    0.5733   -4.0247    4.8033 C   0  0  0  0  0  0  0  0  0  0  0  0
    1.3230   -4.7004    3.6785 C   0  0  2  0  0  0  0  0  0  0  0  0
    0.5467   -5.8230    3.2710 O   0  0  0  0  0  0  0  0  0  0  0  0
    1.0731   -7.0240    3.5750 C   0  0  0  0  0  0  0  0  0  0  0  0
    0.5782   -8.1007    3.2601 O   0  0  0  0  0  0  0  0  0  0  0  0
    2.2875   -6.7694    4.1895 N   0  0  0  0  0  0  0  0  0  0  0  0
    3.5080   -7.5094    3.9488 C   0  0  1  0  0  0  0  0  0  0  0  0
    3.3863   -9.0270    3.7956 C   0  0  0  0  0  0  0  0  0  0  0  0
    2.9151   -9.8112    4.8782 C   0  0  0  0  0  0  0  0  0  0  0  0
    2.7929  -11.2078    4.7246 C   0  0  0  0  0  0  0  0  0  0  0  0
    3.1425  -11.7903    3.4914 C   0  0  0  0  0  0  0  0  0  0  0  0
    3.5827  -11.0175    2.4825 N   0  0  0  0  0  0  0  0  0  0  0  0
    3.7298   -9.6805    2.5878 C   0  0  0  0  0  0  0  0  0  0  0  0
    4.2087   -6.8122    2.8836 N   0  0  0  0  0  0  0  0  0  0  0  0
    3.8592   -5.3990    3.0958 C   0  0  1  0  0  0  0  0  0  0  0  0
    5.0591   -4.6234    3.6896 C   0  0  0  0  0  0  0  0  0  0  0  0
    5.6200   -4.9347    4.7364 O   0  0  0  0  0  0  0  0  0  0  0  0
    5.3865   -3.5855    2.9092 N   0  0  0  0  0  0  0  0  0  0  0  0
    4.5922   -3.5594    1.7661 C   0  0  0  0  0  0  0  0  0  0  0  0
    4.6484   -2.6545    0.6944 C   0  0  0  0  0  0  0  0  0  0  0  0
    3.7619   -2.8670   -0.3815 C   0  0  0  0  0  0  0  0  0  0  0  0
    2.8635   -3.9613   -0.3717 C   0  0  0  0  0  0  0  0  0  0  0  0
    2.8217   -4.8631    0.7178 C   0  0  0  0  0  0  0  0  0  0  0  0
    3.6946   -4.6214    1.7980 C   0  0  0  0  0  0  0  0  0  0  0  0
    2.6409   -5.3841    4.0839 C   0  0  1  0  0  0  0  0  0  0  0  0
    1.0888   -1.8188    3.1951 H   0  0  0  0  0  0  0  0  0  0  0  0
    1.1646   -0.8128    4.6394 H   0  0  0  0  0  0  0  0  0  0  0  0
   -0.3613   -1.0236    3.7979 H   0  0  0  0  0  0  0  0  0  0  0  0
    1.4698   -3.9942    2.8575 H   0  0  0  0  0  0  0  0  0  0  0  0
    4.1191   -7.3706    4.8432 H   0  0  0  0  0  0  0  0  0  0  0  0
    2.6501   -9.3466    5.8183 H   0  0  0  0  0  0  0  0  0  0  0  0
    2.4276  -11.8210    5.5387 H   0  0  0  0  0  0  0  0  0  0  0  0
    3.0745  -12.8407    3.2627 H   0  0  0  0  0  0  0  0  0  0  0  0
    4.1002   -9.1891    1.7001 H   0  0  0  0  0  0  0  0  0  0  0  0
    3.8790   -7.0936    1.9721 H   0  0  0  0  0  0  0  0  0  0  0  0
    6.1357   -2.9334    3.0881 H   0  0  0  0  0  0  0  0  0  0  0  0
    5.3461   -1.8295    0.6967 H   0  0  0  0  0  0  0  0  0  0  0  0
    3.7721   -2.1937   -1.2250 H   0  0  0  0  0  0  0  0  0  0  0  0
    2.2169   -4.1147   -1.2212 H   0  0  0  0  0  0  0  0  0  0  0  0
    2.1440   -5.7078    0.7127 H   0  0  0  0  0  0  0  0  0  0  0  0
    2.9457   -5.0170    5.0676 H   0  0  0  0  0  0  0  0  0  0  0  0
    3.8169  -11.4732    1.5633 H   0  0  0  0  0  0  0  0  0  0  0  0
  1  2  1  0
  1 31  1  0
  1 32  1  0
  1 33  1  0
  2  6  2  0
  2  3  1  0
  3  4  2  0
  4  5  1  0
  5  6  1  0
  6  7  1  0
  7 30  1  0
  7  8  1  0
  7 34  1  6
  8  9  1  0
  9 10  2  0
  9 11  1  0
 11 30  1  0
 11 12  1  0
 12 13  1  0
 12 19  1  0
 12 35  1  1
 13 18  1  0
 13 14  2  0
 14 15  1  0
 14 36  1  0
 15 16  2  0
 15 37  1  0
 16 17  1  0
 16 38  1  0
 17 18  2  0
 17 47  1  0
 18 39  1  0
 20 19  1  6
 19 40  1  0
 20 29  1  0
 20 21  1  0
 20 30  1  0
 21 22  2  0
 21 23  1  0
 23 24  1  0
 23 41  1  0
 24 29  2  0
 24 25  1  0
 25 26  2  0
 25 42  1  0
 26 27  1  0
 26 43  1  0
 27 28  2  0
 27 44  1  0
 28 29  1  0
 28 45  1  0
 30 46  1  1
M  CHG  1  17   1
M  END
>  <i_m_ct_stereo_status>  (346) 
1

>  <s_m_source_file>  (346) 
/var/tmp/pbs.5076255.sched01/tmp277fsmq3/144xeprw1xa.sdf

>  <i_m_source_file_index>  (346) 
1

>  <i_lp_mmshare_version>  (346) 
48012

>  <i_f3d_flags>  (346) 
0

>  <s_epik_input>  (346) 
W0NIM11jMW5uc2MxW0NAQEhdMk9DKD1PKU4oW0NASF0oW05IXTMpYzRbY0hdW2NIXVtjSF1uW2NIXTQpW0NASF0yW0NAXTM1YzZjKFtOSF1DNT1PKVtjSF1bY0hdW2NIXVtjSF02

>  <s_epik_cmdline>  (346) 
J2VwaWtfcHl0aG9uJywgJy1waHQnLCAnMi4wJywgJy1waCcsICc3LjAnLCAnLXRuJywgJzgnLCAnLW1hJywgJzIwMCcsICctaW1hZScsICc8aW5maWxlLm1hZT4nLCAnLW9tYWUnLCAnPG91dGZpbGUubWFlPic=

>  <r_lp_tautomer_probability>  (346) 
1

>  <r_epik_Ionization_Penalty>  (346) 
2.23461

>  <r_epik_Ionization_Penalty_Charging>  (346) 
2.23452

>  <r_epik_Ionization_Penalty_Neutral>  (346) 
9.39691e-05

>  <r_epik_State_Penalty>  (346) 
2.38211

>  <r_epik_Charging_Adjusted_Penalty>  (346) 
4.61662

>  <i_epik_Tot_Q>  (346) 
1

>  <i_epik_Tot_abs_Q>  (346) 
1

>  <s_epik_Chemistry_Notes>  (346) 
This compound has an ester and may undergo hydrolysis at high or low pH. This compound contains an acetal/aminal-like group ( X-CH(R)-Y where X, Y are N, S, or O) that may be acid/base labile, releasing an aldehyde.

>  <s_lp_Force_Field>  (346) 
OPLS3e

>  <r_lp_Energy>  (346) 
30.3718

>  <b_lp_Chiralities_Consistent>  (346) 
1

>  <s_lp_Variant>  (346) 
83:0-2

>  <s_i_glide_gridfile>  (346) 
pfpi4k_grid

>  <i_i_glide_lignum>  (346) 
1

>  <i_i_glide_rotatable_bonds>  (346) 
2

>  <r_i_docking_score>  (346) 
-3.68119

>  <r_i_glide_ligand_efficiency>  (346) 
-0.122706

>  <r_i_glide_ligand_efficiency_sa>  (346) 
-0.381277

>  <r_i_glide_ligand_efficiency_ln>  (346) 
-0.836406

>  <r_i_glide_gscore>  (346) 
-3.68119

>  <r_i_glide_lipo>  (346) 
-0.0480991

>  <r_i_glide_hbond>  (346) 
-0.184037

>  <r_i_glide_metal>  (346) 
-0

>  <r_i_glide_rewards>  (346) 
-0.543841

>  <r_i_glide_evdw>  (346) 
-21.7451

>  <r_i_glide_ecoul>  (346) 
-12.3326

>  <r_i_glide_erotb>  (346) 
0.222962

>  <r_i_glide_esite>  (346) 
-0.191032

>  <r_i_glide_emodel>  (346) 
-44.1931

>  <r_i_glide_energy>  (346) 
-34.0777

>  <r_i_glide_einternal>  (346) 
0.195222

>  <r_i_glide_intrahb_reward>  (346) 
-0

>  <i_i_glide_confnum>  (346) 
1

>  <i_i_glide_posenum>  (346) 
26

>  <r_i_glide_eff_state_penalty>  (346) 
0

>  <ligand_id>  (346) 
83

>  <original_smiles>  (346) 
Cc1nnsc1C1OC(=O)N2C(c3cccnc3)NC3(C(=O)Nc4ccccc43)C12

>  <smiles>  (346) 
[H]c1c([H])c([H])c2c(c1[H])N([H])C(=O)C21N([H])C([H])(c2c([H])c([H])c([H])[n+]([H])c2[H])N2C(=O)OC([H])(c3snnc3C([H])([H])[H])C21[H]

$$$$
83:1:1
     RDKit          3D

 47 52  0  0  1  0  0  0  0  0999 V2000
    7.1911   -6.9120    1.9116 C   0  0  0  0  0  0  0  0  0  0  0  0
    6.3900   -8.1393    2.3281 C   0  0  0  0  0  0  0  0  0  0  0  0
    7.1167   -9.2712    2.6969 N   0  0  0  0  0  0  0  0  0  0  0  0
    6.4090  -10.3169    3.0063 N   0  0  0  0  0  0  0  0  0  0  0  0
    4.8100   -9.9804    2.9594 S   0  0  0  0  0  0  0  0  0  0  0  0
    5.0279   -8.3632    2.4144 C   0  0  0  0  0  0  0  0  0  0  0  0
    3.7948   -7.5090    2.1736 C   0  0  2  0  0  0  0  0  0  0  0  0
    3.9343   -6.8697    0.9066 O   0  0  0  0  0  0  0  0  0  0  0  0
    4.1220   -5.5512    0.9796 C   0  0  0  0  0  0  0  0  0  0  0  0
    4.2087   -4.8034    0.0140 O   0  0  0  0  0  0  0  0  0  0  0  0
    4.0939   -5.2369    2.3266 N   0  0  0  0  0  0  0  0  0  0  0  0
    3.5224   -4.0559    2.9070 C   0  0  1  0  0  0  0  0  0  0  0  0
    3.7700   -2.7469    2.1577 C   0  0  0  0  0  0  0  0  0  0  0  0
    5.0141   -2.0604    2.2569 C   0  0  0  0  0  0  0  0  0  0  0  0
    5.2162   -0.8698    1.5158 C   0  0  0  0  0  0  0  0  0  0  0  0
    4.1841   -0.3999    0.6788 C   0  0  0  0  0  0  0  0  0  0  0  0
    3.0200   -1.0857    0.5885 N   0  0  0  0  0  0  0  0  0  0  0  0
    2.7908   -2.2197    1.2879 C   0  0  0  0  0  0  0  0  0  0  0  0
    2.1400   -4.3774    3.2333 N   0  0  0  0  0  0  0  0  0  0  0  0
    2.2144   -5.8007    3.6315 C   0  0  1  0  0  0  0  0  0  0  0  0
    2.0357   -5.9594    5.1599 C   0  0  0  0  0  0  0  0  0  0  0  0
    2.7481   -5.3972    5.9793 O   0  0  0  0  0  0  0  0  0  0  0  0
    1.0036   -6.7622    5.4368 N   0  0  0  0  0  0  0  0  0  0  0  0
    0.3733   -7.1674    4.2653 C   0  0  0  0  0  0  0  0  0  0  0  0
   -0.7505   -7.9908    4.1223 C   0  0  0  0  0  0  0  0  0  0  0  0
   -1.2143   -8.2147    2.8119 C   0  0  0  0  0  0  0  0  0  0  0  0
   -0.5639   -7.6422    1.6923 C   0  0  0  0  0  0  0  0  0  0  0  0
    0.5785   -6.8263    1.8496 C   0  0  0  0  0  0  0  0  0  0  0  0
    1.0258   -6.6135    3.1673 C   0  0  0  0  0  0  0  0  0  0  0  0
    3.6262   -6.3134    3.1350 C   0  0  1  0  0  0  0  0  0  0  0  0
    6.6308   -5.9852    1.7802 H   0  0  0  0  0  0  0  0  0  0  0  0
    7.7070   -7.1101    0.9662 H   0  0  0  0  0  0  0  0  0  0  0  0
    7.9038   -6.6687    2.7016 H   0  0  0  0  0  0  0  0  0  0  0  0
    2.9187   -8.1473    2.2316 H   0  0  0  0  0  0  0  0  0  0  0  0
    4.0205   -3.9315    3.8639 H   0  0  0  0  0  0  0  0  0  0  0  0
    5.7989   -2.4483    2.8980 H   0  0  0  0  0  0  0  0  0  0  0  0
    6.1487   -0.3332    1.5952 H   0  0  0  0  0  0  0  0  0  0  0  0
    4.2375    0.5034    0.0969 H   0  0  0  0  0  0  0  0  0  0  0  0
    1.8142   -2.6544    1.1223 H   0  0  0  0  0  0  0  0  0  0  0  0
    1.5461   -4.2959    2.4195 H   0  0  0  0  0  0  0  0  0  0  0  0
    0.6922   -7.0254    6.3563 H   0  0  0  0  0  0  0  0  0  0  0  0
   -1.2257   -8.4428    4.9844 H   0  0  0  0  0  0  0  0  0  0  0  0
   -2.0579   -8.8616    2.6621 H   0  0  0  0  0  0  0  0  0  0  0  0
   -0.9349   -7.8522    0.7050 H   0  0  0  0  0  0  0  0  0  0  0  0
    1.1074   -6.4076    0.9949 H   0  0  0  0  0  0  0  0  0  0  0  0
    4.3106   -6.4374    3.9786 H   0  0  0  0  0  0  0  0  0  0  0  0
    2.2565   -0.7751   -0.0333 H   0  0  0  0  0  0  0  0  0  0  0  0
  1  2  1  0
  1 31  1  0
  1 32  1  0
  1 33  1  0
  2  6  2  0
  2  3  1  0
  3  4  2  0
  4  5  1  0
  5  6  1  0
  6  7  1  0
  7 30  1  0
  7  8  1  0
  7 34  1  6
  8  9  1  0
  9 10  2  0
  9 11  1  0
 11 30  1  0
 11 12  1  0
 12 13  1  0
 12 19  1  0
 12 35  1  1
 13 18  1  0
 13 14  2  0
 14 15  1  0
 14 36  1  0
 15 16  2  0
 15 37  1  0
 16 17  1  0
 16 38  1  0
 17 18  2  0
 17 47  1  0
 18 39  1  0
 20 19  1  1
 19 40  1  0
 20 29  1  0
 20 21  1  0
 20 30  1  0
 21 22  2  0
 21 23  1  0
 23 24  1  0
 23 41  1  0
 24 29  2  0
 24 25  1  0
 25 26  2  0
 25 42  1  0
 26 27  1  0
 26 43  1  0
 27 28  2  0
 27 44  1  0
 28 29  1  0
 28 45  1  0
 30 46  1  1
M  CHG  1  17   1
M  END
>  <i_m_ct_stereo_status>  (347) 
1

>  <s_m_source_file>  (347) 
/var/tmp/pbs.5076255.sched01/tmp277fsmq3/144xeprw1xa.sdf

>  <i_m_source_file_index>  (347) 
1

>  <i_lp_mmshare_version>  (347) 
48012

>  <i_f3d_flags>  (347) 
0

>  <s_epik_input>  (347) 
W0NIM11jMW5uc2MxW0NAQEhdMk9DKD1PKU4oW0NASF0oW05IXTMpYzRbY0hdW2NIXVtjSF1uW2NIXTQpW0NASF0yW0NAXTM1YzZjKFtOSF1DNT1PKVtjSF1bY0hdW2NIXVtjSF02

>  <s_epik_cmdline>  (347) 
J2VwaWtfcHl0aG9uJywgJy1waHQnLCAnMi4wJywgJy1waCcsICc3LjAnLCAnLXRuJywgJzgnLCAnLW1hJywgJzIwMCcsICctaW1hZScsICc8aW5maWxlLm1hZT4nLCAnLW9tYWUnLCAnPG91dGZpbGUubWFlPic=

>  <r_lp_tautomer_probability>  (347) 
1

>  <r_epik_Ionization_Penalty>  (347) 
2.23461

>  <r_epik_Ionization_Penalty_Charging>  (347) 
2.23452

>  <r_epik_Ionization_Penalty_Neutral>  (347) 
9.39691e-05

>  <r_epik_State_Penalty>  (347) 
2.38211

>  <r_epik_Charging_Adjusted_Penalty>  (347) 
4.61662

>  <i_epik_Tot_Q>  (347) 
1

>  <i_epik_Tot_abs_Q>  (347) 
1

>  <s_epik_Chemistry_Notes>  (347) 
This compound has an ester and may undergo hydrolysis at high or low pH. This compound contains an acetal/aminal-like group ( X-CH(R)-Y where X, Y are N, S, or O) that may be acid/base labile, releasing an aldehyde.

>  <s_lp_Force_Field>  (347) 
OPLS3e

>  <r_lp_Energy>  (347) 
30.3718

>  <b_lp_Chiralities_Consistent>  (347) 
1

>  <s_lp_Variant>  (347) 
83:0-2

>  <s_i_glide_gridfile>  (347) 
pfpi4k_grid

>  <i_i_glide_lignum>  (347) 
1

>  <i_i_glide_rotatable_bonds>  (347) 
2

>  <r_i_docking_score>  (347) 
-3.38994

>  <r_i_glide_ligand_efficiency>  (347) 
-0.112998

>  <r_i_glide_ligand_efficiency_sa>  (347) 
-0.351111

>  <r_i_glide_ligand_efficiency_ln>  (347) 
-0.770231

>  <r_i_glide_gscore>  (347) 
-3.38994

>  <r_i_glide_lipo>  (347) 
-0.4203

>  <r_i_glide_hbond>  (347) 
-0.2

>  <r_i_glide_metal>  (347) 
-0

>  <r_i_glide_rewards>  (347) 
-0.600827

>  <r_i_glide_evdw>  (347) 
-28.0555

>  <r_i_glide_ecoul>  (347) 
-5.96972

>  <r_i_glide_erotb>  (347) 
0.222962

>  <r_i_glide_esite>  (347) 
-0.0935425

>  <r_i_glide_emodel>  (347) 
-41.9107

>  <r_i_glide_energy>  (347) 
-34.0252

>  <r_i_glide_einternal>  (347) 
2.32114

>  <r_i_glide_intrahb_reward>  (347) 
-0

>  <i_i_glide_confnum>  (347) 
2

>  <i_i_glide_posenum>  (347) 
19

>  <r_i_glide_eff_state_penalty>  (347) 
0

>  <ligand_id>  (347) 
83

>  <original_smiles>  (347) 
Cc1nnsc1C1OC(=O)N2C(c3cccnc3)NC3(C(=O)Nc4ccccc43)C12

>  <smiles>  (347) 
[H]c1c([H])c([H])c2c(c1[H])N([H])C(=O)C21N([H])C([H])(c2c([H])c([H])c([H])[n+]([H])c2[H])N2C(=O)OC([H])(c3snnc3C([H])([H])[H])C21[H]

$$$$
83:1:2
     RDKit          3D

 47 52  0  0  1  0  0  0  0  0999 V2000
    7.3828   -2.1922   -0.2599 C   0  0  0  0  0  0  0  0  0  0  0  0
    7.5100   -3.5253    0.4479 C   0  0  0  0  0  0  0  0  0  0  0  0
    8.8152   -4.0586    0.5205 N   0  0  0  0  0  0  0  0  0  0  0  0
    8.9148   -5.1874    1.1322 N   0  0  0  0  0  0  0  0  0  0  0  0
    7.4468   -5.7199    1.6609 S   0  0  0  0  0  0  0  0  0  0  0  0
    6.5855   -4.3540    1.0400 C   0  0  0  0  0  0  0  0  0  0  0  0
    5.0790   -4.2998    1.2595 C   0  0  2  0  0  0  0  0  0  0  0  0
    4.5054   -3.3989    0.3212 O   0  0  0  0  0  0  0  0  0  0  0  0
    4.1377   -2.2257    0.8403 C   0  0  0  0  0  0  0  0  0  0  0  0
    3.6733   -1.3033    0.1820 O   0  0  0  0  0  0  0  0  0  0  0  0
    4.3186   -2.3212    2.2087 N   0  0  0  0  0  0  0  0  0  0  0  0
    3.3685   -1.8423    3.1859 C   0  0  1  0  0  0  0  0  0  0  0  0
    2.6637   -0.5117    2.8822 C   0  0  0  0  0  0  0  0  0  0  0  0
    1.4958   -0.4530    2.0933 C   0  0  0  0  0  0  0  0  0  0  0  0
    0.8996    0.7857    1.7852 C   0  0  0  0  0  0  0  0  0  0  0  0
    1.4775    1.9640    2.2935 C   0  0  0  0  0  0  0  0  0  0  0  0
    2.5987    1.8951    3.0258 N   0  0  0  0  0  0  0  0  0  0  0  0
    3.2137    0.7200    3.3384 C   0  0  0  0  0  0  0  0  0  0  0  0
    2.4589   -2.9478    3.4404 N   0  0  0  0  0  0  0  0  0  0  0  0
    3.3105   -4.1442    3.3081 C   0  0  1  0  0  0  0  0  0  0  0  0
    3.5990   -4.7587    4.6934 C   0  0  0  0  0  0  0  0  0  0  0  0
    4.1243   -4.1293    5.6117 O   0  0  0  0  0  0  0  0  0  0  0  0
    3.1994   -6.0305    4.7458 N   0  0  0  0  0  0  0  0  0  0  0  0
    2.5895   -6.4038    3.5503 C   0  0  0  0  0  0  0  0  0  0  0  0
    2.0147   -7.6360    3.2190 C   0  0  0  0  0  0  0  0  0  0  0  0
    1.4071   -7.7483    1.9503 C   0  0  0  0  0  0  0  0  0  0  0  0
    1.3858   -6.6539    1.0549 C   0  0  0  0  0  0  0  0  0  0  0  0
    1.9984   -5.4295    1.3984 C   0  0  0  0  0  0  0  0  0  0  0  0
    2.5967   -5.3310    2.6722 C   0  0  0  0  0  0  0  0  0  0  0  0
    4.6296   -3.6668    2.5930 C   0  0  1  0  0  0  0  0  0  0  0  0
    6.3748   -1.7789   -0.3106 H   0  0  0  0  0  0  0  0  0  0  0  0
    7.7132   -2.3033   -1.2980 H   0  0  0  0  0  0  0  0  0  0  0  0
    8.0041   -1.4488    0.2533 H   0  0  0  0  0  0  0  0  0  0  0  0
    4.6780   -5.3107    1.1746 H   0  0  0  0  0  0  0  0  0  0  0  0
    3.9387   -1.6854    4.1024 H   0  0  0  0  0  0  0  0  0  0  0  0
    1.0859   -1.3461    1.6517 H   0  0  0  0  0  0  0  0  0  0  0  0
    0.0413    0.8379    1.1398 H   0  0  0  0  0  0  0  0  0  0  0  0
    1.0860    2.9439    2.0836 H   0  0  0  0  0  0  0  0  0  0  0  0
    4.1264    0.7996    3.9129 H   0  0  0  0  0  0  0  0  0  0  0  0
    1.7152   -2.9832    2.7580 H   0  0  0  0  0  0  0  0  0  0  0  0
    3.2802   -6.6416    5.5360 H   0  0  0  0  0  0  0  0  0  0  0  0
    2.0355   -8.4644    3.9071 H   0  0  0  0  0  0  0  0  0  0  0  0
    0.9569   -8.6800    1.6548 H   0  0  0  0  0  0  0  0  0  0  0  0
    0.8998   -6.7602    0.1028 H   0  0  0  0  0  0  0  0  0  0  0  0
    2.0099   -4.5871    0.7161 H   0  0  0  0  0  0  0  0  0  0  0  0
    5.4668   -3.6422    3.2991 H   0  0  0  0  0  0  0  0  0  0  0  0
    3.0390    2.7718    3.3443 H   0  0  0  0  0  0  0  0  0  0  0  0
  1  2  1  0
  1 31  1  0
  1 32  1  0
  1 33  1  0
  2  6  2  0
  2  3  1  0
  3  4  2  0
  4  5  1  0
  5  6  1  0
  6  7  1  0
  7 30  1  0
  7  8  1  0
  7 34  1  6
  8  9  1  0
  9 10  2  0
  9 11  1  0
 11 30  1  0
 11 12  1  0
 12 13  1  0
 12 19  1  0
 12 35  1  1
 13 18  1  0
 13 14  2  0
 14 15  1  0
 14 36  1  0
 15 16  2  0
 15 37  1  0
 16 17  1  0
 16 38  1  0
 17 18  2  0
 17 47  1  0
 18 39  1  0
 20 19  1  1
 19 40  1  0
 20 29  1  0
 20 21  1  0
 20 30  1  0
 21 22  2  0
 21 23  1  0
 23 24  1  0
 23 41  1  0
 24 29  2  0
 24 25  1  0
 25 26  2  0
 25 42  1  0
 26 27  1  0
 26 43  1  0
 27 28  2  0
 27 44  1  0
 28 29  1  0
 28 45  1  0
 30 46  1  1
M  CHG  1  17   1
M  END
>  <i_m_ct_stereo_status>  (348) 
1

>  <s_m_source_file>  (348) 
/var/tmp/pbs.5076255.sched01/tmp277fsmq3/144xeprw1xa.sdf

>  <i_m_source_file_index>  (348) 
1

>  <i_lp_mmshare_version>  (348) 
48012

>  <i_f3d_flags>  (348) 
0

>  <s_epik_input>  (348) 
W0NIM11jMW5uc2MxW0NAQEhdMk9DKD1PKU4oW0NASF0oW05IXTMpYzRbY0hdW2NIXVtjSF1uW2NIXTQpW0NASF0yW0NAXTM1YzZjKFtOSF1DNT1PKVtjSF1bY0hdW2NIXVtjSF02

>  <s_epik_cmdline>  (348) 
J2VwaWtfcHl0aG9uJywgJy1waHQnLCAnMi4wJywgJy1waCcsICc3LjAnLCAnLXRuJywgJzgnLCAnLW1hJywgJzIwMCcsICctaW1hZScsICc8aW5maWxlLm1hZT4nLCAnLW9tYWUnLCAnPG91dGZpbGUubWFlPic=

>  <r_lp_tautomer_probability>  (348) 
1

>  <r_epik_Ionization_Penalty>  (348) 
2.23461

>  <r_epik_Ionization_Penalty_Charging>  (348) 
2.23452

>  <r_epik_Ionization_Penalty_Neutral>  (348) 
9.39691e-05

>  <r_epik_State_Penalty>  (348) 
2.38211

>  <r_epik_Charging_Adjusted_Penalty>  (348) 
4.61662

>  <i_epik_Tot_Q>  (348) 
1

>  <i_epik_Tot_abs_Q>  (348) 
1

>  <s_epik_Chemistry_Notes>  (348) 
This compound has an ester and may undergo hydrolysis at high or low pH. This compound contains an acetal/aminal-like group ( X-CH(R)-Y where X, Y are N, S, or O) that may be acid/base labile, releasing an aldehyde.

>  <s_lp_Force_Field>  (348) 
OPLS3e

>  <r_lp_Energy>  (348) 
30.3718

>  <b_lp_Chiralities_Consistent>  (348) 
1

>  <s_lp_Variant>  (348) 
83:0-2

>  <s_i_glide_gridfile>  (348) 
pfpi4k_grid

>  <i_i_glide_lignum>  (348) 
1

>  <i_i_glide_rotatable_bonds>  (348) 
2

>  <r_i_docking_score>  (348) 
-3.1139

>  <r_i_glide_ligand_efficiency>  (348) 
-0.103797

>  <r_i_glide_ligand_efficiency_sa>  (348) 
-0.32252

>  <r_i_glide_ligand_efficiency_ln>  (348) 
-0.707512

>  <r_i_glide_gscore>  (348) 
-3.1139

>  <r_i_glide_lipo>  (348) 
-0.390648

>  <r_i_glide_hbond>  (348) 
0

>  <r_i_glide_metal>  (348) 
-0

>  <r_i_glide_rewards>  (348) 
-0.552797

>  <r_i_glide_evdw>  (348) 
-28.0063

>  <r_i_glide_ecoul>  (348) 
-6.1992

>  <r_i_glide_erotb>  (348) 
0.222962

>  <r_i_glide_esite>  (348) 
-0.0632193

>  <r_i_glide_emodel>  (348) 
-41.042

>  <r_i_glide_energy>  (348) 
-34.2055

>  <r_i_glide_einternal>  (348) 
2.5323

>  <r_i_glide_intrahb_reward>  (348) 
-0

>  <i_i_glide_confnum>  (348) 
6

>  <i_i_glide_posenum>  (348) 
3

>  <r_i_glide_eff_state_penalty>  (348) 
0

>  <ligand_id>  (348) 
83

>  <original_smiles>  (348) 
Cc1nnsc1C1OC(=O)N2C(c3cccnc3)NC3(C(=O)Nc4ccccc43)C12

>  <smiles>  (348) 
[H]c1c([H])c([H])c2c(c1[H])N([H])C(=O)C21N([H])C([H])(c2c([H])c([H])c([H])[n+]([H])c2[H])N2C(=O)OC([H])(c3snnc3C([H])([H])[H])C21[H]

$$$$
84:0:0
     RDKit          3D

 52 56  0  0  1  0  0  0  0  0999 V2000
    6.4389   -1.1803    0.1867 O   0  0  0  0  0  0  0  0  0  0  0  0
    5.7624   -2.1163    0.6203 C   0  0  0  0  0  0  0  0  0  0  0  0
    6.2191   -3.3055    1.0188 O   0  0  0  0  0  0  0  0  0  0  0  0
    5.2135   -4.2200    1.4201 C   0  0  0  0  0  0  0  0  0  0  0  0
    3.9269   -3.3795    1.4567 C   0  0  2  0  0  0  0  0  0  0  0  0
    2.7826   -4.0007    0.6558 C   0  0  0  0  0  0  0  0  0  0  0  0
    2.9836   -3.4266   -0.7373 C   0  0  0  0  0  0  0  0  0  0  0  0
    3.4930   -2.0526   -0.5360 N   0  0  2  0  0  0  0  0  0  0  0  0
    4.1228   -1.4611   -1.7465 C   0  0  0  0  0  0  0  0  0  0  0  0
    3.1219   -1.2838   -2.8790 C   0  0  0  0  0  0  0  0  0  0  0  0
    2.8642   -2.3933   -3.8778 C   0  0  0  0  0  0  0  0  0  0  0  0
    3.5885   -1.1461   -4.3079 C   0  0  0  0  0  0  0  0  0  0  0  0
    4.2413   -2.0407    0.7720 C   0  0  2  0  0  0  0  0  0  0  0  0
    3.7978   -0.9597    1.8098 C   0  0  1  0  0  0  0  0  0  0  0  0
    3.2486    0.3306    1.1624 C   0  0  0  0  0  0  0  0  0  0  0  0
    3.0108    1.3621    2.0842 O   0  0  0  0  0  0  0  0  0  0  0  0
    2.8878   -1.6629    2.7097 N   0  0  0  0  0  0  0  0  0  0  0  0
    2.6302   -1.0385    4.0109 C   0  0  0  0  0  0  0  0  0  0  0  0
    1.2940   -1.4635    4.5905 C   0  0  0  0  0  0  0  0  0  0  0  0
    0.1506   -0.6496    4.4164 C   0  0  0  0  0  0  0  0  0  0  0  0
   -1.0842   -1.0408    4.9683 C   0  0  0  0  0  0  0  0  0  0  0  0
   -1.1783   -2.2516    5.6813 C   0  0  0  0  0  0  0  0  0  0  0  0
   -0.0440   -3.0695    5.8441 C   0  0  0  0  0  0  0  0  0  0  0  0
    1.1872   -2.6736    5.3000 C   0  0  0  0  0  0  0  0  0  0  0  0
    3.5143   -2.9647    2.8576 C   0  0  0  0  0  0  0  0  0  0  0  0
    5.1511   -5.0028    0.6649 H   0  0  0  0  0  0  0  0  0  0  0  0
    5.4129   -4.7076    2.3792 H   0  0  0  0  0  0  0  0  0  0  0  0
    2.7852   -5.0904    0.6457 H   0  0  0  0  0  0  0  0  0  0  0  0
    1.8263   -3.6572    1.0562 H   0  0  0  0  0  0  0  0  0  0  0  0
    3.7140   -4.0281   -1.2884 H   0  0  0  0  0  0  0  0  0  0  0  0
    2.0509   -3.4061   -1.2995 H   0  0  0  0  0  0  0  0  0  0  0  0
    4.5357   -0.4702   -1.5224 H   0  0  0  0  0  0  0  0  0  0  0  0
    4.9517   -2.0877   -2.1043 H   0  0  0  0  0  0  0  0  0  0  0  0
    2.2769   -0.6438   -2.6124 H   0  0  0  0  0  0  0  0  0  0  0  0
    3.4378   -3.3155   -3.7690 H   0  0  0  0  0  0  0  0  0  0  0  0
    1.8385   -2.5222   -4.2210 H   0  0  0  0  0  0  0  0  0  0  0  0
    3.0393   -0.4780   -4.9664 H   0  0  0  0  0  0  0  0  0  0  0  0
    4.6547   -1.2243   -4.5092 H   0  0  0  0  0  0  0  0  0  0  0  0
    4.6781   -0.6683    2.3898 H   0  0  0  0  0  0  0  0  0  0  0  0
    4.0011    0.7095    0.4723 H   0  0  0  0  0  0  0  0  0  0  0  0
    2.3231    0.1355    0.6100 H   0  0  0  0  0  0  0  0  0  0  0  0
    3.7918    1.9123    2.1600 H   0  0  0  0  0  0  0  0  0  0  0  0
    3.4353   -1.2835    4.7077 H   0  0  0  0  0  0  0  0  0  0  0  0
    2.6120    0.0447    3.9660 H   0  0  0  0  0  0  0  0  0  0  0  0
    0.2288    0.2844    3.8760 H   0  0  0  0  0  0  0  0  0  0  0  0
   -1.9554   -0.4131    4.8435 H   0  0  0  0  0  0  0  0  0  0  0  0
   -2.1260   -2.5740    6.0792 H   0  0  0  0  0  0  0  0  0  0  0  0
   -0.1084   -4.0019    6.3837 H   0  0  0  0  0  0  0  0  0  0  0  0
    2.0635   -3.2889    5.4376 H   0  0  0  0  0  0  0  0  0  0  0  0
    2.8543   -3.6926    3.3272 H   0  0  0  0  0  0  0  0  0  0  0  0
    4.4253   -2.8692    3.4514 H   0  0  0  0  0  0  0  0  0  0  0  0
    2.6559   -1.4989   -0.3456 H   0  0  0  0  0  0  0  0  0  0  0  0
  1  2  2  0
 13  2  1  6
  2  3  1  0
  3  4  1  0
  5  4  1  1
  4 26  1  0
  4 27  1  0
  5 13  1  0
  5 25  1  0
  5  6  1  0
  6  7  1  0
  6 28  1  0
  6 29  1  0
  7  8  1  0
  7 30  1  0
  7 31  1  0
  8  9  1  0
  8 13  1  0
  8 52  1  1
  9 10  1  0
  9 32  1  0
  9 33  1  0
 10 12  1  0
 10 11  1  0
 10 34  1  0
 11 12  1  0
 11 35  1  0
 11 36  1  0
 12 37  1  0
 12 38  1  0
 13 14  1  0
 14 15  1  0
 14 17  1  0
 14 39  1  1
 15 16  1  0
 15 40  1  0
 15 41  1  0
 16 42  1  0
 17 18  1  0
 17 25  1  0
 18 19  1  0
 18 43  1  0
 18 44  1  0
 19 24  1  0
 19 20  2  0
 20 21  1  0
 20 45  1  0
 21 22  2  0
 21 46  1  0
 22 23  1  0
 22 47  1  0
 23 24  2  0
 23 48  1  0
 24 49  1  0
 25 50  1  0
 25 51  1  0
M  CHG  1   8   1
M  END
>  <i_m_ct_stereo_status>  (349) 
1

>  <s_m_source_file>  (349) 
/var/tmp/pbs.5076255.sched01/tmp277fsmq3/144xeprw1xa.sdf

>  <i_m_source_file_index>  (349) 
2

>  <i_lp_mmshare_version>  (349) 
48012

>  <i_f3d_flags>  (349) 
0

>  <s_epik_input>  (349) 
W0NIMl0xW0NIMl1bQ0hdMVtDSDJdTihbQ0gyXVtDSDJdMilbQ0BAXShbQ0BAXTIzNCkoQyg9TylPW0NIMl0zKVtDQEBIXShbQ0gyXVtPSF0pTihbQ0gyXTQpW0NIMl1jNVtjSF1bY0hdW2NIXVtjSF1bY0hdNQ==

>  <s_epik_cmdline>  (349) 
J2VwaWtfcHl0aG9uJywgJy1waHQnLCAnMi4wJywgJy1waCcsICc3LjAnLCAnLXRuJywgJzgnLCAnLW1hJywgJzIwMCcsICctaW1hZScsICc8aW5maWxlLm1hZT4nLCAnLW9tYWUnLCAnPG91dGZpbGUubWFlPic=

>  <r_epik_Ionization_Penalty>  (349) 
0.0812939

>  <r_epik_Ionization_Penalty_Charging>  (349) 
0.0801328

>  <r_epik_Ionization_Penalty_Neutral>  (349) 
0.00116108

>  <r_epik_State_Penalty>  (349) 
0.117365

>  <r_epik_Charging_Adjusted_Penalty>  (349) 
0.197498

>  <i_epik_Tot_Q>  (349) 
1

>  <i_epik_Tot_abs_Q>  (349) 
1

>  <s_epik_Chemistry_Notes>  (349) 
This compound has an ester and may undergo hydrolysis at high or low pH.

>  <s_lp_Force_Field>  (349) 
OPLS3e

>  <r_lp_Energy>  (349) 
34.6061

>  <b_lp_Chiralities_Consistent>  (349) 
1

>  <s_lp_Variant>  (349) 
84:0-1

>  <s_i_glide_gridfile>  (349) 
pfpi4k_grid

>  <i_i_glide_lignum>  (349) 
2

>  <i_i_glide_rotatable_bonds>  (349) 
6

>  <r_i_docking_score>  (349) 
-3.4843

>  <r_i_glide_ligand_efficiency>  (349) 
-0.139372

>  <r_i_glide_ligand_efficiency_sa>  (349) 
-0.407527

>  <r_i_glide_ligand_efficiency_ln>  (349) 
-0.825884

>  <r_i_glide_gscore>  (349) 
-3.4843

>  <r_i_glide_lipo>  (349) 
-0.292027

>  <r_i_glide_hbond>  (349) 
-0.527708

>  <r_i_glide_metal>  (349) 
-0

>  <r_i_glide_rewards>  (349) 
-1.1645

>  <r_i_glide_evdw>  (349) 
-24.0461

>  <r_i_glide_ecoul>  (349) 
-6.85094

>  <r_i_glide_erotb>  (349) 
0.80436

>  <r_i_glide_esite>  (349) 
-0.074482

>  <r_i_glide_emodel>  (349) 
-34.6099

>  <r_i_glide_energy>  (349) 
-30.897

>  <r_i_glide_einternal>  (349) 
7.0154

>  <r_i_glide_intrahb_reward>  (349) 
-0

>  <i_i_glide_confnum>  (349) 
1

>  <i_i_glide_posenum>  (349) 
18

>  <r_i_glide_eff_state_penalty>  (349) 
0

>  <ligand_id>  (349) 
84

>  <original_smiles>  (349) 
O=C1OCC23CCN(CC4CC4)C12C(CO)N(Cc1ccccc1)C3

>  <smiles>  (349) 
[H]OC([H])([H])C1([H])N(C([H])([H])c2c([H])c([H])c([H])c([H])c2[H])C([H])([H])C23C([H])([H])OC(=O)C12[N+]([H])(C([H])([H])C1([H])C([H])([H])C1([H])[H])C([H])([H])C3([H])[H]

$$$$
84:0:1
     RDKit          3D

 52 56  0  0  1  0  0  0  0  0999 V2000
    5.7255   -0.8119    1.1645 O   0  0  0  0  0  0  0  0  0  0  0  0
    5.7774   -2.0022    0.9357 C   0  0  0  0  0  0  0  0  0  0  0  0
    6.8678   -2.7874    0.9662 O   0  0  0  0  0  0  0  0  0  0  0  0
    6.6404   -4.1481    0.6560 C   0  0  0  0  0  0  0  0  0  0  0  0
    5.1141   -4.2646    0.5929 C   0  0  2  0  0  0  0  0  0  0  0  0
    4.6136   -4.9054   -0.7114 C   0  0  0  0  0  0  0  0  0  0  0  0
    4.4602   -3.7105   -1.6408 C   0  0  0  0  0  0  0  0  0  0  0  0
    4.0122   -2.6004   -0.7743 N   0  0  2  0  0  0  0  0  0  0  0  0
    4.1704   -1.2760   -1.4137 C   0  0  0  0  0  0  0  0  0  0  0  0
    3.3318   -1.1362   -2.6760 C   0  0  0  0  0  0  0  0  0  0  0  0
    3.9543   -1.3279   -4.0389 C   0  0  0  0  0  0  0  0  0  0  0  0
    3.5335    0.0388   -3.6083 C   0  0  0  0  0  0  0  0  0  0  0  0
    4.5405   -2.8474    0.6041 C   0  0  2  0  0  0  0  0  0  0  0  0
    3.4798   -2.8686    1.7481 C   0  0  1  0  0  0  0  0  0  0  0  0
    2.2370   -1.9909    1.5080 C   0  0  0  0  0  0  0  0  0  0  0  0
    2.5845   -0.6358    1.3511 O   0  0  0  0  0  0  0  0  0  0  0  0
    3.2164   -4.2912    1.9725 N   0  0  0  0  0  0  0  0  0  0  0  0
    2.5385   -4.6460    3.2146 C   0  0  0  0  0  0  0  0  0  0  0  0
    1.7174   -5.9394    3.1134 C   0  0  0  0  0  0  0  0  0  0  0  0
    0.5794   -6.1146    3.9404 C   0  0  0  0  0  0  0  0  0  0  0  0
   -0.1915   -7.2942    3.8680 C   0  0  0  0  0  0  0  0  0  0  0  0
    0.1860   -8.3445    3.0043 C   0  0  0  0  0  0  0  0  0  0  0  0
    1.3204   -8.1899    2.1906 C   0  0  0  0  0  0  0  0  0  0  0  0
    2.0584   -7.0065    2.2374 C   0  0  0  0  0  0  0  0  0  0  0  0
    4.5473   -4.8712    1.8585 C   0  0  0  0  0  0  0  0  0  0  0  0
    7.0988   -4.3542   -0.3098 H   0  0  0  0  0  0  0  0  0  0  0  0
    7.0667   -4.8514    1.3810 H   0  0  0  0  0  0  0  0  0  0  0  0
    5.2924   -5.6644   -1.1136 H   0  0  0  0  0  0  0  0  0  0  0  0
    3.6443   -5.3867   -0.5396 H   0  0  0  0  0  0  0  0  0  0  0  0
    5.4257   -3.4847   -2.0990 H   0  0  0  0  0  0  0  0  0  0  0  0
    3.7403   -3.8987   -2.4346 H   0  0  0  0  0  0  0  0  0  0  0  0
    3.8544   -0.4766   -0.7597 H   0  0  0  0  0  0  0  0  0  0  0  0
    5.2081   -1.0660   -1.6692 H   0  0  0  0  0  0  0  0  0  0  0  0
    2.2885   -1.4532   -2.5743 H   0  0  0  0  0  0  0  0  0  0  0  0
    5.0134   -1.5641   -4.0544 H   0  0  0  0  0  0  0  0  0  0  0  0
    3.3568   -1.8339   -4.7909 H   0  0  0  0  0  0  0  0  0  0  0  0
    2.6580    0.4553   -4.1065 H   0  0  0  0  0  0  0  0  0  0  0  0
    4.2950    0.7653   -3.3328 H   0  0  0  0  0  0  0  0  0  0  0  0
    3.9514   -2.4767    2.6488 H   0  0  0  0  0  0  0  0  0  0  0  0
    1.7287   -2.3325    0.6136 H   0  0  0  0  0  0  0  0  0  0  0  0
    1.5241   -2.0356    2.3279 H   0  0  0  0  0  0  0  0  0  0  0  0
    1.9779   -0.2669    0.7148 H   0  0  0  0  0  0  0  0  0  0  0  0
    3.2658   -4.7329    4.0257 H   0  0  0  0  0  0  0  0  0  0  0  0
    1.8659   -3.8518    3.5332 H   0  0  0  0  0  0  0  0  0  0  0  0
    0.2832   -5.3218    4.6227 H   0  0  0  0  0  0  0  0  0  0  0  0
   -1.0703   -7.4202    4.4935 H   0  0  0  0  0  0  0  0  0  0  0  0
   -0.3863   -9.2617    2.9444 H   0  0  0  0  0  0  0  0  0  0  0  0
    1.6420   -8.9817    1.5223 H   0  0  0  0  0  0  0  0  0  0  0  0
    2.8840   -6.9748    1.5443 H   0  0  0  0  0  0  0  0  0  0  0  0
    4.5967   -5.9545    1.7952 H   0  0  0  0  0  0  0  0  0  0  0  0
    5.1631   -4.5580    2.7080 H   0  0  0  0  0  0  0  0  0  0  0  0
    3.0225   -2.7474   -0.6757 H   0  0  0  0  0  0  0  0  0  0  0  0
  1  2  2  0
 13  2  1  1
  2  3  1  0
  3  4  1  0
  5  4  1  1
  4 26  1  0
  4 27  1  0
  5 13  1  0
  5 25  1  0
  5  6  1  0
  6  7  1  0
  6 28  1  0
  6 29  1  0
  7  8  1  0
  7 30  1  0
  7 31  1  0
  8  9  1  0
  8 13  1  0
  8 52  1  1
  9 10  1  0
  9 32  1  0
  9 33  1  0
 10 12  1  0
 10 11  1  0
 10 34  1  0
 11 12  1  0
 11 35  1  0
 11 36  1  0
 12 37  1  0
 12 38  1  0
 13 14  1  0
 14 15  1  0
 14 17  1  0
 14 39  1  1
 15 16  1  0
 15 40  1  0
 15 41  1  0
 16 42  1  0
 17 18  1  0
 17 25  1  0
 18 19  1  0
 18 43  1  0
 18 44  1  0
 19 24  1  0
 19 20  2  0
 20 21  1  0
 20 45  1  0
 21 22  2  0
 21 46  1  0
 22 23  1  0
 22 47  1  0
 23 24  2  0
 23 48  1  0
 24 49  1  0
 25 50  1  0
 25 51  1  0
M  CHG  1   8   1
M  END
>  <i_m_ct_stereo_status>  (350) 
1

>  <s_m_source_file>  (350) 
/var/tmp/pbs.5076255.sched01/tmp277fsmq3/144xeprw1xa.sdf

>  <i_m_source_file_index>  (350) 
2

>  <i_lp_mmshare_version>  (350) 
48012

>  <i_f3d_flags>  (350) 
0

>  <s_epik_input>  (350) 
W0NIMl0xW0NIMl1bQ0hdMVtDSDJdTihbQ0gyXVtDSDJdMilbQ0BAXShbQ0BAXTIzNCkoQyg9TylPW0NIMl0zKVtDQEBIXShbQ0gyXVtPSF0pTihbQ0gyXTQpW0NIMl1jNVtjSF1bY0hdW2NIXVtjSF1bY0hdNQ==

>  <s_epik_cmdline>  (350) 
J2VwaWtfcHl0aG9uJywgJy1waHQnLCAnMi4wJywgJy1waCcsICc3LjAnLCAnLXRuJywgJzgnLCAnLW1hJywgJzIwMCcsICctaW1hZScsICc8aW5maWxlLm1hZT4nLCAnLW9tYWUnLCAnPG91dGZpbGUubWFlPic=

>  <r_epik_Ionization_Penalty>  (350) 
0.0812939

>  <r_epik_Ionization_Penalty_Charging>  (350) 
0.0801328

>  <r_epik_Ionization_Penalty_Neutral>  (350) 
0.00116108

>  <r_epik_State_Penalty>  (350) 
0.117365

>  <r_epik_Charging_Adjusted_Penalty>  (350) 
0.197498

>  <i_epik_Tot_Q>  (350) 
1

>  <i_epik_Tot_abs_Q>  (350) 
1

>  <s_epik_Chemistry_Notes>  (350) 
This compound has an ester and may undergo hydrolysis at high or low pH.

>  <s_lp_Force_Field>  (350) 
OPLS3e

>  <r_lp_Energy>  (350) 
34.6061

>  <b_lp_Chiralities_Consistent>  (350) 
1

>  <s_lp_Variant>  (350) 
84:0-1

>  <s_i_glide_gridfile>  (350) 
pfpi4k_grid

>  <i_i_glide_lignum>  (350) 
2

>  <i_i_glide_rotatable_bonds>  (350) 
6

>  <r_i_docking_score>  (350) 
-2.83274

>  <r_i_glide_ligand_efficiency>  (350) 
-0.11331

>  <r_i_glide_ligand_efficiency_sa>  (350) 
-0.331319

>  <r_i_glide_ligand_efficiency_ln>  (350) 
-0.671444

>  <r_i_glide_gscore>  (350) 
-2.83274

>  <r_i_glide_lipo>  (350) 
-0.278517

>  <r_i_glide_hbond>  (350) 
0

>  <r_i_glide_metal>  (350) 
-0

>  <r_i_glide_rewards>  (350) 
-1.20003

>  <r_i_glide_evdw>  (350) 
-24.8595

>  <r_i_glide_ecoul>  (350) 
-5.98173

>  <r_i_glide_erotb>  (350) 
0.80436

>  <r_i_glide_esite>  (350) 
-0.0183121

>  <r_i_glide_emodel>  (350) 
-34.6429

>  <r_i_glide_energy>  (350) 
-30.8413

>  <r_i_glide_einternal>  (350) 
4.13861

>  <r_i_glide_intrahb_reward>  (350) 
-0

>  <i_i_glide_confnum>  (350) 
2

>  <i_i_glide_posenum>  (350) 
9

>  <r_i_glide_eff_state_penalty>  (350) 
0

>  <ligand_id>  (350) 
84

>  <original_smiles>  (350) 
O=C1OCC23CCN(CC4CC4)C12C(CO)N(Cc1ccccc1)C3

>  <smiles>  (350) 
[H]OC([H])([H])C1([H])N(C([H])([H])c2c([H])c([H])c([H])c([H])c2[H])C([H])([H])C23C([H])([H])OC(=O)C12[N+]([H])(C([H])([H])C1([H])C([H])([H])C1([H])[H])C([H])([H])C3([H])[H]

$$$$
84:0:2
     RDKit          3D

 52 56  0  0  1  0  0  0  0  0999 V2000
    6.2279   -1.0047    0.8937 O   0  0  0  0  0  0  0  0  0  0  0  0
    5.9291   -2.1891    0.8191 C   0  0  0  0  0  0  0  0  0  0  0  0
    6.7832   -3.2194    0.8179 O   0  0  0  0  0  0  0  0  0  0  0  0
    6.1786   -4.4877    0.6687 C   0  0  0  0  0  0  0  0  0  0  0  0
    4.6788   -4.2052    0.8254 C   0  0  2  0  0  0  0  0  0  0  0  0
    3.8361   -4.8000   -0.3135 C   0  0  0  0  0  0  0  0  0  0  0  0
    3.8240   -3.6860   -1.3535 C   0  0  0  0  0  0  0  0  0  0  0  0
    3.8021   -2.4263   -0.5781 N   0  0  2  0  0  0  0  0  0  0  0  0
    4.1749   -1.2283   -1.3700 C   0  0  0  0  0  0  0  0  0  0  0  0
    3.3175   -1.0702   -2.6223 C   0  0  0  0  0  0  0  0  0  0  0  0
    3.8962   -1.4098   -3.9813 C   0  0  0  0  0  0  0  0  0  0  0  0
    3.6133    0.0216   -3.6245 C   0  0  0  0  0  0  0  0  0  0  0  0
    4.4778   -2.6853    0.7397 C   0  0  2  0  0  0  0  0  0  0  0  0
    3.6291   -2.3411    2.0057 C   0  0  1  0  0  0  0  0  0  0  0  0
    2.6192   -1.1811    1.8254 C   0  0  0  0  0  0  0  0  0  0  0  0
    3.3082    0.0340    1.6250 O   0  0  0  0  0  0  0  0  0  0  0  0
    3.0755   -3.6264    2.4338 N   0  0  0  0  0  0  0  0  0  0  0  0
    2.5431   -3.6930    3.7942 C   0  0  0  0  0  0  0  0  0  0  0  0
    1.5513   -4.8435    4.0114 C   0  0  0  0  0  0  0  0  0  0  0  0
    0.6875   -4.8211    5.1344 C   0  0  0  0  0  0  0  0  0  0  0  0
   -0.2225   -5.8714    5.3635 C   0  0  0  0  0  0  0  0  0  0  0  0
   -0.2649   -6.9813    4.4934 C   0  0  0  0  0  0  0  0  0  0  0  0
    0.5840   -7.0114    3.3734 C   0  0  0  0  0  0  0  0  0  0  0  0
    1.4536   -5.9473    3.1196 C   0  0  0  0  0  0  0  0  0  0  0  0
    4.1924   -4.5369    2.2224 C   0  0  0  0  0  0  0  0  0  0  0  0
    6.4070   -4.8757   -0.3239 H   0  0  0  0  0  0  0  0  0  0  0  0
    6.5217   -5.2216    1.4056 H   0  0  0  0  0  0  0  0  0  0  0  0
    4.2419   -5.7321   -0.7138 H   0  0  0  0  0  0  0  0  0  0  0  0
    2.8124   -4.9966    0.0213 H   0  0  0  0  0  0  0  0  0  0  0  0
    4.7296   -3.7427   -1.9644 H   0  0  0  0  0  0  0  0  0  0  0  0
    2.9515   -3.7706   -2.0059 H   0  0  0  0  0  0  0  0  0  0  0  0
    4.0462   -0.3298   -0.7699 H   0  0  0  0  0  0  0  0  0  0  0  0
    5.2233   -1.2563   -1.6774 H   0  0  0  0  0  0  0  0  0  0  0  0
    2.2529   -1.2845   -2.4792 H   0  0  0  0  0  0  0  0  0  0  0  0
    4.9336   -1.7421   -4.0039 H   0  0  0  0  0  0  0  0  0  0  0  0
    3.2323   -1.8866   -4.7014 H   0  0  0  0  0  0  0  0  0  0  0  0
    2.7682    0.4925   -4.1238 H   0  0  0  0  0  0  0  0  0  0  0  0
    4.4465    0.6841   -3.3991 H   0  0  0  0  0  0  0  0  0  0  0  0
    4.3158   -2.0140    2.7879 H   0  0  0  0  0  0  0  0  0  0  0  0
    1.9407   -1.3637    0.9951 H   0  0  0  0  0  0  0  0  0  0  0  0
    1.9955   -1.0409    2.7060 H   0  0  0  0  0  0  0  0  0  0  0  0
    2.6861    0.7120    1.3970 H   0  0  0  0  0  0  0  0  0  0  0  0
    3.3669   -3.7743    4.5055 H   0  0  0  0  0  0  0  0  0  0  0  0
    2.0392   -2.7660    4.0587 H   0  0  0  0  0  0  0  0  0  0  0  0
    0.7169   -3.9782    5.8170 H   0  0  0  0  0  0  0  0  0  0  0  0
   -0.8917   -5.8360    6.2101 H   0  0  0  0  0  0  0  0  0  0  0  0
   -0.9544   -7.7964    4.6592 H   0  0  0  0  0  0  0  0  0  0  0  0
    0.5822   -7.8590    2.6997 H   0  0  0  0  0  0  0  0  0  0  0  0
    2.0327   -6.0268    2.2169 H   0  0  0  0  0  0  0  0  0  0  0  0
    3.9541   -5.5939    2.3015 H   0  0  0  0  0  0  0  0  0  0  0  0
    4.9892   -4.3124    2.9417 H   0  0  0  0  0  0  0  0  0  0  0  0
    2.8287   -2.2923   -0.3291 H   0  0  0  0  0  0  0  0  0  0  0  0
  1  2  2  0
 13  2  1  6
  2  3  1  0
  3  4  1  0
  5  4  1  1
  4 26  1  0
  4 27  1  0
  5 13  1  0
  5 25  1  0
  5  6  1  0
  6  7  1  0
  6 28  1  0
  6 29  1  0
  7  8  1  0
  7 30  1  0
  7 31  1  0
  8  9  1  0
  8 13  1  0
  8 52  1  1
  9 10  1  0
  9 32  1  0
  9 33  1  0
 10 12  1  0
 10 11  1  0
 10 34  1  0
 11 12  1  0
 11 35  1  0
 11 36  1  0
 12 37  1  0
 12 38  1  0
 13 14  1  0
 14 15  1  0
 14 17  1  0
 14 39  1  1
 15 16  1  0
 15 40  1  0
 15 41  1  0
 16 42  1  0
 17 18  1  0
 17 25  1  0
 18 19  1  0
 18 43  1  0
 18 44  1  0
 19 24  1  0
 19 20  2  0
 20 21  1  0
 20 45  1  0
 21 22  2  0
 21 46  1  0
 22 23  1  0
 22 47  1  0
 23 24  2  0
 23 48  1  0
 24 49  1  0
 25 50  1  0
 25 51  1  0
M  CHG  1   8   1
M  END
>  <i_m_ct_stereo_status>  (351) 
1

>  <s_m_source_file>  (351) 
/var/tmp/pbs.5076255.sched01/tmp277fsmq3/144xeprw1xa.sdf

>  <i_m_source_file_index>  (351) 
2

>  <i_lp_mmshare_version>  (351) 
48012

>  <i_f3d_flags>  (351) 
0

>  <s_epik_input>  (351) 
W0NIMl0xW0NIMl1bQ0hdMVtDSDJdTihbQ0gyXVtDSDJdMilbQ0BAXShbQ0BAXTIzNCkoQyg9TylPW0NIMl0zKVtDQEBIXShbQ0gyXVtPSF0pTihbQ0gyXTQpW0NIMl1jNVtjSF1bY0hdW2NIXVtjSF1bY0hdNQ==

>  <s_epik_cmdline>  (351) 
J2VwaWtfcHl0aG9uJywgJy1waHQnLCAnMi4wJywgJy1waCcsICc3LjAnLCAnLXRuJywgJzgnLCAnLW1hJywgJzIwMCcsICctaW1hZScsICc8aW5maWxlLm1hZT4nLCAnLW9tYWUnLCAnPG91dGZpbGUubWFlPic=

>  <r_epik_Ionization_Penalty>  (351) 
0.0812939

>  <r_epik_Ionization_Penalty_Charging>  (351) 
0.0801328

>  <r_epik_Ionization_Penalty_Neutral>  (351) 
0.00116108

>  <r_epik_State_Penalty>  (351) 
0.117365

>  <r_epik_Charging_Adjusted_Penalty>  (351) 
0.197498

>  <i_epik_Tot_Q>  (351) 
1

>  <i_epik_Tot_abs_Q>  (351) 
1

>  <s_epik_Chemistry_Notes>  (351) 
This compound has an ester and may undergo hydrolysis at high or low pH.

>  <s_lp_Force_Field>  (351) 
OPLS3e

>  <r_lp_Energy>  (351) 
34.6061

>  <b_lp_Chiralities_Consistent>  (351) 
1

>  <s_lp_Variant>  (351) 
84:0-1

>  <s_i_glide_gridfile>  (351) 
pfpi4k_grid

>  <i_i_glide_lignum>  (351) 
2

>  <i_i_glide_rotatable_bonds>  (351) 
6

>  <r_i_docking_score>  (351) 
-2.45727

>  <r_i_glide_ligand_efficiency>  (351) 
-0.0982906

>  <r_i_glide_ligand_efficiency_sa>  (351) 
-0.287403

>  <r_i_glide_ligand_efficiency_ln>  (351) 
-0.582446

>  <r_i_glide_gscore>  (351) 
-2.45727

>  <r_i_glide_lipo>  (351) 
-0.267932

>  <r_i_glide_hbond>  (351) 
0

>  <r_i_glide_metal>  (351) 
-0

>  <r_i_glide_rewards>  (351) 
-1.18766

>  <r_i_glide_evdw>  (351) 
-24.3437

>  <r_i_glide_ecoul>  (351) 
-3.6866

>  <r_i_glide_erotb>  (351) 
0.80436

>  <r_i_glide_esite>  (351) 
-0.0358569

>  <r_i_glide_emodel>  (351) 
-31.2929

>  <r_i_glide_energy>  (351) 
-28.0303

>  <r_i_glide_einternal>  (351) 
3.62042

>  <r_i_glide_intrahb_reward>  (351) 
-0

>  <i_i_glide_confnum>  (351) 
1

>  <i_i_glide_posenum>  (351) 
33

>  <r_i_glide_eff_state_penalty>  (351) 
0

>  <ligand_id>  (351) 
84

>  <original_smiles>  (351) 
O=C1OCC23CCN(CC4CC4)C12C(CO)N(Cc1ccccc1)C3

>  <smiles>  (351) 
[H]OC([H])([H])C1([H])N(C([H])([H])c2c([H])c([H])c([H])c([H])c2[H])C([H])([H])C23C([H])([H])OC(=O)C12[N+]([H])(C([H])([H])C1([H])C([H])([H])C1([H])[H])C([H])([H])C3([H])[H]

$$$$
84:1:0
     RDKit          3D

 51 55  0  0  1  0  0  0  0  0999 V2000
    5.8128   -1.0433    1.2252 O   0  0  0  0  0  0  0  0  0  0  0  0
    5.7439   -2.2656    1.1147 C   0  0  0  0  0  0  0  0  0  0  0  0
    6.7542   -3.1202    1.2498 O   0  0  0  0  0  0  0  0  0  0  0  0
    6.4176   -4.4802    1.1154 C   0  0  0  0  0  0  0  0  0  0  0  0
    4.8862   -4.4867    0.9373 C   0  0  2  0  0  0  0  0  0  0  0  0
    4.4718   -5.1628   -0.3761 C   0  0  0  0  0  0  0  0  0  0  0  0
    4.4453   -3.9780   -1.3392 C   0  0  0  0  0  0  0  0  0  0  0  0
    3.8903   -2.8749   -0.5706 N   0  0  0  0  0  0  0  0  0  0  0  0
    4.0644   -1.5848   -1.2498 C   0  0  0  0  0  0  0  0  0  0  0  0
    3.2744   -1.4739   -2.5362 C   0  0  0  0  0  0  0  0  0  0  0  0
    3.9469   -1.6494   -3.8722 C   0  0  0  0  0  0  0  0  0  0  0  0
    3.4721   -0.2851   -3.4399 C   0  0  0  0  0  0  0  0  0  0  0  0
    4.4330   -3.0124    0.7957 C   0  0  2  0  0  0  0  0  0  0  0  0
    3.3747   -2.8481    1.9500 C   0  0  1  0  0  0  0  0  0  0  0  0
    2.1735   -1.8932    1.7027 C   0  0  0  0  0  0  0  0  0  0  0  0
    2.5064   -0.5462    1.4734 O   0  0  0  0  0  0  0  0  0  0  0  0
    2.9412   -4.2125    2.2431 N   0  0  0  0  0  0  0  0  0  0  0  0
    2.2066   -4.4092    3.4930 C   0  0  0  0  0  0  0  0  0  0  0  0
    1.4885   -5.7481    3.5919 C   0  0  0  0  0  0  0  0  0  0  0  0
    1.2019   -6.2989    4.8589 C   0  0  0  0  0  0  0  0  0  0  0  0
    0.5119   -7.5254    4.9681 C   0  0  0  0  0  0  0  0  0  0  0  0
    0.1030   -8.2103    3.8056 C   0  0  0  0  0  0  0  0  0  0  0  0
    0.3776   -7.6671    2.5374 C   0  0  0  0  0  0  0  0  0  0  0  0
    1.0645   -6.4421    2.4310 C   0  0  0  0  0  0  0  0  0  0  0  0
    4.1557   -4.9967    2.1810 C   0  0  0  0  0  0  0  0  0  0  0  0
    6.9296   -4.9022    0.2450 H   0  0  0  0  0  0  0  0  0  0  0  0
    6.7366   -5.0580    1.9875 H   0  0  0  0  0  0  0  0  0  0  0  0
    5.1275   -5.9705   -0.7014 H   0  0  0  0  0  0  0  0  0  0  0  0
    3.4644   -5.5712   -0.2878 H   0  0  0  0  0  0  0  0  0  0  0  0
    5.4587   -3.7599   -1.6758 H   0  0  0  0  0  0  0  0  0  0  0  0
    3.8478   -4.1994   -2.2222 H   0  0  0  0  0  0  0  0  0  0  0  0
    3.7333   -0.7625   -0.6314 H   0  0  0  0  0  0  0  0  0  0  0  0
    5.1216   -1.3926   -1.4673 H   0  0  0  0  0  0  0  0  0  0  0  0
    2.2486   -1.8368   -2.4527 H   0  0  0  0  0  0  0  0  0  0  0  0
    5.0127   -1.8680   -3.8415 H   0  0  0  0  0  0  0  0  0  0  0  0
    3.3853   -2.1796   -4.6342 H   0  0  0  0  0  0  0  0  0  0  0  0
    2.5957    0.1199   -3.9346 H   0  0  0  0  0  0  0  0  0  0  0  0
    4.2116    0.4504   -3.1291 H   0  0  0  0  0  0  0  0  0  0  0  0
    3.8931   -2.4640    2.8279 H   0  0  0  0  0  0  0  0  0  0  0  0
    1.5628   -2.2490    0.8804 H   0  0  0  0  0  0  0  0  0  0  0  0
    1.5160   -1.8620    2.5751 H   0  0  0  0  0  0  0  0  0  0  0  0
    2.0450   -0.2972    0.6754 H   0  0  0  0  0  0  0  0  0  0  0  0
    2.8786   -4.2743    4.3432 H   0  0  0  0  0  0  0  0  0  0  0  0
    1.4285   -3.6531    3.5949 H   0  0  0  0  0  0  0  0  0  0  0  0
    1.5101   -5.7832    5.7522 H   0  0  0  0  0  0  0  0  0  0  0  0
    0.3084   -7.9467    5.9392 H   0  0  0  0  0  0  0  0  0  0  0  0
   -0.4110   -9.1572    3.8922 H   0  0  0  0  0  0  0  0  0  0  0  0
    0.0780   -8.1974    1.6449 H   0  0  0  0  0  0  0  0  0  0  0  0
    1.2737   -6.0467    1.4519 H   0  0  0  0  0  0  0  0  0  0  0  0
    3.9545   -6.0676    2.1418 H   0  0  0  0  0  0  0  0  0  0  0  0
    4.7688   -4.7995    3.0617 H   0  0  0  0  0  0  0  0  0  0  0  0
  1  2  2  0
  2 13  1  0
  2  3  1  0
  3  4  1  0
  5  4  1  1
  4 26  1  0
  4 27  1  0
  5 13  1  0
  5 25  1  0
  5  6  1  0
  6  7  1  0
  6 28  1  0
  6 29  1  0
  7  8  1  0
  7 30  1  0
  7 31  1  0
  8  9  1  0
 13  8  1  6
  9 10  1  0
  9 32  1  0
  9 33  1  0
 10 12  1  0
 10 11  1  0
 10 34  1  0
 11 12  1  0
 11 35  1  0
 11 36  1  0
 12 37  1  0
 12 38  1  0
 13 14  1  0
 14 15  1  0
 14 17  1  0
 14 39  1  1
 15 16  1  0
 15 40  1  0
 15 41  1  0
 16 42  1  0
 17 18  1  0
 17 25  1  0
 18 19  1  0
 18 43  1  0
 18 44  1  0
 19 24  1  0
 19 20  2  0
 20 21  1  0
 20 45  1  0
 21 22  2  0
 21 46  1  0
 22 23  1  0
 22 47  1  0
 23 24  2  0
 23 48  1  0
 24 49  1  0
 25 50  1  0
 25 51  1  0
M  END
>  <i_m_ct_stereo_status>  (352) 
1

>  <s_m_source_file>  (352) 
/var/tmp/pbs.5076255.sched01/tmp277fsmq3/144xeprw1xa.sdf

>  <i_m_source_file_index>  (352) 
3

>  <i_lp_mmshare_version>  (352) 
48012

>  <i_f3d_flags>  (352) 
0

>  <s_epik_input>  (352) 
W0NIMl0xW0NIMl1bQ0hdMVtDSDJdTihbQ0gyXVtDSDJdMilbQ0BAXShbQ0BAXTIzNCkoQyg9TylPW0NIMl0zKVtDQEBIXShbQ0gyXVtPSF0pTihbQ0gyXTQpW0NIMl1jNVtjSF1bY0hdW2NIXVtjSF1bY0hdNQ==

>  <s_epik_cmdline>  (352) 
J2VwaWtfcHl0aG9uJywgJy1waHQnLCAnMi4wJywgJy1waCcsICc3LjAnLCAnLXRuJywgJzgnLCAnLW1hJywgJzIwMCcsICctaW1hZScsICc8aW5maWxlLm1hZT4nLCAnLW9tYWUnLCAnPG91dGZpbGUubWFlPic=

>  <r_epik_Ionization_Penalty>  (352) 
1.55211

>  <r_epik_Ionization_Penalty_Charging>  (352) 
0

>  <r_epik_Ionization_Penalty_Neutral>  (352) 
1.55211

>  <r_epik_State_Penalty>  (352) 
1.33899

>  <r_epik_Charging_Adjusted_Penalty>  (352) 
1.33899

>  <i_epik_Tot_Q>  (352) 
0

>  <i_epik_Tot_abs_Q>  (352) 
0

>  <s_epik_Chemistry_Notes>  (352) 
This compound has an ester and may undergo hydrolysis at high or low pH.

>  <s_lp_Force_Field>  (352) 
OPLS3e

>  <r_lp_Energy>  (352) 
38.3

>  <b_lp_Chiralities_Consistent>  (352) 
1

>  <s_lp_Variant>  (352) 
84:0-2

>  <s_i_glide_gridfile>  (352) 
pfpi4k_grid

>  <i_i_glide_lignum>  (352) 
3

>  <i_i_glide_rotatable_bonds>  (352) 
6

>  <r_i_docking_score>  (352) 
-2.44431

>  <r_i_glide_ligand_efficiency>  (352) 
-0.0977722

>  <r_i_glide_ligand_efficiency_sa>  (352) 
-0.285888

>  <r_i_glide_ligand_efficiency_ln>  (352) 
-0.579374

>  <r_i_glide_gscore>  (352) 
-2.44431

>  <r_i_glide_lipo>  (352) 
-0.427711

>  <r_i_glide_hbond>  (352) 
0

>  <r_i_glide_metal>  (352) 
-0

>  <r_i_glide_rewards>  (352) 
-1.19279

>  <r_i_glide_evdw>  (352) 
-25.5315

>  <r_i_glide_ecoul>  (352) 
-2.37193

>  <r_i_glide_erotb>  (352) 
0.808565

>  <r_i_glide_esite>  (352) 
0

>  <r_i_glide_emodel>  (352) 
-30.5321

>  <r_i_glide_energy>  (352) 
-27.9035

>  <r_i_glide_einternal>  (352) 
2.82402

>  <r_i_glide_intrahb_reward>  (352) 
-0

>  <i_i_glide_confnum>  (352) 
4

>  <i_i_glide_posenum>  (352) 
23

>  <r_i_glide_eff_state_penalty>  (352) 
0

>  <ligand_id>  (352) 
84

>  <original_smiles>  (352) 
O=C1OCC23CCN(CC4CC4)C12C(CO)N(Cc1ccccc1)C3

>  <smiles>  (352) 
[H]OC([H])([H])C1([H])N(C([H])([H])c2c([H])c([H])c([H])c([H])c2[H])C([H])([H])C23C([H])([H])OC(=O)C12N(C([H])([H])C1([H])C([H])([H])C1([H])[H])C([H])([H])C3([H])[H]

$$$$
84:1:1
     RDKit          3D

 51 55  0  0  1  0  0  0  0  0999 V2000
    2.8723    4.9445    2.8828 O   0  0  0  0  0  0  0  0  0  0  0  0
    2.9740    4.5013    4.0267 C   0  0  0  0  0  0  0  0  0  0  0  0
    3.9207    4.8572    4.9036 O   0  0  0  0  0  0  0  0  0  0  0  0
    3.8233    4.2314    6.1654 C   0  0  0  0  0  0  0  0  0  0  0  0
    2.5057    3.4398    6.0998 C   0  0  2  0  0  0  0  0  0  0  0  0
    2.7069    1.9544    6.4098 C   0  0  0  0  0  0  0  0  0  0  0  0
    2.9430    1.3919    5.0224 C   0  0  0  0  0  0  0  0  0  0  0  0
    2.0220    2.1006    4.1428 N   0  0  0  0  0  0  0  0  0  0  0  0
    2.3455    1.9088    2.7198 C   0  0  0  0  0  0  0  0  0  0  0  0
    2.2254    0.4614    2.2729 C   0  0  0  0  0  0  0  0  0  0  0  0
    3.3646   -0.5049    2.5272 C   0  0  0  0  0  0  0  0  0  0  0  0
    3.0634   -0.0482    1.1261 C   0  0  0  0  0  0  0  0  0  0  0  0
    1.9901    3.4918    4.6478 C   0  0  2  0  0  0  0  0  0  0  0  0
    0.5512    4.0903    4.7978 C   0  0  1  0  0  0  0  0  0  0  0  0
   -0.5239    3.6232    3.7806 C   0  0  0  0  0  0  0  0  0  0  0  0
   -1.2873    4.7119    3.2783 O   0  0  0  0  0  0  0  0  0  0  0  0
    0.1819    3.8315    6.1898 N   0  0  0  0  0  0  0  0  0  0  0  0
   -0.9599    4.6046    6.6644 C   0  0  0  0  0  0  0  0  0  0  0  0
   -1.4141    4.2464    8.0749 C   0  0  0  0  0  0  0  0  0  0  0  0
   -0.6921    4.7118    9.1929 C   0  0  0  0  0  0  0  0  0  0  0  0
   -1.0967    4.3786   10.4947 C   0  0  0  0  0  0  0  0  0  0  0  0
   -2.2466    3.5994   10.6824 C   0  0  0  0  0  0  0  0  0  0  0  0
   -2.9879    3.1454    9.5827 C   0  0  0  0  0  0  0  0  0  0  0  0
   -2.5658    3.4582    8.2791 C   0  0  0  0  0  0  0  0  0  0  0  0
    1.4030    4.0903    6.9210 C   0  0  0  0  0  0  0  0  0  0  0  0
    4.6817    3.5724    6.3354 H   0  0  0  0  0  0  0  0  0  0  0  0
    3.8189    4.9666    6.9768 H   0  0  0  0  0  0  0  0  0  0  0  0
    3.5202    1.7387    7.1062 H   0  0  0  0  0  0  0  0  0  0  0  0
    1.7996    1.5107    6.8197 H   0  0  0  0  0  0  0  0  0  0  0  0
    3.9764    1.5747    4.7311 H   0  0  0  0  0  0  0  0  0  0  0  0
    2.7699    0.3154    5.0248 H   0  0  0  0  0  0  0  0  0  0  0  0
    1.6742    2.4891    2.0796 H   0  0  0  0  0  0  0  0  0  0  0  0
    3.3596    2.2543    2.5038 H   0  0  0  0  0  0  0  0  0  0  0  0
    1.2176    0.0529    2.3574 H   0  0  0  0  0  0  0  0  0  0  0  0
    4.2657   -0.1159    3.0018 H   0  0  0  0  0  0  0  0  0  0  0  0
    3.0831   -1.5166    2.8152 H   0  0  0  0  0  0  0  0  0  0  0  0
    2.6182   -0.7753    0.4554 H   0  0  0  0  0  0  0  0  0  0  0  0
    3.7694    0.6383    0.6637 H   0  0  0  0  0  0  0  0  0  0  0  0
    0.6499    5.1725    4.6793 H   0  0  0  0  0  0  0  0  0  0  0  0
   -0.0917    3.1895    2.8847 H   0  0  0  0  0  0  0  0  0  0  0  0
   -1.1705    2.8521    4.2101 H   0  0  0  0  0  0  0  0  0  0  0  0
   -0.9279    4.8946    2.4151 H   0  0  0  0  0  0  0  0  0  0  0  0
   -0.7306    5.6716    6.6251 H   0  0  0  0  0  0  0  0  0  0  0  0
   -1.7913    4.4289    5.9851 H   0  0  0  0  0  0  0  0  0  0  0  0
    0.1824    5.3276    9.0617 H   0  0  0  0  0  0  0  0  0  0  0  0
   -0.5181    4.7104   11.3473 H   0  0  0  0  0  0  0  0  0  0  0  0
   -2.5638    3.3409   11.6784 H   0  0  0  0  0  0  0  0  0  0  0  0
   -3.8727    2.5448    9.7512 H   0  0  0  0  0  0  0  0  0  0  0  0
   -3.1388    3.1020    7.4380 H   0  0  0  0  0  0  0  0  0  0  0  0
    1.3781    3.6870    7.9346 H   0  0  0  0  0  0  0  0  0  0  0  0
    1.5830    5.1688    6.9707 H   0  0  0  0  0  0  0  0  0  0  0  0
  1  2  2  0
  2 13  1  0
  2  3  1  0
  3  4  1  0
  5  4  1  6
  4 26  1  0
  4 27  1  0
  5 13  1  0
  5 25  1  0
  5  6  1  0
  6  7  1  0
  6 28  1  0
  6 29  1  0
  7  8  1  0
  7 30  1  0
  7 31  1  0
  8  9  1  0
 13  8  1  6
  9 10  1  0
  9 32  1  0
  9 33  1  0
 10 12  1  0
 10 11  1  0
 10 34  1  0
 11 12  1  0
 11 35  1  0
 11 36  1  0
 12 37  1  0
 12 38  1  0
 13 14  1  0
 14 15  1  0
 14 17  1  0
 14 39  1  1
 15 16  1  0
 15 40  1  0
 15 41  1  0
 16 42  1  0
 17 18  1  0
 17 25  1  0
 18 19  1  0
 18 43  1  0
 18 44  1  0
 19 24  1  0
 19 20  2  0
 20 21  1  0
 20 45  1  0
 21 22  2  0
 21 46  1  0
 22 23  1  0
 22 47  1  0
 23 24  2  0
 23 48  1  0
 24 49  1  0
 25 50  1  0
 25 51  1  0
M  END
>  <i_m_ct_stereo_status>  (353) 
1

>  <s_m_source_file>  (353) 
/var/tmp/pbs.5076255.sched01/tmp277fsmq3/144xeprw1xa.sdf

>  <i_m_source_file_index>  (353) 
3

>  <i_lp_mmshare_version>  (353) 
48012

>  <i_f3d_flags>  (353) 
0

>  <s_epik_input>  (353) 
W0NIMl0xW0NIMl1bQ0hdMVtDSDJdTihbQ0gyXVtDSDJdMilbQ0BAXShbQ0BAXTIzNCkoQyg9TylPW0NIMl0zKVtDQEBIXShbQ0gyXVtPSF0pTihbQ0gyXTQpW0NIMl1jNVtjSF1bY0hdW2NIXVtjSF1bY0hdNQ==

>  <s_epik_cmdline>  (353) 
J2VwaWtfcHl0aG9uJywgJy1waHQnLCAnMi4wJywgJy1waCcsICc3LjAnLCAnLXRuJywgJzgnLCAnLW1hJywgJzIwMCcsICctaW1hZScsICc8aW5maWxlLm1hZT4nLCAnLW9tYWUnLCAnPG91dGZpbGUubWFlPic=

>  <r_epik_Ionization_Penalty>  (353) 
1.55211

>  <r_epik_Ionization_Penalty_Charging>  (353) 
0

>  <r_epik_Ionization_Penalty_Neutral>  (353) 
1.55211

>  <r_epik_State_Penalty>  (353) 
1.33899

>  <r_epik_Charging_Adjusted_Penalty>  (353) 
1.33899

>  <i_epik_Tot_Q>  (353) 
0

>  <i_epik_Tot_abs_Q>  (353) 
0

>  <s_epik_Chemistry_Notes>  (353) 
This compound has an ester and may undergo hydrolysis at high or low pH.

>  <s_lp_Force_Field>  (353) 
OPLS3e

>  <r_lp_Energy>  (353) 
38.3

>  <b_lp_Chiralities_Consistent>  (353) 
1

>  <s_lp_Variant>  (353) 
84:0-2

>  <s_i_glide_gridfile>  (353) 
pfpi4k_grid

>  <i_i_glide_lignum>  (353) 
3

>  <i_i_glide_rotatable_bonds>  (353) 
6

>  <r_i_docking_score>  (353) 
-2.42926

>  <r_i_glide_ligand_efficiency>  (353) 
-0.0971703

>  <r_i_glide_ligand_efficiency_sa>  (353) 
-0.284128

>  <r_i_glide_ligand_efficiency_ln>  (353) 
-0.575807

>  <r_i_glide_gscore>  (353) 
-2.42926

>  <r_i_glide_lipo>  (353) 
-0.0798991

>  <r_i_glide_hbond>  (353) 
-0.300993

>  <r_i_glide_metal>  (353) 
-0

>  <r_i_glide_rewards>  (353) 
-1.07433

>  <r_i_glide_evdw>  (353) 
-20.1423

>  <r_i_glide_ecoul>  (353) 
-5.16801

>  <r_i_glide_erotb>  (353) 
0.808565

>  <r_i_glide_esite>  (353) 
-0.000285255

>  <r_i_glide_emodel>  (353) 
-25.6241

>  <r_i_glide_energy>  (353) 
-25.3104

>  <r_i_glide_einternal>  (353) 
6.94327

>  <r_i_glide_intrahb_reward>  (353) 
-0

>  <i_i_glide_confnum>  (353) 
4

>  <i_i_glide_posenum>  (353) 
8

>  <r_i_glide_eff_state_penalty>  (353) 
0

>  <ligand_id>  (353) 
84

>  <original_smiles>  (353) 
O=C1OCC23CCN(CC4CC4)C12C(CO)N(Cc1ccccc1)C3

>  <smiles>  (353) 
[H]OC([H])([H])C1([H])N(C([H])([H])c2c([H])c([H])c([H])c([H])c2[H])C([H])([H])C23C([H])([H])OC(=O)C12N(C([H])([H])C1([H])C([H])([H])C1([H])[H])C([H])([H])C3([H])[H]

$$$$
84:1:2
     RDKit          3D

 51 55  0  0  1  0  0  0  0  0999 V2000
    4.6859   -8.2007    4.7128 O   0  0  0  0  0  0  0  0  0  0  0  0
    4.2646   -7.0636    4.5074 C   0  0  0  0  0  0  0  0  0  0  0  0
    4.3285   -6.0512    5.3769 O   0  0  0  0  0  0  0  0  0  0  0  0
    3.7937   -4.8334    4.9060 C   0  0  0  0  0  0  0  0  0  0  0  0
    3.4289   -5.1085    3.4365 C   0  0  2  0  0  0  0  0  0  0  0  0
    1.9482   -4.8204    3.1407 C   0  0  0  0  0  0  0  0  0  0  0  0
    1.3082   -6.1779    3.4019 C   0  0  0  0  0  0  0  0  0  0  0  0
    2.2612   -7.1379    2.8718 N   0  0  0  0  0  0  0  0  0  0  0  0
    1.9783   -8.5187    3.2693 C   0  0  0  0  0  0  0  0  0  0  0  0
    0.6946   -9.0600    2.6723 C   0  0  0  0  0  0  0  0  0  0  0  0
   -0.4696   -9.4358    3.5574 C   0  0  0  0  0  0  0  0  0  0  0  0
    0.3283  -10.5118    2.8685 C   0  0  0  0  0  0  0  0  0  0  0  0
    3.6081   -6.6159    3.1857 C   0  0  2  0  0  0  0  0  0  0  0  0
    4.6101   -6.6711    1.9774 C   0  0  1  0  0  0  0  0  0  0  0  0
    4.4387   -7.8584    0.9943 C   0  0  0  0  0  0  0  0  0  0  0  0
    4.9136   -9.0718    1.5365 O   0  0  0  0  0  0  0  0  0  0  0  0
    4.5077   -5.3565    1.3422 N   0  0  0  0  0  0  0  0  0  0  0  0
    5.6036   -5.0113    0.4323 C   0  0  0  0  0  0  0  0  0  0  0  0
    5.3891   -3.6851   -0.2852 C   0  0  0  0  0  0  0  0  0  0  0  0
    4.8542   -3.6602   -1.5890 C   0  0  0  0  0  0  0  0  0  0  0  0
    4.6034   -2.4340   -2.2328 C   0  0  0  0  0  0  0  0  0  0  0  0
    4.8835   -1.2233   -1.5705 C   0  0  0  0  0  0  0  0  0  0  0  0
    5.4245   -1.2404   -0.2727 C   0  0  0  0  0  0  0  0  0  0  0  0
    5.6933   -2.4681    0.3586 C   0  0  0  0  0  0  0  0  0  0  0  0
    4.4047   -4.4523    2.4688 C   0  0  0  0  0  0  0  0  0  0  0  0
    2.9147   -4.5569    5.4953 H   0  0  0  0  0  0  0  0  0  0  0  0
    4.5207   -4.0223    5.0068 H   0  0  0  0  0  0  0  0  0  0  0  0
    1.5179   -4.0128    3.7360 H   0  0  0  0  0  0  0  0  0  0  0  0
    1.8195   -4.5606    2.0900 H   0  0  0  0  0  0  0  0  0  0  0  0
    1.1596   -6.3208    4.4722 H   0  0  0  0  0  0  0  0  0  0  0  0
    0.3373   -6.2648    2.9129 H   0  0  0  0  0  0  0  0  0  0  0  0
    2.7795   -9.1769    2.9333 H   0  0  0  0  0  0  0  0  0  0  0  0
    1.9434   -8.6215    4.3574 H   0  0  0  0  0  0  0  0  0  0  0  0
    0.4616   -8.6564    1.6861 H   0  0  0  0  0  0  0  0  0  0  0  0
   -0.3508   -9.3311    4.6352 H   0  0  0  0  0  0  0  0  0  0  0  0
   -1.4706   -9.2403    3.1813 H   0  0  0  0  0  0  0  0  0  0  0  0
   -0.1366  -11.0207    2.0266 H   0  0  0  0  0  0  0  0  0  0  0  0
    0.9952  -11.1249    3.4744 H   0  0  0  0  0  0  0  0  0  0  0  0
    5.6229   -6.7576    2.3799 H   0  0  0  0  0  0  0  0  0  0  0  0
    3.4020   -7.9706    0.6854 H   0  0  0  0  0  0  0  0  0  0  0  0
    5.0020   -7.7114    0.0754 H   0  0  0  0  0  0  0  0  0  0  0  0
    4.6193   -9.7904    0.9937 H   0  0  0  0  0  0  0  0  0  0  0  0
    6.5542   -4.9916    0.9686 H   0  0  0  0  0  0  0  0  0  0  0  0
    5.7000   -5.7767   -0.3358 H   0  0  0  0  0  0  0  0  0  0  0  0
    4.6157   -4.5855   -2.0923 H   0  0  0  0  0  0  0  0  0  0  0  0
    4.1737   -2.4238   -3.2239 H   0  0  0  0  0  0  0  0  0  0  0  0
    4.6598   -0.2788   -2.0476 H   0  0  0  0  0  0  0  0  0  0  0  0
    5.6204   -0.3139    0.2488 H   0  0  0  0  0  0  0  0  0  0  0  0
    6.1001   -2.4752    1.3568 H   0  0  0  0  0  0  0  0  0  0  0  0
    4.0615   -3.4615    2.1755 H   0  0  0  0  0  0  0  0  0  0  0  0
    5.3819   -4.3571    2.9529 H   0  0  0  0  0  0  0  0  0  0  0  0
  1  2  2  0
  2 13  1  0
  2  3  1  0
  3  4  1  0
  5  4  1  1
  4 26  1  0
  4 27  1  0
  5 13  1  0
  5 25  1  0
  5  6  1  0
  6  7  1  0
  6 28  1  0
  6 29  1  0
  7  8  1  0
  7 30  1  0
  7 31  1  0
  8  9  1  0
 13  8  1  6
  9 10  1  0
  9 32  1  0
  9 33  1  0
 10 12  1  0
 10 11  1  0
 10 34  1  0
 11 12  1  0
 11 35  1  0
 11 36  1  0
 12 37  1  0
 12 38  1  0
 13 14  1  0
 14 15  1  0
 14 17  1  0
 14 39  1  1
 15 16  1  0
 15 40  1  0
 15 41  1  0
 16 42  1  0
 17 18  1  0
 17 25  1  0
 18 19  1  0
 18 43  1  0
 18 44  1  0
 19 24  1  0
 19 20  2  0
 20 21  1  0
 20 45  1  0
 21 22  2  0
 21 46  1  0
 22 23  1  0
 22 47  1  0
 23 24  2  0
 23 48  1  0
 24 49  1  0
 25 50  1  0
 25 51  1  0
M  END
>  <i_m_ct_stereo_status>  (354) 
1

>  <s_m_source_file>  (354) 
/var/tmp/pbs.5076255.sched01/tmp277fsmq3/144xeprw1xa.sdf

>  <i_m_source_file_index>  (354) 
3

>  <i_lp_mmshare_version>  (354) 
48012

>  <i_f3d_flags>  (354) 
0

>  <s_epik_input>  (354) 
W0NIMl0xW0NIMl1bQ0hdMVtDSDJdTihbQ0gyXVtDSDJdMilbQ0BAXShbQ0BAXTIzNCkoQyg9TylPW0NIMl0zKVtDQEBIXShbQ0gyXVtPSF0pTihbQ0gyXTQpW0NIMl1jNVtjSF1bY0hdW2NIXVtjSF1bY0hdNQ==

>  <s_epik_cmdline>  (354) 
J2VwaWtfcHl0aG9uJywgJy1waHQnLCAnMi4wJywgJy1waCcsICc3LjAnLCAnLXRuJywgJzgnLCAnLW1hJywgJzIwMCcsICctaW1hZScsICc8aW5maWxlLm1hZT4nLCAnLW9tYWUnLCAnPG91dGZpbGUubWFlPic=

>  <r_epik_Ionization_Penalty>  (354) 
1.55211

>  <r_epik_Ionization_Penalty_Charging>  (354) 
0

>  <r_epik_Ionization_Penalty_Neutral>  (354) 
1.55211

>  <r_epik_State_Penalty>  (354) 
1.33899

>  <r_epik_Charging_Adjusted_Penalty>  (354) 
1.33899

>  <i_epik_Tot_Q>  (354) 
0

>  <i_epik_Tot_abs_Q>  (354) 
0

>  <s_epik_Chemistry_Notes>  (354) 
This compound has an ester and may undergo hydrolysis at high or low pH.

>  <s_lp_Force_Field>  (354) 
OPLS3e

>  <r_lp_Energy>  (354) 
38.3

>  <b_lp_Chiralities_Consistent>  (354) 
1

>  <s_lp_Variant>  (354) 
84:0-2

>  <s_i_glide_gridfile>  (354) 
pfpi4k_grid

>  <i_i_glide_lignum>  (354) 
3

>  <i_i_glide_rotatable_bonds>  (354) 
6

>  <r_i_docking_score>  (354) 
-2.01373

>  <r_i_glide_ligand_efficiency>  (354) 
-0.080549

>  <r_i_glide_ligand_efficiency_sa>  (354) 
-0.235527

>  <r_i_glide_ligand_efficiency_ln>  (354) 
-0.477313

>  <r_i_glide_gscore>  (354) 
-2.01373

>  <r_i_glide_lipo>  (354) 
-0.419604

>  <r_i_glide_hbond>  (354) 
0

>  <r_i_glide_metal>  (354) 
-0

>  <r_i_glide_rewards>  (354) 
-1.07433

>  <r_i_glide_evdw>  (354) 
-22.8113

>  <r_i_glide_ecoul>  (354) 
-1.25198

>  <r_i_glide_erotb>  (354) 
0.808565

>  <r_i_glide_esite>  (354) 
0

>  <r_i_glide_emodel>  (354) 
-27.0426

>  <r_i_glide_energy>  (354) 
-24.0632

>  <r_i_glide_einternal>  (354) 
1.06396

>  <r_i_glide_intrahb_reward>  (354) 
-0

>  <i_i_glide_confnum>  (354) 
2

>  <i_i_glide_posenum>  (354) 
3

>  <r_i_glide_eff_state_penalty>  (354) 
0

>  <ligand_id>  (354) 
84

>  <original_smiles>  (354) 
O=C1OCC23CCN(CC4CC4)C12C(CO)N(Cc1ccccc1)C3

>  <smiles>  (354) 
[H]OC([H])([H])C1([H])N(C([H])([H])c2c([H])c([H])c([H])c([H])c2[H])C([H])([H])C23C([H])([H])OC(=O)C12N(C([H])([H])C1([H])C([H])([H])C1([H])[H])C([H])([H])C3([H])[H]

$$$$
84:2:0
     RDKit          3D

 52 56  0  0  1  0  0  0  0  0999 V2000
   -0.5288   -6.6539    2.0277 O   0  0  0  0  0  0  0  0  0  0  0  0
   -0.2521   -7.7937    2.3789 C   0  0  0  0  0  0  0  0  0  0  0  0
   -0.9760   -8.8672    2.0934 O   0  0  0  0  0  0  0  0  0  0  0  0
   -0.4225  -10.0854    2.5208 C   0  0  0  0  0  0  0  0  0  0  0  0
    0.9481   -9.7156    3.1576 C   0  0  2  0  0  0  0  0  0  0  0  0
    1.0679  -10.1666    4.6061 C   0  0  0  0  0  0  0  0  0  0  0  0
    0.5265   -8.9827    5.3871 C   0  0  0  0  0  0  0  0  0  0  0  0
    1.0121   -7.8421    4.6260 N   0  0  0  0  0  0  0  0  0  0  0  0
    0.3709   -6.5802    5.0168 C   0  0  0  0  0  0  0  0  0  0  0  0
    0.7520   -6.1442    6.4229 C   0  0  0  0  0  0  0  0  0  0  0  0
   -0.2951   -5.5505    7.3417 C   0  0  0  0  0  0  0  0  0  0  0  0
    0.7825   -4.6703    6.7646 C   0  0  0  0  0  0  0  0  0  0  0  0
    1.0130   -8.1793    3.1807 C   0  0  2  0  0  0  0  0  0  0  0  0
    2.3498   -7.8064    2.4437 C   0  0  1  0  0  0  0  0  0  0  0  0
    3.0704   -6.5748    3.1316 C   0  0  0  0  0  0  0  0  0  0  0  0
    2.4255   -5.3967    2.6760 O   0  0  0  0  0  0  0  0  0  0  0  0
    3.1425   -9.0638    2.3820 N   0  0  2  0  0  0  0  0  0  0  0  0
    4.1872   -9.2407    1.3147 C   0  0  0  0  0  0  0  0  0  0  0  0
    5.2983   -8.1995    1.2796 C   0  0  0  0  0  0  0  0  0  0  0  0
    6.6092   -8.5162    1.7259 C   0  0  0  0  0  0  0  0  0  0  0  0
    7.6142   -7.5294    1.7141 C   0  0  0  0  0  0  0  0  0  0  0  0
    7.3217   -6.2264    1.2748 C   0  0  0  0  0  0  0  0  0  0  0  0
    6.0252   -5.9219    0.8034 C   0  0  0  0  0  0  0  0  0  0  0  0
    5.0361   -6.9204    0.7395 C   0  0  0  0  0  0  0  0  0  0  0  0
    2.1405  -10.1413    2.3018 C   0  0  0  0  0  0  0  0  0  0  0  0
   -1.0815  -10.4840    3.2882 H   0  0  0  0  0  0  0  0  0  0  0  0
   -0.3504  -10.8187    1.7079 H   0  0  0  0  0  0  0  0  0  0  0  0
    0.5172  -11.0829    4.8327 H   0  0  0  0  0  0  0  0  0  0  0  0
    2.1186  -10.3192    4.8769 H   0  0  0  0  0  0  0  0  0  0  0  0
   -0.5621   -8.9945    5.3854 H   0  0  0  0  0  0  0  0  0  0  0  0
    0.8840   -8.9781    6.4160 H   0  0  0  0  0  0  0  0  0  0  0  0
    0.6528   -5.7707    4.3431 H   0  0  0  0  0  0  0  0  0  0  0  0
   -0.7170   -6.6777    4.9367 H   0  0  0  0  0  0  0  0  0  0  0  0
    1.5529   -6.7264    6.8911 H   0  0  0  0  0  0  0  0  0  0  0  0
   -1.3094   -5.4329    6.9531 H   0  0  0  0  0  0  0  0  0  0  0  0
   -0.2245   -5.7981    8.3968 H   0  0  0  0  0  0  0  0  0  0  0  0
    1.5580   -4.3335    7.4458 H   0  0  0  0  0  0  0  0  0  0  0  0
    0.4967   -3.9566    5.9905 H   0  0  0  0  0  0  0  0  0  0  0  0
    2.1049   -7.5640    1.4051 H   0  0  0  0  0  0  0  0  0  0  0  0
    3.0755   -6.6719    4.2258 H   0  0  0  0  0  0  0  0  0  0  0  0
    4.1026   -6.4139    2.8745 H   0  0  0  0  0  0  0  0  0  0  0  0
    2.7875   -4.6608    3.1317 H   0  0  0  0  0  0  0  0  0  0  0  0
    4.6240  -10.2379    1.4914 H   0  0  0  0  0  0  0  0  0  0  0  0
    3.7387   -9.3152    0.3142 H   0  0  0  0  0  0  0  0  0  0  0  0
    6.8381   -9.5001    2.1059 H   0  0  0  0  0  0  0  0  0  0  0  0
    8.5973   -7.7646    2.0837 H   0  0  0  0  0  0  0  0  0  0  0  0
    8.0611   -5.4549    1.3543 H   0  0  0  0  0  0  0  0  0  0  0  0
    5.7878   -4.9263    0.4857 H   0  0  0  0  0  0  0  0  0  0  0  0
    4.0854   -6.6994    0.2745 H   0  0  0  0  0  0  0  0  0  0  0  0
    2.5370  -11.1339    2.5679 H   0  0  0  0  0  0  0  0  0  0  0  0
    1.7999  -10.1797    1.2694 H   0  0  0  0  0  0  0  0  0  0  0  0
    3.5735   -9.1589    3.3090 H   0  0  0  0  0  0  0  0  0  0  0  0
  1  2  2  0
  2 13  1  0
  2  3  1  0
  3  4  1  0
  5  4  1  6
  4 26  1  0
  4 27  1  0
  5 13  1  0
  5 25  1  0
  5  6  1  0
  6  7  1  0
  6 28  1  0
  6 29  1  0
  7  8  1  0
  7 30  1  0
  7 31  1  0
  8  9  1  0
 13  8  1  1
  9 10  1  0
  9 32  1  0
  9 33  1  0
 10 12  1  0
 10 11  1  0
 10 34  1  0
 11 12  1  0
 11 35  1  0
 11 36  1  0
 12 37  1  0
 12 38  1  0
 13 14  1  0
 14 15  1  0
 14 17  1  0
 14 39  1  6
 15 16  1  0
 15 40  1  0
 15 41  1  0
 16 42  1  0
 17 18  1  0
 17 25  1  0
 17 52  1  1
 18 19  1  0
 18 43  1  0
 18 44  1  0
 19 24  1  0
 19 20  2  0
 20 21  1  0
 20 45  1  0
 21 22  2  0
 21 46  1  0
 22 23  1  0
 22 47  1  0
 23 24  2  0
 23 48  1  0
 24 49  1  0
 25 50  1  0
 25 51  1  0
M  CHG  1  17   1
M  END
>  <i_m_ct_stereo_status>  (355) 
1

>  <s_m_source_file>  (355) 
/var/tmp/pbs.5076255.sched01/tmp277fsmq3/144xeprw1xa.sdf

>  <i_m_source_file_index>  (355) 
4

>  <i_lp_mmshare_version>  (355) 
48012

>  <i_f3d_flags>  (355) 
0

>  <s_epik_input>  (355) 
W0NIMl0xW0NIMl1bQ0hdMVtDSDJdTihbQ0gyXVtDSDJdMilbQ0BAXShbQ0BAXTIzNCkoQyg9TylPW0NIMl0zKVtDQEBIXShbQ0gyXVtPSF0pTihbQ0gyXTQpW0NIMl1jNVtjSF1bY0hdW2NIXVtjSF1bY0hdNQ==

>  <s_epik_cmdline>  (355) 
J2VwaWtfcHl0aG9uJywgJy1waHQnLCAnMi4wJywgJy1waCcsICc3LjAnLCAnLXRuJywgJzgnLCAnLW1hJywgJzIwMCcsICctaW1hZScsICc8aW5maWxlLm1hZT4nLCAnLW9tYWUnLCAnPG91dGZpbGUubWFlPic=

>  <r_epik_Ionization_Penalty>  (355) 
0.507965

>  <r_epik_Ionization_Penalty_Charging>  (355) 
0.507962

>  <r_epik_Ionization_Penalty_Neutral>  (355) 
3.37214e-06

>  <r_epik_State_Penalty>  (355) 
1.53195

>  <r_epik_Charging_Adjusted_Penalty>  (355) 
2.03991

>  <i_epik_Tot_Q>  (355) 
1

>  <i_epik_Tot_abs_Q>  (355) 
1

>  <s_epik_Chemistry_Notes>  (355) 
This compound has an ester and may undergo hydrolysis at high or low pH.

>  <s_lp_Force_Field>  (355) 
OPLS3e

>  <r_lp_Energy>  (355) 
35.194

>  <b_lp_Chiralities_Consistent>  (355) 
1

>  <s_lp_Variant>  (355) 
84:0-3

>  <s_i_glide_gridfile>  (355) 
pfpi4k_grid

>  <i_i_glide_lignum>  (355) 
4

>  <i_i_glide_rotatable_bonds>  (355) 
6

>  <r_i_docking_score>  (355) 
-3.35106

>  <r_i_glide_ligand_efficiency>  (355) 
-0.134042

>  <r_i_glide_ligand_efficiency_sa>  (355) 
-0.391943

>  <r_i_glide_ligand_efficiency_ln>  (355) 
-0.794302

>  <r_i_glide_gscore>  (355) 
-3.35106

>  <r_i_glide_lipo>  (355) 
-0.589677

>  <r_i_glide_hbond>  (355) 
-0.166138

>  <r_i_glide_metal>  (355) 
-0

>  <r_i_glide_rewards>  (355) 
-1.06745

>  <r_i_glide_evdw>  (355) 
-22.948

>  <r_i_glide_ecoul>  (355) 
-7.34818

>  <r_i_glide_erotb>  (355) 
0.80436

>  <r_i_glide_esite>  (355) 
-0.0825259

>  <r_i_glide_emodel>  (355) 
-36.3562

>  <r_i_glide_energy>  (355) 
-30.2962

>  <r_i_glide_einternal>  (355) 
1.85138

>  <r_i_glide_intrahb_reward>  (355) 
-0

>  <i_i_glide_confnum>  (355) 
4

>  <i_i_glide_posenum>  (355) 
11

>  <r_i_glide_eff_state_penalty>  (355) 
0

>  <ligand_id>  (355) 
84

>  <original_smiles>  (355) 
O=C1OCC23CCN(CC4CC4)C12C(CO)N(Cc1ccccc1)C3

>  <smiles>  (355) 
[H]OC([H])([H])C1([H])C23C(=O)OC([H])([H])C2(C([H])([H])C([H])([H])N3C([H])([H])C2([H])C([H])([H])C2([H])[H])C([H])([H])[N+]1([H])C([H])([H])c1c([H])c([H])c([H])c([H])c1[H]

$$$$
84:2:1
     RDKit          3D

 52 56  0  0  1  0  0  0  0  0999 V2000
   -0.5030    5.2107    4.4024 O   0  0  0  0  0  0  0  0  0  0  0  0
   -0.9728    4.1291    4.0617 C   0  0  0  0  0  0  0  0  0  0  0  0
   -2.1173    3.9541    3.4065 O   0  0  0  0  0  0  0  0  0  0  0  0
   -2.4376    2.6024    3.1400 C   0  0  0  0  0  0  0  0  0  0  0  0
   -1.2140    1.7896    3.6228 C   0  0  2  0  0  0  0  0  0  0  0  0
   -1.5913    0.7260    4.6530 C   0  0  0  0  0  0  0  0  0  0  0  0
   -1.4862    1.4751    5.9706 C   0  0  0  0  0  0  0  0  0  0  0  0
   -0.3078    2.3211    5.7820 N   0  0  0  0  0  0  0  0  0  0  0  0
   -0.2471    3.3591    6.8280 C   0  0  0  0  0  0  0  0  0  0  0  0
    0.0177    2.7470    8.1927 C   0  0  0  0  0  0  0  0  0  0  0  0
   -1.0982    2.6191    9.2059 C   0  0  0  0  0  0  0  0  0  0  0  0
   -0.0053    3.6352    9.4157 C   0  0  0  0  0  0  0  0  0  0  0  0
   -0.3063    2.7779    4.3675 C   0  0  2  0  0  0  0  0  0  0  0  0
    1.0929    2.6226    3.6676 C   0  0  1  0  0  0  0  0  0  0  0  0
    2.3106    2.7556    4.6284 C   0  0  0  0  0  0  0  0  0  0  0  0
    3.4158    3.4148    4.0286 O   0  0  0  0  0  0  0  0  0  0  0  0
    1.0326    1.3318    2.9116 N   0  0  2  0  0  0  0  0  0  0  0  0
    1.9952    1.1402    1.7904 C   0  0  0  0  0  0  0  0  0  0  0  0
    3.0657    0.0651    2.0210 C   0  0  0  0  0  0  0  0  0  0  0  0
    3.9576    0.1422    3.1123 C   0  0  0  0  0  0  0  0  0  0  0  0
    4.9654   -0.8247    3.3028 C   0  0  0  0  0  0  0  0  0  0  0  0
    5.1111   -1.8774    2.3875 C   0  0  0  0  0  0  0  0  0  0  0  0
    4.2475   -1.9581    1.2767 C   0  0  0  0  0  0  0  0  0  0  0  0
    3.2334   -0.9915    1.0962 C   0  0  0  0  0  0  0  0  0  0  0  0
   -0.3695    1.2397    2.4665 C   0  0  0  0  0  0  0  0  0  0  0  0
   -3.3453    2.3343    3.6840 H   0  0  0  0  0  0  0  0  0  0  0  0
   -2.6506    2.4552    2.0791 H   0  0  0  0  0  0  0  0  0  0  0  0
   -2.5826    0.2970    4.4890 H   0  0  0  0  0  0  0  0  0  0  0  0
   -0.8671   -0.0898    4.6458 H   0  0  0  0  0  0  0  0  0  0  0  0
   -2.3822    2.0740    6.1348 H   0  0  0  0  0  0  0  0  0  0  0  0
   -1.3694    0.7914    6.8131 H   0  0  0  0  0  0  0  0  0  0  0  0
    0.5498    4.0799    6.6490 H   0  0  0  0  0  0  0  0  0  0  0  0
   -1.1674    3.9450    6.8653 H   0  0  0  0  0  0  0  0  0  0  0  0
    0.7927    1.9818    8.1998 H   0  0  0  0  0  0  0  0  0  0  0  0
   -2.0828    2.9778    8.9115 H   0  0  0  0  0  0  0  0  0  0  0  0
   -1.0941    1.7411    9.8485 H   0  0  0  0  0  0  0  0  0  0  0  0
    0.7112    3.4290   10.2081 H   0  0  0  0  0  0  0  0  0  0  0  0
   -0.2533    4.6852    9.2744 H   0  0  0  0  0  0  0  0  0  0  0  0
    1.1647    3.4232    2.9240 H   0  0  0  0  0  0  0  0  0  0  0  0
    2.0938    3.4392    5.4392 H   0  0  0  0  0  0  0  0  0  0  0  0
    2.5600    1.8142    5.1343 H   0  0  0  0  0  0  0  0  0  0  0  0
    3.7478    2.9452    3.2746 H   0  0  0  0  0  0  0  0  0  0  0  0
    1.4433    0.8447    0.8953 H   0  0  0  0  0  0  0  0  0  0  0  0
    2.4572    2.0872    1.5361 H   0  0  0  0  0  0  0  0  0  0  0  0
    3.9334    0.9488    3.8121 H   0  0  0  0  0  0  0  0  0  0  0  0
    5.6361   -0.7323    4.1469 H   0  0  0  0  0  0  0  0  0  0  0  0
    5.8923   -2.6179    2.5323 H   0  0  0  0  0  0  0  0  0  0  0  0
    4.3711   -2.7564    0.5625 H   0  0  0  0  0  0  0  0  0  0  0  0
    2.6106   -1.0615    0.2158 H   0  0  0  0  0  0  0  0  0  0  0  0
   -0.6491    0.2277    2.1793 H   0  0  0  0  0  0  0  0  0  0  0  0
   -0.4974    1.8931    1.6003 H   0  0  0  0  0  0  0  0  0  0  0  0
    1.1679    0.5831    3.5779 H   0  0  0  0  0  0  0  0  0  0  0  0
  1  2  2  0
  2 13  1  0
  2  3  1  0
  3  4  1  0
  5  4  1  6
  4 26  1  0
  4 27  1  0
  5 13  1  0
  5 25  1  0
  5  6  1  0
  6  7  1  0
  6 28  1  0
  6 29  1  0
  7  8  1  0
  7 30  1  0
  7 31  1  0
  8  9  1  0
 13  8  1  1
  9 10  1  0
  9 32  1  0
  9 33  1  0
 10 12  1  0
 10 11  1  0
 10 34  1  0
 11 12  1  0
 11 35  1  0
 11 36  1  0
 12 37  1  0
 12 38  1  0
 13 14  1  0
 14 15  1  0
 14 17  1  0
 14 39  1  6
 15 16  1  0
 15 40  1  0
 15 41  1  0
 16 42  1  0
 17 18  1  0
 17 25  1  0
 17 52  1  1
 18 19  1  0
 18 43  1  0
 18 44  1  0
 19 24  1  0
 19 20  2  0
 20 21  1  0
 20 45  1  0
 21 22  2  0
 21 46  1  0
 22 23  1  0
 22 47  1  0
 23 24  2  0
 23 48  1  0
 24 49  1  0
 25 50  1  0
 25 51  1  0
M  CHG  1  17   1
M  END
>  <i_m_ct_stereo_status>  (356) 
1

>  <s_m_source_file>  (356) 
/var/tmp/pbs.5076255.sched01/tmp277fsmq3/144xeprw1xa.sdf

>  <i_m_source_file_index>  (356) 
4

>  <i_lp_mmshare_version>  (356) 
48012

>  <i_f3d_flags>  (356) 
0

>  <s_epik_input>  (356) 
W0NIMl0xW0NIMl1bQ0hdMVtDSDJdTihbQ0gyXVtDSDJdMilbQ0BAXShbQ0BAXTIzNCkoQyg9TylPW0NIMl0zKVtDQEBIXShbQ0gyXVtPSF0pTihbQ0gyXTQpW0NIMl1jNVtjSF1bY0hdW2NIXVtjSF1bY0hdNQ==

>  <s_epik_cmdline>  (356) 
J2VwaWtfcHl0aG9uJywgJy1waHQnLCAnMi4wJywgJy1waCcsICc3LjAnLCAnLXRuJywgJzgnLCAnLW1hJywgJzIwMCcsICctaW1hZScsICc8aW5maWxlLm1hZT4nLCAnLW9tYWUnLCAnPG91dGZpbGUubWFlPic=

>  <r_epik_Ionization_Penalty>  (356) 
0.507965

>  <r_epik_Ionization_Penalty_Charging>  (356) 
0.507962

>  <r_epik_Ionization_Penalty_Neutral>  (356) 
3.37214e-06

>  <r_epik_State_Penalty>  (356) 
1.53195

>  <r_epik_Charging_Adjusted_Penalty>  (356) 
2.03991

>  <i_epik_Tot_Q>  (356) 
1

>  <i_epik_Tot_abs_Q>  (356) 
1

>  <s_epik_Chemistry_Notes>  (356) 
This compound has an ester and may undergo hydrolysis at high or low pH.

>  <s_lp_Force_Field>  (356) 
OPLS3e

>  <r_lp_Energy>  (356) 
35.194

>  <b_lp_Chiralities_Consistent>  (356) 
1

>  <s_lp_Variant>  (356) 
84:0-3

>  <s_i_glide_gridfile>  (356) 
pfpi4k_grid

>  <i_i_glide_lignum>  (356) 
4

>  <i_i_glide_rotatable_bonds>  (356) 
6

>  <r_i_docking_score>  (356) 
-3.03089

>  <r_i_glide_ligand_efficiency>  (356) 
-0.121235

>  <r_i_glide_ligand_efficiency_sa>  (356) 
-0.354495

>  <r_i_glide_ligand_efficiency_ln>  (356) 
-0.718411

>  <r_i_glide_gscore>  (356) 
-3.03089

>  <r_i_glide_lipo>  (356) 
-0.206646

>  <r_i_glide_hbond>  (356) 
-0.238581

>  <r_i_glide_metal>  (356) 
-0

>  <r_i_glide_rewards>  (356) 
-1.06745

>  <r_i_glide_evdw>  (356) 
-21.1053

>  <r_i_glide_ecoul>  (356) 
-7.69577

>  <r_i_glide_erotb>  (356) 
0.80436

>  <r_i_glide_esite>  (356) 
-0.112933

>  <r_i_glide_emodel>  (356) 
-33.4357

>  <r_i_glide_energy>  (356) 
-28.8011

>  <r_i_glide_einternal>  (356) 
4.96367

>  <r_i_glide_intrahb_reward>  (356) 
-0

>  <i_i_glide_confnum>  (356) 
3

>  <i_i_glide_posenum>  (356) 
2

>  <r_i_glide_eff_state_penalty>  (356) 
0

>  <ligand_id>  (356) 
84

>  <original_smiles>  (356) 
O=C1OCC23CCN(CC4CC4)C12C(CO)N(Cc1ccccc1)C3

>  <smiles>  (356) 
[H]OC([H])([H])C1([H])C23C(=O)OC([H])([H])C2(C([H])([H])C([H])([H])N3C([H])([H])C2([H])C([H])([H])C2([H])[H])C([H])([H])[N+]1([H])C([H])([H])c1c([H])c([H])c([H])c([H])c1[H]

$$$$
84:2:2
     RDKit          3D

 52 56  0  0  1  0  0  0  0  0999 V2000
   -0.6181    5.2857    3.9457 O   0  0  0  0  0  0  0  0  0  0  0  0
   -1.0425    4.1433    3.7330 C   0  0  0  0  0  0  0  0  0  0  0  0
   -2.1285    3.8345    3.0280 O   0  0  0  0  0  0  0  0  0  0  0  0
   -2.3400    2.4308    2.8841 C   0  0  0  0  0  0  0  0  0  0  0  0
   -1.1139    1.7722    3.5465 C   0  0  2  0  0  0  0  0  0  0  0  0
   -1.5057    0.7927    4.6624 C   0  0  0  0  0  0  0  0  0  0  0  0
   -1.5761    1.6842    5.8802 C   0  0  0  0  0  0  0  0  0  0  0  0
   -0.4447    2.5906    5.6943 N   0  0  0  0  0  0  0  0  0  0  0  0
   -0.5473    3.7397    6.6130 C   0  0  0  0  0  0  0  0  0  0  0  0
   -0.3815    3.3039    8.0553 C   0  0  0  0  0  0  0  0  0  0  0  0
   -1.5767    3.1755    8.9749 C   0  0  0  0  0  0  0  0  0  0  0  0
   -0.6057    4.3095    9.1602 C   0  0  0  0  0  0  0  0  0  0  0  0
   -0.3416    2.8946    4.2456 C   0  0  2  0  0  0  0  0  0  0  0  0
    1.1207    2.8073    3.6819 C   0  0  1  0  0  0  0  0  0  0  0  0
    2.2562    3.1198    4.6881 C   0  0  0  0  0  0  0  0  0  0  0  0
    2.3265    4.5059    5.0055 O   0  0  0  0  0  0  0  0  0  0  0  0
    1.2180    1.4575    3.0657 N   0  0  2  0  0  0  0  0  0  0  0  0
    2.3076    1.2293    2.0737 C   0  0  0  0  0  0  0  0  0  0  0  0
    3.0554   -0.0786    2.2861 C   0  0  0  0  0  0  0  0  0  0  0  0
    4.2086   -0.1109    3.1008 C   0  0  0  0  0  0  0  0  0  0  0  0
    4.9578   -1.2873    3.2199 C   0  0  0  0  0  0  0  0  0  0  0  0
    4.5979   -2.4532    2.5173 C   0  0  0  0  0  0  0  0  0  0  0  0
    3.4565   -2.4330    1.7019 C   0  0  0  0  0  0  0  0  0  0  0  0
    2.6810   -1.2562    1.6031 C   0  0  0  0  0  0  0  0  0  0  0  0
   -0.1339    1.1773    2.5365 C   0  0  0  0  0  0  0  0  0  0  0  0
   -3.2598    2.1571    3.3984 H   0  0  0  0  0  0  0  0  0  0  0  0
   -2.4694    2.1204    1.8370 H   0  0  0  0  0  0  0  0  0  0  0  0
   -2.4536    0.2753    4.4905 H   0  0  0  0  0  0  0  0  0  0  0  0
   -0.7199    0.0494    4.7969 H   0  0  0  0  0  0  0  0  0  0  0  0
   -2.5201    2.2302    5.8854 H   0  0  0  0  0  0  0  0  0  0  0  0
   -1.4988    1.1072    6.8032 H   0  0  0  0  0  0  0  0  0  0  0  0
    0.2396    4.4713    6.4186 H   0  0  0  0  0  0  0  0  0  0  0  0
   -1.4971    4.2561    6.4920 H   0  0  0  0  0  0  0  0  0  0  0  0
    0.4628    2.6375    8.2190 H   0  0  0  0  0  0  0  0  0  0  0  0
   -2.5609    3.3981    8.5620 H   0  0  0  0  0  0  0  0  0  0  0  0
   -1.5494    2.3687    9.7072 H   0  0  0  0  0  0  0  0  0  0  0  0
    0.0464    4.2539   10.0310 H   0  0  0  0  0  0  0  0  0  0  0  0
   -0.9339    5.3128    8.8913 H   0  0  0  0  0  0  0  0  0  0  0  0
    1.2200    3.5150    2.8431 H   0  0  0  0  0  0  0  0  0  0  0  0
    2.1513    2.5228    5.6019 H   0  0  0  0  0  0  0  0  0  0  0  0
    3.2311    2.8496    4.2773 H   0  0  0  0  0  0  0  0  0  0  0  0
    2.2951    5.0049    4.2049 H   0  0  0  0  0  0  0  0  0  0  0  0
    1.9081    1.2383    1.0600 H   0  0  0  0  0  0  0  0  0  0  0  0
    3.0217    2.0554    2.0954 H   0  0  0  0  0  0  0  0  0  0  0  0
    4.5476    0.7924    3.5996 H   0  0  0  0  0  0  0  0  0  0  0  0
    5.8327   -1.2947    3.8445 H   0  0  0  0  0  0  0  0  0  0  0  0
    5.1849   -3.3600    2.6157 H   0  0  0  0  0  0  0  0  0  0  0  0
    3.1870   -3.3133    1.1376 H   0  0  0  0  0  0  0  0  0  0  0  0
    1.8351   -1.2576    0.9204 H   0  0  0  0  0  0  0  0  0  0  0  0
   -0.2935    0.1208    2.3458 H   0  0  0  0  0  0  0  0  0  0  0  0
   -0.2611    1.7344    1.6023 H   0  0  0  0  0  0  0  0  0  0  0  0
    1.3658    0.8214    3.8454 H   0  0  0  0  0  0  0  0  0  0  0  0
  1  2  2  0
  2 13  1  0
  2  3  1  0
  3  4  1  0
  5  4  1  6
  4 26  1  0
  4 27  1  0
  5 13  1  0
  5 25  1  0
  5  6  1  0
  6  7  1  0
  6 28  1  0
  6 29  1  0
  7  8  1  0
  7 30  1  0
  7 31  1  0
  8  9  1  0
 13  8  1  1
  9 10  1  0
  9 32  1  0
  9 33  1  0
 10 12  1  0
 10 11  1  0
 10 34  1  0
 11 12  1  0
 11 35  1  0
 11 36  1  0
 12 37  1  0
 12 38  1  0
 13 14  1  0
 14 15  1  0
 14 17  1  0
 14 39  1  6
 15 16  1  0
 15 40  1  0
 15 41  1  0
 16 42  1  0
 17 18  1  0
 17 25  1  0
 17 52  1  1
 18 19  1  0
 18 43  1  0
 18 44  1  0
 19 24  1  0
 19 20  2  0
 20 21  1  0
 20 45  1  0
 21 22  2  0
 21 46  1  0
 22 23  1  0
 22 47  1  0
 23 24  2  0
 23 48  1  0
 24 49  1  0
 25 50  1  0
 25 51  1  0
M  CHG  1  17   1
M  END
>  <i_m_ct_stereo_status>  (357) 
1

>  <s_m_source_file>  (357) 
/var/tmp/pbs.5076255.sched01/tmp277fsmq3/144xeprw1xa.sdf

>  <i_m_source_file_index>  (357) 
4

>  <i_lp_mmshare_version>  (357) 
48012

>  <i_f3d_flags>  (357) 
0

>  <s_epik_input>  (357) 
W0NIMl0xW0NIMl1bQ0hdMVtDSDJdTihbQ0gyXVtDSDJdMilbQ0BAXShbQ0BAXTIzNCkoQyg9TylPW0NIMl0zKVtDQEBIXShbQ0gyXVtPSF0pTihbQ0gyXTQpW0NIMl1jNVtjSF1bY0hdW2NIXVtjSF1bY0hdNQ==

>  <s_epik_cmdline>  (357) 
J2VwaWtfcHl0aG9uJywgJy1waHQnLCAnMi4wJywgJy1waCcsICc3LjAnLCAnLXRuJywgJzgnLCAnLW1hJywgJzIwMCcsICctaW1hZScsICc8aW5maWxlLm1hZT4nLCAnLW9tYWUnLCAnPG91dGZpbGUubWFlPic=

>  <r_epik_Ionization_Penalty>  (357) 
0.507965

>  <r_epik_Ionization_Penalty_Charging>  (357) 
0.507962

>  <r_epik_Ionization_Penalty_Neutral>  (357) 
3.37214e-06

>  <r_epik_State_Penalty>  (357) 
1.53195

>  <r_epik_Charging_Adjusted_Penalty>  (357) 
2.03991

>  <i_epik_Tot_Q>  (357) 
1

>  <i_epik_Tot_abs_Q>  (357) 
1

>  <s_epik_Chemistry_Notes>  (357) 
This compound has an ester and may undergo hydrolysis at high or low pH.

>  <s_lp_Force_Field>  (357) 
OPLS3e

>  <r_lp_Energy>  (357) 
35.194

>  <b_lp_Chiralities_Consistent>  (357) 
1

>  <s_lp_Variant>  (357) 
84:0-3

>  <s_i_glide_gridfile>  (357) 
pfpi4k_grid

>  <i_i_glide_lignum>  (357) 
4

>  <i_i_glide_rotatable_bonds>  (357) 
6

>  <r_i_docking_score>  (357) 
-2.61021

>  <r_i_glide_ligand_efficiency>  (357) 
-0.104408

>  <r_i_glide_ligand_efficiency_sa>  (357) 
-0.305292

>  <r_i_glide_ligand_efficiency_ln>  (357) 
-0.618699

>  <r_i_glide_gscore>  (357) 
-2.61021

>  <r_i_glide_lipo>  (357) 
-0.142445

>  <r_i_glide_hbond>  (357) 
-0.0822791

>  <r_i_glide_metal>  (357) 
-0

>  <r_i_glide_rewards>  (357) 
-1.06745

>  <r_i_glide_evdw>  (357) 
-20.1157

>  <r_i_glide_ecoul>  (357) 
-6.60484

>  <r_i_glide_erotb>  (357) 
0.80436

>  <r_i_glide_esite>  (357) 
-0.125883

>  <r_i_glide_emodel>  (357) 
-31.9281

>  <r_i_glide_energy>  (357) 
-26.7205

>  <r_i_glide_einternal>  (357) 
2.76748

>  <r_i_glide_intrahb_reward>  (357) 
-0

>  <i_i_glide_confnum>  (357) 
1

>  <i_i_glide_posenum>  (357) 
24

>  <r_i_glide_eff_state_penalty>  (357) 
0

>  <ligand_id>  (357) 
84

>  <original_smiles>  (357) 
O=C1OCC23CCN(CC4CC4)C12C(CO)N(Cc1ccccc1)C3

>  <smiles>  (357) 
[H]OC([H])([H])C1([H])C23C(=O)OC([H])([H])C2(C([H])([H])C([H])([H])N3C([H])([H])C2([H])C([H])([H])C2([H])[H])C([H])([H])[N+]1([H])C([H])([H])c1c([H])c([H])c([H])c([H])c1[H]

$$$$
85:0:0
     RDKit          3D

 19 20  0  0  1  0  0  0  0  0999 V2000
   -2.1368   -8.4933    2.9840 C   0  0  0  0  0  0  0  0  0  0  0  0
   -0.6915   -8.2811    2.5999 C   0  0  0  0  0  0  0  0  0  0  0  0
    0.2783   -9.2775    2.8816 C   0  0  0  0  0  0  0  0  0  0  0  0
    1.5789   -9.0468    2.4931 C   0  0  0  0  0  0  0  0  0  0  0  0
    2.7010  -10.0356    2.7456 C   0  0  0  0  0  0  0  0  0  0  0  0
    1.8544   -7.8704    1.8604 N   0  0  0  0  0  0  0  0  0  0  0  0
    3.0471   -7.4000    1.4044 N   0  0  0  0  0  0  0  0  0  0  0  0
    2.7017   -6.2260    0.8864 C   0  0  0  0  0  0  0  0  0  0  0  0
    1.3820   -5.8898    0.9728 N   0  0  0  0  0  0  0  0  0  0  0  0
    0.8436   -6.9301    1.6056 C   0  0  0  0  0  0  0  0  0  0  0  0
   -0.4305   -7.1279    1.9899 N   0  0  0  0  0  0  0  0  0  0  0  0
   -2.2713   -9.4566    3.4744 H   0  0  0  0  0  0  0  0  0  0  0  0
   -2.7540   -8.4786    2.0847 H   0  0  0  0  0  0  0  0  0  0  0  0
   -2.4692   -7.7068    3.6651 H   0  0  0  0  0  0  0  0  0  0  0  0
    0.0053  -10.1990    3.3898 H   0  0  0  0  0  0  0  0  0  0  0  0
    2.3332  -10.9269    3.2545 H   0  0  0  0  0  0  0  0  0  0  0  0
    3.4744   -9.5837    3.3683 H   0  0  0  0  0  0  0  0  0  0  0  0
    3.1545  -10.3453    1.8032 H   0  0  0  0  0  0  0  0  0  0  0  0
    3.4302   -5.5826    0.4134 H   0  0  0  0  0  0  0  0  0  0  0  0
  1  2  1  0
  1 12  1  0
  1 13  1  0
  1 14  1  0
  2 11  2  0
  2  3  1  0
  3  4  2  0
  3 15  1  0
  4  5  1  0
  4  6  1  0
  5 16  1  0
  5 17  1  0
  5 18  1  0
  6 10  1  0
  6  7  1  0
  7  8  2  0
  8  9  1  0
  8 19  1  0
  9 10  2  0
 10 11  1  0
M  END
>  <i_m_ct_stereo_status>  (358) 
1

>  <s_m_source_file>  (358) 
/var/tmp/pbs.5076255.sched01/tmp277fsmq3/144xeprw1xa.sdf

>  <i_m_source_file_index>  (358) 
5

>  <i_lp_mmshare_version>  (358) 
48012

>  <i_f3d_flags>  (358) 
0

>  <s_epik_input>  (358) 
W0NIM11jMVtjSF1jKFtDSDNdKW5jKG4xMiluW2NIXW4y

>  <s_epik_cmdline>  (358) 
J2VwaWtfcHl0aG9uJywgJy1waHQnLCAnMi4wJywgJy1waCcsICc3LjAnLCAnLXRuJywgJzgnLCAnLW1hJywgJzIwMCcsICctaW1hZScsICc8aW5maWxlLm1hZT4nLCAnLW9tYWUnLCAnPG91dGZpbGUubWFlPic=

>  <r_lp_tautomer_probability>  (358) 
1

>  <r_epik_Ionization_Penalty>  (358) 
1.36108e-06

>  <r_epik_Ionization_Penalty_Charging>  (358) 
0

>  <r_epik_Ionization_Penalty_Neutral>  (358) 
1.36108e-06

>  <r_epik_State_Penalty>  (358) 
-0

>  <r_epik_Charging_Adjusted_Penalty>  (358) 
0

>  <i_epik_Tot_Q>  (358) 
0

>  <i_epik_Tot_abs_Q>  (358) 
0

>  <s_lp_Force_Field>  (358) 
OPLS3e

>  <r_lp_Energy>  (358) 
11.5976

>  <b_lp_Chiralities_Consistent>  (358) 
1

>  <s_lp_Variant>  (358) 
85:0-1

>  <s_i_glide_gridfile>  (358) 
pfpi4k_grid

>  <i_i_glide_lignum>  (358) 
5

>  <i_i_glide_rotatable_bonds>  (358) 
0

>  <r_i_docking_score>  (358) 
-4.2413

>  <r_i_glide_ligand_efficiency>  (358) 
-0.385572

>  <r_i_glide_ligand_efficiency_sa>  (358) 
-0.857505

>  <r_i_glide_ligand_efficiency_ln>  (358) 
-1.24821

>  <r_i_glide_gscore>  (358) 
-4.2413

>  <r_i_glide_lipo>  (358) 
-0.0264087

>  <r_i_glide_hbond>  (358) 
-0.234814

>  <r_i_glide_metal>  (358) 
-0

>  <r_i_glide_rewards>  (358) 
-2.25

>  <r_i_glide_evdw>  (358) 
-15.6393

>  <r_i_glide_ecoul>  (358) 
-5.57934

>  <r_i_glide_erotb>  (358) 
0

>  <r_i_glide_esite>  (358) 
-0.11121

>  <r_i_glide_emodel>  (358) 
-28.0702

>  <r_i_glide_energy>  (358) 
-21.2186

>  <r_i_glide_einternal>  (358) 
0

>  <r_i_glide_intrahb_reward>  (358) 
-0

>  <i_i_glide_confnum>  (358) 
1

>  <i_i_glide_posenum>  (358) 
8

>  <r_i_glide_eff_state_penalty>  (358) 
0

>  <ligand_id>  (358) 
85

>  <original_smiles>  (358) 
Cc1cc(C)n2ncnc2n1

>  <smiles>  (358) 
[H]c1nc2nc(C([H])([H])[H])c([H])c(C([H])([H])[H])n2n1

$$$$
85:0:1
     RDKit          3D

 19 20  0  0  1  0  0  0  0  0999 V2000
    0.5593   -5.8920    7.1940 C   0  0  0  0  0  0  0  0  0  0  0  0
    0.3535   -6.8819    6.0660 C   0  0  0  0  0  0  0  0  0  0  0  0
    0.8227   -8.2150    6.1847 C   0  0  0  0  0  0  0  0  0  0  0  0
    0.6049   -9.0780    5.1306 C   0  0  0  0  0  0  0  0  0  0  0  0
    1.0673  -10.5206    5.1398 C   0  0  0  0  0  0  0  0  0  0  0  0
   -0.0497   -8.5943    4.0383 N   0  0  0  0  0  0  0  0  0  0  0  0
   -0.3685   -9.2338    2.8820 N   0  0  0  0  0  0  0  0  0  0  0  0
   -0.9848   -8.2777    2.2011 C   0  0  0  0  0  0  0  0  0  0  0  0
   -1.0792   -7.0603    2.8101 N   0  0  0  0  0  0  0  0  0  0  0  0
   -0.4910   -7.2625    3.9862 C   0  0  0  0  0  0  0  0  0  0  0  0
   -0.2892   -6.4057    5.0044 N   0  0  0  0  0  0  0  0  0  0  0  0
    1.0866   -6.3531    8.0288 H   0  0  0  0  0  0  0  0  0  0  0  0
   -0.4029   -5.5261    7.5565 H   0  0  0  0  0  0  0  0  0  0  0  0
    1.1468   -5.0398    6.8481 H   0  0  0  0  0  0  0  0  0  0  0  0
    1.3402   -8.5613    7.0724 H   0  0  0  0  0  0  0  0  0  0  0  0
    1.5784  -10.7501    6.0734 H   0  0  0  0  0  0  0  0  0  0  0  0
    1.7610  -10.7106    4.3195 H   0  0  0  0  0  0  0  0  0  0  0  0
    0.2163  -11.1959    5.0358 H   0  0  0  0  0  0  0  0  0  0  0  0
   -1.3741   -8.4664    1.2137 H   0  0  0  0  0  0  0  0  0  0  0  0
  1  2  1  0
  1 12  1  0
  1 13  1  0
  1 14  1  0
  2 11  2  0
  2  3  1  0
  3  4  2  0
  3 15  1  0
  4  5  1  0
  4  6  1  0
  5 16  1  0
  5 17  1  0
  5 18  1  0
  6 10  1  0
  6  7  1  0
  7  8  2  0
  8  9  1  0
  8 19  1  0
  9 10  2  0
 10 11  1  0
M  END
>  <i_m_ct_stereo_status>  (359) 
1

>  <s_m_source_file>  (359) 
/var/tmp/pbs.5076255.sched01/tmp277fsmq3/144xeprw1xa.sdf

>  <i_m_source_file_index>  (359) 
5

>  <i_lp_mmshare_version>  (359) 
48012

>  <i_f3d_flags>  (359) 
0

>  <s_epik_input>  (359) 
W0NIM11jMVtjSF1jKFtDSDNdKW5jKG4xMiluW2NIXW4y

>  <s_epik_cmdline>  (359) 
J2VwaWtfcHl0aG9uJywgJy1waHQnLCAnMi4wJywgJy1waCcsICc3LjAnLCAnLXRuJywgJzgnLCAnLW1hJywgJzIwMCcsICctaW1hZScsICc8aW5maWxlLm1hZT4nLCAnLW9tYWUnLCAnPG91dGZpbGUubWFlPic=

>  <r_lp_tautomer_probability>  (359) 
1

>  <r_epik_Ionization_Penalty>  (359) 
1.36108e-06

>  <r_epik_Ionization_Penalty_Charging>  (359) 
0

>  <r_epik_Ionization_Penalty_Neutral>  (359) 
1.36108e-06

>  <r_epik_State_Penalty>  (359) 
-0

>  <r_epik_Charging_Adjusted_Penalty>  (359) 
0

>  <i_epik_Tot_Q>  (359) 
0

>  <i_epik_Tot_abs_Q>  (359) 
0

>  <s_lp_Force_Field>  (359) 
OPLS3e

>  <r_lp_Energy>  (359) 
11.5976

>  <b_lp_Chiralities_Consistent>  (359) 
1

>  <s_lp_Variant>  (359) 
85:0-1

>  <s_i_glide_gridfile>  (359) 
pfpi4k_grid

>  <i_i_glide_lignum>  (359) 
5

>  <i_i_glide_rotatable_bonds>  (359) 
0

>  <r_i_docking_score>  (359) 
-3.77506

>  <r_i_glide_ligand_efficiency>  (359) 
-0.343187

>  <r_i_glide_ligand_efficiency_sa>  (359) 
-0.763241

>  <r_i_glide_ligand_efficiency_ln>  (359) 
-1.111

>  <r_i_glide_gscore>  (359) 
-3.77506

>  <r_i_glide_lipo>  (359) 
0

>  <r_i_glide_hbond>  (359) 
-0.16

>  <r_i_glide_metal>  (359) 
-0

>  <r_i_glide_rewards>  (359) 
-2.25

>  <r_i_glide_evdw>  (359) 
-14.0655

>  <r_i_glide_ecoul>  (359) 
-3.44047

>  <r_i_glide_erotb>  (359) 
0

>  <r_i_glide_esite>  (359) 
-0.145713

>  <r_i_glide_emodel>  (359) 
-23.6058

>  <r_i_glide_energy>  (359) 
-17.506

>  <r_i_glide_einternal>  (359) 
0

>  <r_i_glide_intrahb_reward>  (359) 
-0

>  <i_i_glide_confnum>  (359) 
1

>  <i_i_glide_posenum>  (359) 
2

>  <r_i_glide_eff_state_penalty>  (359) 
0

>  <ligand_id>  (359) 
85

>  <original_smiles>  (359) 
Cc1cc(C)n2ncnc2n1

>  <smiles>  (359) 
[H]c1nc2nc(C([H])([H])[H])c([H])c(C([H])([H])[H])n2n1

$$$$
85:0:2
     RDKit          3D

 19 20  0  0  1  0  0  0  0  0999 V2000
   -2.0810    3.4622    3.3836 C   0  0  0  0  0  0  0  0  0  0  0  0
   -1.3904    2.1363    3.6171 C   0  0  0  0  0  0  0  0  0  0  0  0
   -0.3946    1.6734    2.7215 C   0  0  0  0  0  0  0  0  0  0  0  0
    0.2063    0.4612    2.9773 C   0  0  0  0  0  0  0  0  0  0  0  0
    1.2846   -0.1284    2.0831 C   0  0  0  0  0  0  0  0  0  0  0  0
   -0.2040   -0.2269    4.0852 N   0  0  0  0  0  0  0  0  0  0  0  0
    0.2203   -1.4351    4.5513 N   0  0  0  0  0  0  0  0  0  0  0  0
   -0.5137   -1.5848    5.6454 C   0  0  0  0  0  0  0  0  0  0  0  0
   -1.3950   -0.5824    5.9261 N   0  0  0  0  0  0  0  0  0  0  0  0
   -1.1968    0.2889    4.9364 C   0  0  0  0  0  0  0  0  0  0  0  0
   -1.7823    1.4782    4.7052 N   0  0  0  0  0  0  0  0  0  0  0  0
   -1.7120    3.9555    2.4847 H   0  0  0  0  0  0  0  0  0  0  0  0
   -1.9136    4.1308    4.2275 H   0  0  0  0  0  0  0  0  0  0  0  0
   -3.1545    3.3146    3.2694 H   0  0  0  0  0  0  0  0  0  0  0  0
   -0.1132    2.2625    1.8517 H   0  0  0  0  0  0  0  0  0  0  0  0
    1.5037    0.5274    1.2407 H   0  0  0  0  0  0  0  0  0  0  0  0
    0.9715   -1.0913    1.6814 H   0  0  0  0  0  0  0  0  0  0  0  0
    2.2066   -0.2772    2.6436 H   0  0  0  0  0  0  0  0  0  0  0  0
   -0.4168   -2.4607    6.2716 H   0  0  0  0  0  0  0  0  0  0  0  0
  1  2  1  0
  1 12  1  0
  1 13  1  0
  1 14  1  0
  2 11  2  0
  2  3  1  0
  3  4  2  0
  3 15  1  0
  4  5  1  0
  4  6  1  0
  5 16  1  0
  5 17  1  0
  5 18  1  0
  6 10  1  0
  6  7  1  0
  7  8  2  0
  8  9  1  0
  8 19  1  0
  9 10  2  0
 10 11  1  0
M  END
>  <i_m_ct_stereo_status>  (360) 
1

>  <s_m_source_file>  (360) 
/var/tmp/pbs.5076255.sched01/tmp277fsmq3/144xeprw1xa.sdf

>  <i_m_source_file_index>  (360) 
5

>  <i_lp_mmshare_version>  (360) 
48012

>  <i_f3d_flags>  (360) 
0

>  <s_epik_input>  (360) 
W0NIM11jMVtjSF1jKFtDSDNdKW5jKG4xMiluW2NIXW4y

>  <s_epik_cmdline>  (360) 
J2VwaWtfcHl0aG9uJywgJy1waHQnLCAnMi4wJywgJy1waCcsICc3LjAnLCAnLXRuJywgJzgnLCAnLW1hJywgJzIwMCcsICctaW1hZScsICc8aW5maWxlLm1hZT4nLCAnLW9tYWUnLCAnPG91dGZpbGUubWFlPic=

>  <r_lp_tautomer_probability>  (360) 
1

>  <r_epik_Ionization_Penalty>  (360) 
1.36108e-06

>  <r_epik_Ionization_Penalty_Charging>  (360) 
0

>  <r_epik_Ionization_Penalty_Neutral>  (360) 
1.36108e-06

>  <r_epik_State_Penalty>  (360) 
-0

>  <r_epik_Charging_Adjusted_Penalty>  (360) 
0

>  <i_epik_Tot_Q>  (360) 
0

>  <i_epik_Tot_abs_Q>  (360) 
0

>  <s_lp_Force_Field>  (360) 
OPLS3e

>  <r_lp_Energy>  (360) 
11.5976

>  <b_lp_Chiralities_Consistent>  (360) 
1

>  <s_lp_Variant>  (360) 
85:0-1

>  <s_i_glide_gridfile>  (360) 
pfpi4k_grid

>  <i_i_glide_lignum>  (360) 
5

>  <i_i_glide_rotatable_bonds>  (360) 
0

>  <r_i_docking_score>  (360) 
-3.5656

>  <r_i_glide_ligand_efficiency>  (360) 
-0.324145

>  <r_i_glide_ligand_efficiency_sa>  (360) 
-0.720892

>  <r_i_glide_ligand_efficiency_ln>  (360) 
-1.04935

>  <r_i_glide_gscore>  (360) 
-3.5656

>  <r_i_glide_lipo>  (360) 
0

>  <r_i_glide_hbond>  (360) 
-0.0557129

>  <r_i_glide_metal>  (360) 
-0

>  <r_i_glide_rewards>  (360) 
-2.25

>  <r_i_glide_evdw>  (360) 
-14.612

>  <r_i_glide_ecoul>  (360) 
-2.97568

>  <r_i_glide_erotb>  (360) 
0

>  <r_i_glide_esite>  (360) 
-0.0829294

>  <r_i_glide_emodel>  (360) 
-23.3483

>  <r_i_glide_energy>  (360) 
-17.5877

>  <r_i_glide_einternal>  (360) 
0

>  <r_i_glide_intrahb_reward>  (360) 
-0

>  <i_i_glide_confnum>  (360) 
2

>  <i_i_glide_posenum>  (360) 
3

>  <r_i_glide_eff_state_penalty>  (360) 
0

>  <ligand_id>  (360) 
85

>  <original_smiles>  (360) 
Cc1cc(C)n2ncnc2n1

>  <smiles>  (360) 
[H]c1nc2nc(C([H])([H])[H])c([H])c(C([H])([H])[H])n2n1

$$$$
86:0:0
     RDKit          3D

 28 31  0  0  1  0  0  0  0  0999 V2000
    3.0060   -7.2638    2.0010 C   0  0  0  0  0  0  0  0  0  0  0  0
    2.8597   -6.1544    1.0231 C   0  0  0  0  0  0  0  0  0  0  0  0
    1.6719   -5.8348    0.5297 N   0  0  0  0  0  0  0  0  0  0  0  0
    1.9665   -4.7585   -0.3246 O   0  0  0  0  0  0  0  0  0  0  0  0
    3.3174   -4.6026   -0.2922 C   0  0  0  0  0  0  0  0  0  0  0  0
    3.9472   -3.5144   -1.1093 C   0  0  2  0  0  0  0  0  0  0  0  0
    3.9518   -2.0959   -0.5457 C   0  0  0  0  0  0  0  0  0  0  0  0
    4.4378   -1.5259   -1.8839 C   0  0  2  0  0  0  0  0  0  0  0  0
    3.1910   -1.8283   -2.7150 C   0  0  0  0  0  0  0  0  0  0  0  0
    3.4184   -3.3274   -2.5969 C   0  0  1  0  0  0  0  0  0  0  0  0
    4.6838   -3.4051   -3.4420 C   0  0  0  0  0  0  0  0  0  0  0  0
    5.4742   -2.6092   -2.3998 C   0  0  2  0  0  0  0  0  0  0  0  0
    5.4606   -3.6558   -1.2962 C   0  0  0  0  0  0  0  0  0  0  0  0
    3.9142   -5.4137    0.5827 N   0  0  0  0  0  0  0  0  0  0  0  0
    2.0360   -7.6957    2.2403 H   0  0  0  0  0  0  0  0  0  0  0  0
    3.4497   -6.8872    2.9218 H   0  0  0  0  0  0  0  0  0  0  0  0
    3.6345   -8.0470    1.5780 H   0  0  0  0  0  0  0  0  0  0  0  0
    2.9725   -1.7413   -0.2321 H   0  0  0  0  0  0  0  0  0  0  0  0
    4.6427   -1.9378    0.2822 H   0  0  0  0  0  0  0  0  0  0  0  0
    4.7512   -0.4802   -1.8766 H   0  0  0  0  0  0  0  0  0  0  0  0
    2.2392   -1.5187   -2.2887 H   0  0  0  0  0  0  0  0  0  0  0  0
    3.2182   -1.4404   -3.7350 H   0  0  0  0  0  0  0  0  0  0  0  0
    2.5556   -3.8936   -2.9315 H   0  0  0  0  0  0  0  0  0  0  0  0
    5.0315   -4.4248   -3.6104 H   0  0  0  0  0  0  0  0  0  0  0  0
    4.6076   -2.9154   -4.4100 H   0  0  0  0  0  0  0  0  0  0  0  0
    6.4612   -2.2658   -2.7056 H   0  0  0  0  0  0  0  0  0  0  0  0
    6.0563   -3.3874   -0.4226 H   0  0  0  0  0  0  0  0  0  0  0  0
    5.7673   -4.6497   -1.6091 H   0  0  0  0  0  0  0  0  0  0  0  0
  1  2  1  0
  1 15  1  0
  1 16  1  0
  1 17  1  0
  2 14  1  0
  2  3  2  0
  3  4  1  0
  4  5  1  0
  6  5  1  1
  5 14  2  0
  6 10  1  0
  6 13  1  0
  6  7  1  0
  7  8  1  0
  7 18  1  0
  7 19  1  0
  8 12  1  0
  8  9  1  0
  8 20  1  1
  9 10  1  0
  9 21  1  0
  9 22  1  0
 10 11  1  0
 10 23  1  6
 11 12  1  0
 11 24  1  0
 11 25  1  0
 12 13  1  0
 12 26  1  6
 13 27  1  0
 13 28  1  0
M  END
>  <i_m_ct_stereo_status>  (361) 
1

>  <s_m_source_file>  (361) 
/var/tmp/pbs.5076255.sched01/tmp277fsmq3/144xeprw1xa.sdf

>  <i_m_source_file_index>  (361) 
6

>  <i_lp_mmshare_version>  (361) 
48012

>  <i_f3d_flags>  (361) 
0

>  <s_epik_input>  (361) 
W0NIM11jMW5vYyhuMSlbQ0BAXTIzW0NASF00W0NIMl1bQ0BASF0oW0NIMl0yKVtDQEhdKFtDSDJdNClbQ0gyXTM=

>  <s_epik_cmdline>  (361) 
J2VwaWtfcHl0aG9uJywgJy1waHQnLCAnMi4wJywgJy1waCcsICc3LjAnLCAnLXRuJywgJzgnLCAnLW1hJywgJzIwMCcsICctaW1hZScsICc8aW5maWxlLm1hZT4nLCAnLW9tYWUnLCAnPG91dGZpbGUubWFlPic=

>  <r_lp_tautomer_probability>  (361) 
1

>  <r_epik_Ionization_Penalty>  (361) 
3.21737e-10

>  <r_epik_Ionization_Penalty_Charging>  (361) 
0

>  <r_epik_Ionization_Penalty_Neutral>  (361) 
3.21737e-10

>  <r_epik_State_Penalty>  (361) 
-0

>  <r_epik_Charging_Adjusted_Penalty>  (361) 
0

>  <i_epik_Tot_Q>  (361) 
0

>  <i_epik_Tot_abs_Q>  (361) 
0

>  <s_lp_Force_Field>  (361) 
OPLS3e

>  <r_lp_Energy>  (361) 
67.9924

>  <b_lp_Chiralities_Consistent>  (361) 
1

>  <s_lp_Variant>  (361) 
86:0-1

>  <s_i_glide_gridfile>  (361) 
pfpi4k_grid

>  <i_i_glide_lignum>  (361) 
6

>  <i_i_glide_rotatable_bonds>  (361) 
1

>  <r_i_docking_score>  (361) 
-3.38172

>  <r_i_glide_ligand_efficiency>  (361) 
-0.241552

>  <r_i_glide_ligand_efficiency_sa>  (361) 
-0.582174

>  <r_i_glide_ligand_efficiency_ln>  (361) 
-0.929285

>  <r_i_glide_gscore>  (361) 
-3.38172

>  <r_i_glide_lipo>  (361) 
-0.383002

>  <r_i_glide_hbond>  (361) 
0

>  <r_i_glide_metal>  (361) 
-0

>  <r_i_glide_rewards>  (361) 
-2.11199

>  <r_i_glide_evdw>  (361) 
-13.2223

>  <r_i_glide_ecoul>  (361) 
-3.29133

>  <r_i_glide_erotb>  (361) 
0.443712

>  <r_i_glide_esite>  (361) 
-0.175629

>  <r_i_glide_emodel>  (361) 
-20.1157

>  <r_i_glide_energy>  (361) 
-16.5137

>  <r_i_glide_einternal>  (361) 
0.393743

>  <r_i_glide_intrahb_reward>  (361) 
-0

>  <i_i_glide_confnum>  (361) 
3

>  <i_i_glide_posenum>  (361) 
35

>  <r_i_glide_eff_state_penalty>  (361) 
0

>  <ligand_id>  (361) 
86

>  <original_smiles>  (361) 
Cc1noc(C23CC4CC2CC4C3)n1

>  <smiles>  (361) 
[H]C([H])([H])c1noc(C23C([H])([H])C4([H])C([H])([H])C2([H])C([H])([H])C4([H])C3([H])[H])n1

$$$$
86:0:1
     RDKit          3D

 28 31  0  0  1  0  0  0  0  0999 V2000
    2.5619   -4.3433   -0.3283 C   0  0  0  0  0  0  0  0  0  0  0  0
    2.5232   -5.4975    0.6101 C   0  0  0  0  0  0  0  0  0  0  0  0
    3.5964   -6.2342    0.8743 N   0  0  0  0  0  0  0  0  0  0  0  0
    3.1164   -7.1863    1.7888 O   0  0  0  0  0  0  0  0  0  0  0  0
    1.8018   -6.9046    1.9624 C   0  0  0  0  0  0  0  0  0  0  0  0
    0.9936   -7.7411    2.9079 C   0  0  2  0  0  0  0  0  0  0  0  0
    1.3522   -7.6617    4.3933 C   0  0  0  0  0  0  0  0  0  0  0  0
    0.4634   -8.8679    4.7096 C   0  0  2  0  0  0  0  0  0  0  0  0
    1.2749   -9.9241    3.9598 C   0  0  0  0  0  0  0  0  0  0  0  0
    0.9340   -9.2906    2.6098 C   0  0  1  0  0  0  0  0  0  0  0  0
   -0.5591   -9.5992    2.6132 C   0  0  0  0  0  0  0  0  0  0  0  0
   -0.8016   -8.6503    3.7856 C   0  0  2  0  0  0  0  0  0  0  0  0
   -0.4833   -7.3505    3.0528 C   0  0  0  0  0  0  0  0  0  0  0  0
    1.3774   -5.8614    1.2517 N   0  0  0  0  0  0  0  0  0  0  0  0
    3.5489   -4.2248   -0.7724 H   0  0  0  0  0  0  0  0  0  0  0  0
    2.3040   -3.4231    0.1954 H   0  0  0  0  0  0  0  0  0  0  0  0
    1.8435   -4.4992   -1.1329 H   0  0  0  0  0  0  0  0  0  0  0  0
    2.4122   -7.8176    4.6023 H   0  0  0  0  0  0  0  0  0  0  0  0
    1.0501   -6.7427    4.8991 H   0  0  0  0  0  0  0  0  0  0  0  0
    0.2838   -9.0721    5.7660 H   0  0  0  0  0  0  0  0  0  0  0  0
    2.3426   -9.9296    4.1867 H   0  0  0  0  0  0  0  0  0  0  0  0
    0.9065  -10.9430    4.1016 H   0  0  0  0  0  0  0  0  0  0  0  0
    1.4951   -9.6686    1.7536 H   0  0  0  0  0  0  0  0  0  0  0  0
   -1.0733   -9.3350    1.6866 H   0  0  0  0  0  0  0  0  0  0  0  0
   -0.7873  -10.6393    2.8322 H   0  0  0  0  0  0  0  0  0  0  0  0
   -1.7853   -8.7101    4.2540 H   0  0  0  0  0  0  0  0  0  0  0  0
   -0.6682   -6.4533    3.6462 H   0  0  0  0  0  0  0  0  0  0  0  0
   -1.0071   -7.2339    2.1022 H   0  0  0  0  0  0  0  0  0  0  0  0
  1  2  1  0
  1 15  1  0
  1 16  1  0
  1 17  1  0
  2 14  1  0
  2  3  2  0
  3  4  1  0
  4  5  1  0
  6  5  1  6
  5 14  2  0
  6 10  1  0
  6 13  1  0
  6  7  1  0
  7  8  1  0
  7 18  1  0
  7 19  1  0
  8 12  1  0
  8  9  1  0
  8 20  1  1
  9 10  1  0
  9 21  1  0
  9 22  1  0
 10 11  1  0
 10 23  1  6
 11 12  1  0
 11 24  1  0
 11 25  1  0
 12 13  1  0
 12 26  1  1
 13 27  1  0
 13 28  1  0
M  END
>  <i_m_ct_stereo_status>  (362) 
1

>  <s_m_source_file>  (362) 
/var/tmp/pbs.5076255.sched01/tmp277fsmq3/144xeprw1xa.sdf

>  <i_m_source_file_index>  (362) 
6

>  <i_lp_mmshare_version>  (362) 
48012

>  <i_f3d_flags>  (362) 
0

>  <s_epik_input>  (362) 
W0NIM11jMW5vYyhuMSlbQ0BAXTIzW0NASF00W0NIMl1bQ0BASF0oW0NIMl0yKVtDQEhdKFtDSDJdNClbQ0gyXTM=

>  <s_epik_cmdline>  (362) 
J2VwaWtfcHl0aG9uJywgJy1waHQnLCAnMi4wJywgJy1waCcsICc3LjAnLCAnLXRuJywgJzgnLCAnLW1hJywgJzIwMCcsICctaW1hZScsICc8aW5maWxlLm1hZT4nLCAnLW9tYWUnLCAnPG91dGZpbGUubWFlPic=

>  <r_lp_tautomer_probability>  (362) 
1

>  <r_epik_Ionization_Penalty>  (362) 
3.21737e-10

>  <r_epik_Ionization_Penalty_Charging>  (362) 
0

>  <r_epik_Ionization_Penalty_Neutral>  (362) 
3.21737e-10

>  <r_epik_State_Penalty>  (362) 
-0

>  <r_epik_Charging_Adjusted_Penalty>  (362) 
0

>  <i_epik_Tot_Q>  (362) 
0

>  <i_epik_Tot_abs_Q>  (362) 
0

>  <s_lp_Force_Field>  (362) 
OPLS3e

>  <r_lp_Energy>  (362) 
67.9924

>  <b_lp_Chiralities_Consistent>  (362) 
1

>  <s_lp_Variant>  (362) 
86:0-1

>  <s_i_glide_gridfile>  (362) 
pfpi4k_grid

>  <i_i_glide_lignum>  (362) 
6

>  <i_i_glide_rotatable_bonds>  (362) 
1

>  <r_i_docking_score>  (362) 
-3.17965

>  <r_i_glide_ligand_efficiency>  (362) 
-0.227118

>  <r_i_glide_ligand_efficiency_sa>  (362) 
-0.547386

>  <r_i_glide_ligand_efficiency_ln>  (362) 
-0.873756

>  <r_i_glide_gscore>  (362) 
-3.17965

>  <r_i_glide_lipo>  (362) 
-0.0632746

>  <r_i_glide_hbond>  (362) 
-0.145554

>  <r_i_glide_metal>  (362) 
-0

>  <r_i_glide_rewards>  (362) 
-2.11199

>  <r_i_glide_evdw>  (362) 
-13.6833

>  <r_i_glide_ecoul>  (362) 
-3.84278

>  <r_i_glide_erotb>  (362) 
0.443712

>  <r_i_glide_esite>  (362) 
-0.0419576

>  <r_i_glide_emodel>  (362) 
-21.1848

>  <r_i_glide_energy>  (362) 
-17.5261

>  <r_i_glide_einternal>  (362) 
0.0623415

>  <r_i_glide_intrahb_reward>  (362) 
-0

>  <i_i_glide_confnum>  (362) 
1

>  <i_i_glide_posenum>  (362) 
10

>  <r_i_glide_eff_state_penalty>  (362) 
0

>  <ligand_id>  (362) 
86

>  <original_smiles>  (362) 
Cc1noc(C23CC4CC2CC4C3)n1

>  <smiles>  (362) 
[H]C([H])([H])c1noc(C23C([H])([H])C4([H])C([H])([H])C2([H])C([H])([H])C4([H])C3([H])[H])n1

$$$$
86:0:2
     RDKit          3D

 28 31  0  0  1  0  0  0  0  0999 V2000
    4.2766   -5.2643    0.1449 C   0  0  0  0  0  0  0  0  0  0  0  0
    3.0119   -5.8074    0.7092 C   0  0  0  0  0  0  0  0  0  0  0  0
    1.8284   -5.5687    0.1506 N   0  0  0  0  0  0  0  0  0  0  0  0
    0.9383   -6.2713    0.9737 O   0  0  0  0  0  0  0  0  0  0  0  0
    1.6883   -6.7794    1.9859 C   0  0  0  0  0  0  0  0  0  0  0  0
    1.0177   -7.6210    3.0262 C   0  0  2  0  0  0  0  0  0  0  0  0
    1.7345   -7.7318    4.3750 C   0  0  0  0  0  0  0  0  0  0  0  0
    0.7862   -8.8377    4.8374 C   0  0  2  0  0  0  0  0  0  0  0  0
    1.2319   -9.9140    3.8485 C   0  0  0  0  0  0  0  0  0  0  0  0
    0.6774   -9.1214    2.6668 C   0  0  1  0  0  0  0  0  0  0  0  0
   -0.8014   -9.2442    3.0246 C   0  0  0  0  0  0  0  0  0  0  0  0
   -0.6171   -8.3790    4.2735 C   0  0  2  0  0  0  0  0  0  0  0  0
   -0.3012   -7.0630    3.5670 C   0  0  0  0  0  0  0  0  0  0  0  0
    2.9944   -6.5735    1.8332 N   0  0  0  0  0  0  0  0  0  0  0  0
    4.0880   -4.6743   -0.7481 H   0  0  0  0  0  0  0  0  0  0  0  0
    4.9451   -6.0802   -0.1238 H   0  0  0  0  0  0  0  0  0  0  0  0
    4.7654   -4.6248    0.8787 H   0  0  0  0  0  0  0  0  0  0  0  0
    2.7782   -8.0425    4.2957 H   0  0  0  0  0  0  0  0  0  0  0  0
    1.7077   -6.8295    4.9881 H   0  0  0  0  0  0  0  0  0  0  0  0
    0.8438   -9.1075    5.8932 H   0  0  0  0  0  0  0  0  0  0  0  0
    2.3096  -10.0811    3.8055 H   0  0  0  0  0  0  0  0  0  0  0  0
    0.7600  -10.8837    4.0221 H   0  0  0  0  0  0  0  0  0  0  0  0
    0.9713   -9.4934    1.6850 H   0  0  0  0  0  0  0  0  0  0  0  0
   -1.4767   -8.8292    2.2739 H   0  0  0  0  0  0  0  0  0  0  0  0
   -1.1355  -10.2522    3.2507 H   0  0  0  0  0  0  0  0  0  0  0  0
   -1.4565   -8.3620    4.9696 H   0  0  0  0  0  0  0  0  0  0  0  0
   -0.1969   -6.2027    4.2321 H   0  0  0  0  0  0  0  0  0  0  0  0
   -1.0203   -6.8021    2.7897 H   0  0  0  0  0  0  0  0  0  0  0  0
  1  2  1  0
  1 15  1  0
  1 16  1  0
  1 17  1  0
  2 14  1  0
  2  3  2  0
  3  4  1  0
  4  5  1  0
  6  5  1  6
  5 14  2  0
  6 10  1  0
  6 13  1  0
  6  7  1  0
  7  8  1  0
  7 18  1  0
  7 19  1  0
  8 12  1  0
  8  9  1  0
  8 20  1  1
  9 10  1  0
  9 21  1  0
  9 22  1  0
 10 11  1  0
 10 23  1  6
 11 12  1  0
 11 24  1  0
 11 25  1  0
 12 13  1  0
 12 26  1  1
 13 27  1  0
 13 28  1  0
M  END
>  <i_m_ct_stereo_status>  (363) 
1

>  <s_m_source_file>  (363) 
/var/tmp/pbs.5076255.sched01/tmp277fsmq3/144xeprw1xa.sdf

>  <i_m_source_file_index>  (363) 
6

>  <i_lp_mmshare_version>  (363) 
48012

>  <i_f3d_flags>  (363) 
0

>  <s_epik_input>  (363) 
W0NIM11jMW5vYyhuMSlbQ0BAXTIzW0NASF00W0NIMl1bQ0BASF0oW0NIMl0yKVtDQEhdKFtDSDJdNClbQ0gyXTM=

>  <s_epik_cmdline>  (363) 
J2VwaWtfcHl0aG9uJywgJy1waHQnLCAnMi4wJywgJy1waCcsICc3LjAnLCAnLXRuJywgJzgnLCAnLW1hJywgJzIwMCcsICctaW1hZScsICc8aW5maWxlLm1hZT4nLCAnLW9tYWUnLCAnPG91dGZpbGUubWFlPic=

>  <r_lp_tautomer_probability>  (363) 
1

>  <r_epik_Ionization_Penalty>  (363) 
3.21737e-10

>  <r_epik_Ionization_Penalty_Charging>  (363) 
0

>  <r_epik_Ionization_Penalty_Neutral>  (363) 
3.21737e-10

>  <r_epik_State_Penalty>  (363) 
-0

>  <r_epik_Charging_Adjusted_Penalty>  (363) 
0

>  <i_epik_Tot_Q>  (363) 
0

>  <i_epik_Tot_abs_Q>  (363) 
0

>  <s_lp_Force_Field>  (363) 
OPLS3e

>  <r_lp_Energy>  (363) 
67.9924

>  <b_lp_Chiralities_Consistent>  (363) 
1

>  <s_lp_Variant>  (363) 
86:0-1

>  <s_i_glide_gridfile>  (363) 
pfpi4k_grid

>  <i_i_glide_lignum>  (363) 
6

>  <i_i_glide_rotatable_bonds>  (363) 
1

>  <r_i_docking_score>  (363) 
-2.95477

>  <r_i_glide_ligand_efficiency>  (363) 
-0.211055

>  <r_i_glide_ligand_efficiency_sa>  (363) 
-0.508672

>  <r_i_glide_ligand_efficiency_ln>  (363) 
-0.81196

>  <r_i_glide_gscore>  (363) 
-2.95477

>  <r_i_glide_lipo>  (363) 
0

>  <r_i_glide_hbond>  (363) 
0

>  <r_i_glide_metal>  (363) 
-0

>  <r_i_glide_rewards>  (363) 
-2.11199

>  <r_i_glide_evdw>  (363) 
-13.9375

>  <r_i_glide_ecoul>  (363) 
-2.53411

>  <r_i_glide_erotb>  (363) 
0.443712

>  <r_i_glide_esite>  (363) 
-0.209499

>  <r_i_glide_emodel>  (363) 
-19.7437

>  <r_i_glide_energy>  (363) 
-16.4716

>  <r_i_glide_einternal>  (363) 
0.260781

>  <r_i_glide_intrahb_reward>  (363) 
-0

>  <i_i_glide_confnum>  (363) 
4

>  <i_i_glide_posenum>  (363) 
5

>  <r_i_glide_eff_state_penalty>  (363) 
0

>  <ligand_id>  (363) 
86

>  <original_smiles>  (363) 
Cc1noc(C23CC4CC2CC4C3)n1

>  <smiles>  (363) 
[H]C([H])([H])c1noc(C23C([H])([H])C4([H])C([H])([H])C2([H])C([H])([H])C4([H])C3([H])[H])n1

$$$$
87:0:0
     RDKit          3D

103110  0  0  1  0  0  0  0  0999 V2000
    2.6959   -6.5458    4.0243 C   0  0  0  0  0  0  0  0  0  0  0  0
    2.3487   -5.8445    2.7099 C   0  0  0  0  0  0  0  0  0  0  0  0
    1.3382   -6.1353    2.0749 O   0  0  0  0  0  0  0  0  0  0  0  0
    3.2772   -4.9428    2.3590 O   0  0  0  0  0  0  0  0  0  0  0  0
    3.1469   -4.1484    1.1750 C   0  0  2  0  0  0  0  0  0  0  0  0
    4.2191   -4.6751    0.1744 C   0  0  0  0  0  0  0  0  0  0  0  0
    5.1923   -3.5822   -0.3165 C   0  0  1  0  0  0  0  0  0  0  0  0
    4.5396   -2.3019   -0.8284 C   0  0  1  0  0  0  0  0  0  0  0  0
    3.3342   -2.5285   -1.5423 O   0  0  0  0  0  0  0  0  0  0  0  0
    3.3586   -2.8262   -2.8519 C   0  0  0  0  0  0  0  0  0  0  0  0
    1.9585   -3.1443   -3.3552 C   0  0  0  0  0  0  0  0  0  0  0  0
    4.3313   -2.8498   -3.5899 O   0  0  0  0  0  0  0  0  0  0  0  0
    4.4265   -1.9180    0.6711 C   0  0  1  0  0  0  0  0  0  0  0  0
    4.4556   -0.4094    0.9482 C   0  0  0  0  0  0  0  0  0  0  0  0
    4.4950   -0.0581    2.4366 C   0  0  0  0  0  0  0  0  0  0  0  0
    3.8150   -1.0819    3.3716 C   0  0  1  0  0  0  0  0  0  0  0  0
    3.6526   -0.6541    4.8856 C   0  0  1  0  0  0  0  0  0  0  0  0
    4.3530    0.6789    5.2361 C   0  0  0  0  0  0  0  0  0  0  0  0
    4.3279    0.9544    6.7383 C   0  0  0  0  0  0  0  0  0  0  0  0
    2.9150    1.0022    7.3577 C   0  0  1  0  0  0  0  0  0  0  0  0
    3.1134    1.2412    8.8837 C   0  0  0  0  0  0  0  0  0  0  0  0
    1.9946    2.1001    6.7800 C   0  0  2  0  0  0  0  0  0  0  0  0
    2.1470    3.5869    7.0690 C   0  0  1  0  0  0  0  0  0  0  0  0
    3.4201    4.0995    6.7512 O   0  0  0  0  0  0  0  0  0  0  0  0
    1.0906    4.3245    6.2279 C   0  0  1  0  0  0  0  0  0  0  0  0
    1.3391    4.2752    4.8367 O   0  0  0  0  0  0  0  0  0  0  0  0
    0.0918    4.2806    4.2132 C   0  0  0  0  0  0  0  0  0  0  0  0
   -0.0865    5.6104    3.4723 C   0  0  0  0  0  0  0  0  0  0  0  0
    0.0220    3.0565    3.2879 C   0  0  0  0  0  0  0  0  0  0  0  0
   -0.9041    4.1856    5.1886 O   0  0  0  0  0  0  0  0  0  0  0  0
   -0.3150    3.6971    6.3366 C   0  0  1  0  0  0  0  0  0  0  0  0
   -0.3040    2.2841    6.3081 O   0  0  0  0  0  0  0  0  0  0  0  0
    0.6010    1.7154    7.2517 C   0  0  1  0  0  0  0  0  0  0  0  0
    0.6327    0.1841    7.3888 C   0  0  1  0  0  0  0  0  0  0  0  0
   -0.4742   -0.4431    6.7905 O   0  0  0  0  0  0  0  0  0  0  0  0
    2.0743   -0.2969    7.0019 C   0  0  2  0  0  0  0  0  0  0  0  0
    2.4935   -1.4961    7.9014 C   0  0  0  0  0  0  0  0  0  0  0  0
    2.2051   -0.6648    5.4605 C   0  0  2  0  0  0  0  0  0  0  0  0
    1.4883   -1.9765    5.0525 C   0  0  0  0  0  0  0  0  0  0  0  0
    2.0071   -2.7018    3.7792 C   0  0  1  0  0  0  0  0  0  0  0  0
    0.9463   -3.4527    3.2567 O   0  0  0  0  0  0  0  0  0  0  0  0
    2.6217   -1.8042    2.6755 C   0  0  1  0  0  0  0  0  0  0  0  0
    1.4885   -0.8155    2.2066 C   0  0  0  0  0  0  0  0  0  0  0  0
    3.1650   -2.5725    1.3676 C   0  0  2  0  0  0  0  0  0  0  0  0
    5.7964   -2.6847    0.7671 C   0  0  0  0  0  0  0  0  0  0  0  0
    6.1816   -3.3394    2.0676 C   0  0  0  0  0  0  0  0  0  0  0  0
    7.0963   -1.9316    0.3665 C   0  0  0  0  0  0  0  0  0  0  0  0
    2.8577   -5.7956    4.7995 H   0  0  0  0  0  0  0  0  0  0  0  0
    3.6087   -7.1501    3.9363 H   0  0  0  0  0  0  0  0  0  0  0  0
    1.8835   -7.1972    4.3558 H   0  0  0  0  0  0  0  0  0  0  0  0
    2.1853   -4.3678    0.7051 H   0  0  0  0  0  0  0  0  0  0  0  0
    4.7946   -5.4909    0.6244 H   0  0  0  0  0  0  0  0  0  0  0  0
    3.7212   -5.1188   -0.6852 H   0  0  0  0  0  0  0  0  0  0  0  0
    5.9313   -3.9539   -1.0133 H   0  0  0  0  0  0  0  0  0  0  0  0
    5.2277   -1.6702   -1.3914 H   0  0  0  0  0  0  0  0  0  0  0  0
    1.3471   -2.2618   -3.2865 H   0  0  0  0  0  0  0  0  0  0  0  0
    1.4994   -3.8930   -2.7106 H   0  0  0  0  0  0  0  0  0  0  0  0
    1.9544   -3.4713   -4.3936 H   0  0  0  0  0  0  0  0  0  0  0  0
    5.3156    0.0505    0.4639 H   0  0  0  0  0  0  0  0  0  0  0  0
    3.6065    0.0631    0.4691 H   0  0  0  0  0  0  0  0  0  0  0  0
    5.5402    0.0191    2.7220 H   0  0  0  0  0  0  0  0  0  0  0  0
    4.0433    0.9282    2.5597 H   0  0  0  0  0  0  0  0  0  0  0  0
    4.5616   -1.8729    3.4606 H   0  0  0  0  0  0  0  0  0  0  0  0
    4.1838   -1.4244    5.4465 H   0  0  0  0  0  0  0  0  0  0  0  0
    5.3987    0.6530    4.9143 H   0  0  0  0  0  0  0  0  0  0  0  0
    3.8806    1.5064    4.7044 H   0  0  0  0  0  0  0  0  0  0  0  0
    4.8922    0.1642    7.2194 H   0  0  0  0  0  0  0  0  0  0  0  0
    4.8644    1.8824    6.9513 H   0  0  0  0  0  0  0  0  0  0  0  0
    2.1869    1.2103    9.4591 H   0  0  0  0  0  0  0  0  0  0  0  0
    3.5645    2.2164    9.0634 H   0  0  0  0  0  0  0  0  0  0  0  0
    3.7905    0.5108    9.3261 H   0  0  0  0  0  0  0  0  0  0  0  0
    2.0220    2.0157    5.6999 H   0  0  0  0  0  0  0  0  0  0  0  0
    1.9726    3.7853    8.1299 H   0  0  0  0  0  0  0  0  0  0  0  0
    3.5501    3.9775    5.8151 H   0  0  0  0  0  0  0  0  0  0  0  0
    1.0199    5.3694    6.5046 H   0  0  0  0  0  0  0  0  0  0  0  0
   -0.0426    6.4472    4.1690 H   0  0  0  0  0  0  0  0  0  0  0  0
   -1.0456    5.6113    2.9567 H   0  0  0  0  0  0  0  0  0  0  0  0
    0.6976    5.7302    2.7335 H   0  0  0  0  0  0  0  0  0  0  0  0
    0.1831    2.1317    3.8448 H   0  0  0  0  0  0  0  0  0  0  0  0
    0.7928    3.1339    2.5290 H   0  0  0  0  0  0  0  0  0  0  0  0
   -0.9506    3.0140    2.8062 H   0  0  0  0  0  0  0  0  0  0  0  0
   -0.8662    4.0402    7.2127 H   0  0  0  0  0  0  0  0  0  0  0  0
    0.3749    2.1267    8.2440 H   0  0  0  0  0  0  0  0  0  0  0  0
    0.4983   -0.0261    8.4558 H   0  0  0  0  0  0  0  0  0  0  0  0
   -0.4134   -0.2865    5.8496 H   0  0  0  0  0  0  0  0  0  0  0  0
    1.8058   -2.3373    7.8308 H   0  0  0  0  0  0  0  0  0  0  0  0
    2.4751   -1.2492    8.9603 H   0  0  0  0  0  0  0  0  0  0  0  0
    3.4936   -1.8537    7.6681 H   0  0  0  0  0  0  0  0  0  0  0  0
    1.6654    0.1168    4.9236 H   0  0  0  0  0  0  0  0  0  0  0  0
    1.4919   -2.7255    5.8462 H   0  0  0  0  0  0  0  0  0  0  0  0
    0.4494   -1.7347    4.8922 H   0  0  0  0  0  0  0  0  0  0  0  0
    2.7975   -3.3653    4.1277 H   0  0  0  0  0  0  0  0  0  0  0  0
    0.3209   -2.7875    2.9100 H   0  0  0  0  0  0  0  0  0  0  0  0
    0.6825   -1.3599    1.7116 H   0  0  0  0  0  0  0  0  0  0  0  0
    1.8046   -0.0755    1.4782 H   0  0  0  0  0  0  0  0  0  0  0  0
    1.0051   -0.2609    3.0039 H   0  0  0  0  0  0  0  0  0  0  0  0
    2.3691   -2.3345    0.6636 H   0  0  0  0  0  0  0  0  0  0  0  0
    6.5408   -2.5490    2.7099 H   0  0  0  0  0  0  0  0  0  0  0  0
    6.9460   -4.1037    1.9279 H   0  0  0  0  0  0  0  0  0  0  0  0
    5.3521   -3.7911    2.5817 H   0  0  0  0  0  0  0  0  0  0  0  0
    7.3515   -1.1777    1.1097 H   0  0  0  0  0  0  0  0  0  0  0  0
    7.0283   -1.4196   -0.5854 H   0  0  0  0  0  0  0  0  0  0  0  0
    7.9485   -2.6099    0.2915 H   0  0  0  0  0  0  0  0  0  0  0  0
  1  2  1  0
  1 48  1  0
  1 49  1  0
  1 50  1  0
  2  3  2  0
  2  4  1  0
  4  5  1  0
  5 44  1  0
  5  6  1  0
  5 51  1  6
  6  7  1  0
  6 52  1  0
  6 53  1  0
  7 45  1  0
  7  8  1  0
  7 54  1  6
  8  9  1  0
  8 13  1  0
  8 55  1  6
  9 10  1  0
 10 11  1  0
 10 12  2  0
 11 56  1  0
 11 57  1  0
 11 58  1  0
 13 44  1  0
 13 14  1  6
 13 45  1  0
 14 15  1  0
 14 59  1  0
 14 60  1  0
 15 16  1  0
 15 61  1  0
 15 62  1  0
 16 42  1  0
 16 17  1  0
 16 63  1  1
 17 38  1  0
 17 18  1  0
 17 64  1  1
 18 19  1  0
 18 65  1  0
 18 66  1  0
 19 20  1  0
 19 67  1  0
 19 68  1  0
 20 36  1  0
 20 21  1  1
 20 22  1  0
 21 69  1  0
 21 70  1  0
 21 71  1  0
 22 33  1  0
 22 23  1  0
 22 72  1  6
 23 24  1  0
 23 25  1  0
 23 73  1  1
 24 74  1  0
 25 31  1  0
 25 26  1  0
 25 75  1  1
 26 27  1  0
 27 28  1  0
 27 29  1  0
 27 30  1  0
 28 76  1  0
 28 77  1  0
 28 78  1  0
 29 79  1  0
 29 80  1  0
 29 81  1  0
 30 31  1  0
 31 32  1  0
 31 82  1  1
 32 33  1  0
 33 34  1  0
 33 83  1  1
 34 35  1  0
 34 36  1  0
 34 84  1  1
 35 85  1  0
 36 37  1  1
 36 38  1  0
 37 86  1  0
 37 87  1  0
 37 88  1  0
 38 39  1  0
 38 89  1  6
 39 40  1  0
 39 90  1  0
 39 91  1  0
 40 41  1  0
 40 42  1  0
 40 92  1  1
 41 93  1  0
 42 43  1  6
 42 44  1  0
 43 94  1  0
 43 95  1  0
 43 96  1  0
 44 97  1  6
 45 46  1  0
 45 47  1  0
 46 98  1  0
 46 99  1  0
 46100  1  0
 47101  1  0
 47102  1  0
 47103  1  0
M  END
>  <i_m_ct_stereo_status>  (364) 
1

>  <s_m_source_file>  (364) 
/var/tmp/pbs.5076255.sched01/tmp277fsmq3/144xeprw1xa.sdf

>  <i_m_source_file_index>  (364) 
7

>  <i_lp_mmshare_version>  (364) 
48012

>  <i_f3d_flags>  (364) 
0

>  <s_epik_input>  (364) 
W0NIM11DKD1PKU9bQ0BASF0xW0NAQEhdKEMyKFtDSDNdKVtDSDNdKVtDSDJdW0NAQEhdKE9DKD1PKVtDSDNdKVtDQEhdKFtDQF0xMjMpW0NAXTQoW0NIM10pW0NAQEhdKFtDSDJdW0NIMl0zKVtDQEBIXTVbQ0BASF0oW0NIMl1bQ0BIXTRbT0hdKVtDQEBdNihbQ0gzXSlbQ0BAXShbQ0gzXSkoW0NIMl1bQ0gyXTUpW0NASF03W0NASF0oW0NASF02W09IXSlPW0NASF04W0NAQEhdKFtDQEBIXTdbT0hdKU9DKE84KShbQ0gzXSlbQ0gzXQ==

>  <s_epik_cmdline>  (364) 
J2VwaWtfcHl0aG9uJywgJy1waHQnLCAnMi4wJywgJy1waCcsICc3LjAnLCAnLXRuJywgJzgnLCAnLW1hJywgJzIwMCcsICctaW1hZScsICc8aW5maWxlLm1hZT4nLCAnLW9tYWUnLCAnPG91dGZpbGUubWFlPic=

>  <r_lp_tautomer_probability>  (364) 
1

>  <r_epik_Ionization_Penalty>  (364) 
1.73659e-06

>  <r_epik_Ionization_Penalty_Charging>  (364) 
0

>  <r_epik_Ionization_Penalty_Neutral>  (364) 
1.73659e-06

>  <r_epik_State_Penalty>  (364) 
-0

>  <r_epik_Charging_Adjusted_Penalty>  (364) 
0

>  <i_epik_Tot_Q>  (364) 
0

>  <i_epik_Tot_abs_Q>  (364) 
0

>  <s_epik_Chemistry_Notes>  (364) 
This compound has an ester and may undergo hydrolysis at high or low pH. This compound contains an acetal/aminal-like group ( X-CH(R)-Y where X, Y are N, S, or O) that may be acid/base labile, releasing an aldehyde.

>  <s_lp_Force_Field>  (364) 
OPLS3e

>  <r_lp_Energy>  (364) 
126.017

>  <b_lp_Chiralities_Consistent>  (364) 
1

>  <s_lp_Variant>  (364) 
87:0-1

>  <s_i_glide_gridfile>  (364) 
pfpi4k_grid

>  <i_i_glide_lignum>  (364) 
7

>  <i_i_glide_rotatable_bonds>  (364) 
7

>  <r_i_docking_score>  (364) 
-3.04749

>  <r_i_glide_ligand_efficiency>  (364) 
-0.0648402

>  <r_i_glide_ligand_efficiency_sa>  (364) 
-0.233997

>  <r_i_glide_ligand_efficiency_ln>  (364) 
-0.628329

>  <r_i_glide_gscore>  (364) 
-3.04749

>  <r_i_glide_lipo>  (364) 
-0.565976

>  <r_i_glide_hbond>  (364) 
0

>  <r_i_glide_metal>  (364) 
-0

>  <r_i_glide_rewards>  (364) 
0

>  <r_i_glide_evdw>  (364) 
-27.7341

>  <r_i_glide_ecoul>  (364) 
-7.43344

>  <r_i_glide_erotb>  (364) 
0.097457

>  <r_i_glide_esite>  (364) 
-0.0772477

>  <r_i_glide_emodel>  (364) 
-40.0194

>  <r_i_glide_energy>  (364) 
-35.1676

>  <r_i_glide_einternal>  (364) 
0.896

>  <r_i_glide_intrahb_reward>  (364) 
-0

>  <i_i_glide_confnum>  (364) 
5

>  <i_i_glide_posenum>  (364) 
11

>  <r_i_glide_eff_state_penalty>  (364) 
0

>  <ligand_id>  (364) 
87

>  <original_smiles>  (364) 
CC(=O)OC1CC2C(OC(C)=O)C3(CCC4C5CCC6(C)C7C(O)C8OC(C)(C)OC8OC7C(O)C6(C)C5CC(O)C4(C)C13)C2(C)C

>  <smiles>  (364) 
[H]OC1([H])C2([H])OC(C([H])([H])[H])(C([H])([H])[H])OC2([H])OC2([H])C([H])(O[H])C3(C([H])([H])[H])C4([H])C([H])([H])C([H])(O[H])C5(C([H])([H])[H])C([H])(C([H])([H])C([H])([H])C67C([H])(OC(=O)C([H])([H])[H])C([H])(C([H])([H])C([H])(OC(=O)C([H])([H])[H])C56[H])C7(C([H])([H])[H])C([H])([H])[H])C4([H])C([H])([H])C([H])([H])C3(C([H])([H])[H])C12[H]

$$$$
87:0:1
     RDKit          3D

103110  0  0  1  0  0  0  0  0999 V2000
    3.0326    1.1343    9.6607 C   0  0  0  0  0  0  0  0  0  0  0  0
    3.3361    2.0751    8.4992 C   0  0  0  0  0  0  0  0  0  0  0  0
    4.1695    2.9659    8.5947 O   0  0  0  0  0  0  0  0  0  0  0  0
    2.5945    1.7844    7.4065 O   0  0  0  0  0  0  0  0  0  0  0  0
    2.7653    2.5169    6.1940 C   0  0  2  0  0  0  0  0  0  0  0  0
    1.7853    3.7249    6.3026 C   0  0  0  0  0  0  0  0  0  0  0  0
    0.7555    3.7732    5.1619 C   0  0  1  0  0  0  0  0  0  0  0  0
    1.3378    3.6846    3.7507 C   0  0  1  0  0  0  0  0  0  0  0  0
    2.6009    4.3213    3.5611 O   0  0  0  0  0  0  0  0  0  0  0  0
    2.7287    5.6649    3.4938 C   0  0  0  0  0  0  0  0  0  0  0  0
    1.4551    6.4878    3.6563 C   0  0  0  0  0  0  0  0  0  0  0  0
    3.8131    6.2382    3.3325 O   0  0  0  0  0  0  0  0  0  0  0  0
    1.3608    2.1509    4.0187 C   0  0  1  0  0  0  0  0  0  0  0  0
    1.2190    1.2951    2.7503 C   0  0  0  0  0  0  0  0  0  0  0  0
    1.0654   -0.2021    3.0503 C   0  0  0  0  0  0  0  0  0  0  0  0
    1.7771   -0.6753    4.3484 C   0  0  1  0  0  0  0  0  0  0  0  0
    1.8096   -2.2317    4.6094 C   0  0  1  0  0  0  0  0  0  0  0  0
    0.9998   -3.0439    3.5793 C   0  0  0  0  0  0  0  0  0  0  0  0
    0.9065   -4.5197    3.9655 C   0  0  0  0  0  0  0  0  0  0  0  0
    2.2716   -5.2176    4.1140 C   0  0  1  0  0  0  0  0  0  0  0  0
    1.9654   -6.6857    4.5414 C   0  0  0  0  0  0  0  0  0  0  0  0
    3.1367   -5.2284    2.8334 C   0  0  2  0  0  0  0  0  0  0  0  0
    2.8515   -6.0892    1.6042 C   0  0  1  0  0  0  0  0  0  0  0  0
    1.5473   -5.9326    1.0724 O   0  0  0  0  0  0  0  0  0  0  0  0
    3.9061   -5.7217    0.5349 C   0  0  1  0  0  0  0  0  0  0  0  0
    3.7430   -4.4171    0.0190 O   0  0  0  0  0  0  0  0  0  0  0  0
    5.0290   -3.9655   -0.2954 C   0  0  0  0  0  0  0  0  0  0  0  0
    5.1603   -3.8588   -1.8199 C   0  0  0  0  0  0  0  0  0  0  0  0
    5.2418   -2.6171    0.4054 C   0  0  0  0  0  0  0  0  0  0  0  0
    5.9818   -4.8800    0.1661 O   0  0  0  0  0  0  0  0  0  0  0  0
    5.3544   -5.6746    1.0991 C   0  0  1  0  0  0  0  0  0  0  0  0
    5.4326   -5.0662    2.3716 O   0  0  0  0  0  0  0  0  0  0  0  0
    4.5258   -5.6123    3.3248 C   0  0  1  0  0  0  0  0  0  0  0  0
    4.5907   -5.0952    4.7747 C   0  0  1  0  0  0  0  0  0  0  0  0
    5.7630   -4.3654    5.0569 O   0  0  0  0  0  0  0  0  0  0  0  0
    3.2178   -4.4266    5.1101 C   0  0  2  0  0  0  0  0  0  0  0  0
    2.8369   -4.7110    6.5890 C   0  0  0  0  0  0  0  0  0  0  0  0
    3.2186   -2.8564    4.8187 C   0  0  2  0  0  0  0  0  0  0  0  0
    4.0600   -1.9870    5.8002 C   0  0  0  0  0  0  0  0  0  0  0  0
    3.6553   -0.4987    5.9621 C   0  0  1  0  0  0  0  0  0  0  0  0
    4.8090    0.1853    6.4188 O   0  0  0  0  0  0  0  0  0  0  0  0
    3.0525    0.1615    4.6927 C   0  0  1  0  0  0  0  0  0  0  0  0
    4.1341    0.0839    3.5568 C   0  0  0  0  0  0  0  0  0  0  0  0
    2.6272    1.7047    4.8422 C   0  0  2  0  0  0  0  0  0  0  0  0
    0.0269    2.4643    4.8059 C   0  0  0  0  0  0  0  0  0  0  0  0
   -0.4014    1.5853    5.9829 C   0  0  0  0  0  0  0  0  0  0  0  0
   -1.2843    2.6471    3.9981 C   0  0  0  0  0  0  0  0  0  0  0  0
    3.2834    0.1113    9.3824 H   0  0  0  0  0  0  0  0  0  0  0  0
    1.9736    1.1802    9.9190 H   0  0  0  0  0  0  0  0  0  0  0  0
    3.6193    1.4086   10.5386 H   0  0  0  0  0  0  0  0  0  0  0  0
    3.7777    2.9339    6.1944 H   0  0  0  0  0  0  0  0  0  0  0  0
    1.2546    3.7200    7.2577 H   0  0  0  0  0  0  0  0  0  0  0  0
    2.3540    4.6507    6.3169 H   0  0  0  0  0  0  0  0  0  0  0  0
    0.0379    4.5822    5.2711 H   0  0  0  0  0  0  0  0  0  0  0  0
    0.6660    3.9417    2.9438 H   0  0  0  0  0  0  0  0  0  0  0  0
    1.0309    6.3374    4.6541 H   0  0  0  0  0  0  0  0  0  0  0  0
    0.7089    6.1976    2.9149 H   0  0  0  0  0  0  0  0  0  0  0  0
    1.6399    7.5575    3.5290 H   0  0  0  0  0  0  0  0  0  0  0  0
    0.3571    1.6177    2.1758 H   0  0  0  0  0  0  0  0  0  0  0  0
    2.0558    1.4862    2.0826 H   0  0  0  0  0  0  0  0  0  0  0  0
    0.0016   -0.3971    3.1545 H   0  0  0  0  0  0  0  0  0  0  0  0
    1.3966   -0.7579    2.1687 H   0  0  0  0  0  0  0  0  0  0  0  0
    1.0743   -0.3624    5.1211 H   0  0  0  0  0  0  0  0  0  0  0  0
    1.2991   -2.3742    5.5659 H   0  0  0  0  0  0  0  0  0  0  0  0
   -0.0175   -2.6515    3.5185 H   0  0  0  0  0  0  0  0  0  0  0  0
    1.4277   -2.9445    2.5827 H   0  0  0  0  0  0  0  0  0  0  0  0
    0.3663   -4.5870    4.9050 H   0  0  0  0  0  0  0  0  0  0  0  0
    0.3016   -5.0576    3.2324 H   0  0  0  0  0  0  0  0  0  0  0  0
    2.8576   -7.2699    4.7699 H   0  0  0  0  0  0  0  0  0  0  0  0
    1.4361   -7.2190    3.7508 H   0  0  0  0  0  0  0  0  0  0  0  0
    1.3190   -6.7304    5.4162 H   0  0  0  0  0  0  0  0  0  0  0  0
    3.1783   -4.2085    2.4561 H   0  0  0  0  0  0  0  0  0  0  0  0
    2.9577   -7.1474    1.8659 H   0  0  0  0  0  0  0  0  0  0  0  0
    1.4341   -6.5917    0.4034 H   0  0  0  0  0  0  0  0  0  0  0  0
    3.8922   -6.4211   -0.3021 H   0  0  0  0  0  0  0  0  0  0  0  0
    5.0131   -4.8352   -2.2792 H   0  0  0  0  0  0  0  0  0  0  0  0
    6.1557   -3.4918   -2.0817 H   0  0  0  0  0  0  0  0  0  0  0  0
    4.4115   -3.1720   -2.2085 H   0  0  0  0  0  0  0  0  0  0  0  0
    5.1062   -2.7210    1.4832 H   0  0  0  0  0  0  0  0  0  0  0  0
    4.5152   -1.8938    0.0355 H   0  0  0  0  0  0  0  0  0  0  0  0
    6.2485   -2.2503    0.2112 H   0  0  0  0  0  0  0  0  0  0  0  0
    5.8204   -6.6574    1.1363 H   0  0  0  0  0  0  0  0  0  0  0  0
    4.6665   -6.6965    3.3499 H   0  0  0  0  0  0  0  0  0  0  0  0
    4.6843   -5.9860    5.4014 H   0  0  0  0  0  0  0  0  0  0  0  0
    5.7873   -3.6218    4.4758 H   0  0  0  0  0  0  0  0  0  0  0  0
    3.5906   -4.3542    7.2888 H   0  0  0  0  0  0  0  0  0  0  0  0
    2.7786   -5.7756    6.8034 H   0  0  0  0  0  0  0  0  0  0  0  0
    1.8839   -4.2683    6.8561 H   0  0  0  0  0  0  0  0  0  0  0  0
    3.7183   -2.7422    3.8572 H   0  0  0  0  0  0  0  0  0  0  0  0
    4.0592   -2.3991    6.8116 H   0  0  0  0  0  0  0  0  0  0  0  0
    5.0936   -2.0186    5.4795 H   0  0  0  0  0  0  0  0  0  0  0  0
    2.8928   -0.4767    6.7369 H   0  0  0  0  0  0  0  0  0  0  0  0
    5.4594    0.1866    5.7311 H   0  0  0  0  0  0  0  0  0  0  0  0
    5.0051    0.6864    3.8088 H   0  0  0  0  0  0  0  0  0  0  0  0
    3.7916    0.4562    2.5970 H   0  0  0  0  0  0  0  0  0  0  0  0
    4.5161   -0.9093    3.3619 H   0  0  0  0  0  0  0  0  0  0  0  0
    3.4452    2.1866    4.3100 H   0  0  0  0  0  0  0  0  0  0  0  0
   -0.9417    0.7021    5.6438 H   0  0  0  0  0  0  0  0  0  0  0  0
   -1.0560    2.1472    6.6524 H   0  0  0  0  0  0  0  0  0  0  0  0
    0.4316    1.2415    6.5732 H   0  0  0  0  0  0  0  0  0  0  0  0
   -1.6621    1.6909    3.6362 H   0  0  0  0  0  0  0  0  0  0  0  0
   -1.2002    3.2911    3.1235 H   0  0  0  0  0  0  0  0  0  0  0  0
   -2.0633    3.0927    4.6210 H   0  0  0  0  0  0  0  0  0  0  0  0
  1  2  1  0
  1 48  1  0
  1 49  1  0
  1 50  1  0
  2  3  2  0
  2  4  1  0
  4  5  1  0
  5 44  1  0
  5  6  1  0
  5 51  1  1
  6  7  1  0
  6 52  1  0
  6 53  1  0
  7 45  1  0
  7  8  1  0
  7 54  1  6
  8  9  1  0
  8 13  1  0
  8 55  1  6
  9 10  1  0
 10 11  1  0
 10 12  2  0
 11 56  1  0
 11 57  1  0
 11 58  1  0
 13 44  1  0
 13 14  1  6
 13 45  1  0
 14 15  1  0
 14 59  1  0
 14 60  1  0
 15 16  1  0
 15 61  1  0
 15 62  1  0
 16 42  1  0
 16 17  1  0
 16 63  1  1
 17 38  1  0
 17 18  1  0
 17 64  1  1
 18 19  1  0
 18 65  1  0
 18 66  1  0
 19 20  1  0
 19 67  1  0
 19 68  1  0
 20 36  1  0
 20 21  1  1
 20 22  1  0
 21 69  1  0
 21 70  1  0
 21 71  1  0
 22 33  1  0
 22 23  1  0
 22 72  1  6
 23 24  1  0
 23 25  1  0
 23 73  1  1
 24 74  1  0
 25 31  1  0
 25 26  1  0
 25 75  1  6
 26 27  1  0
 27 28  1  0
 27 29  1  0
 27 30  1  0
 28 76  1  0
 28 77  1  0
 28 78  1  0
 29 79  1  0
 29 80  1  0
 29 81  1  0
 30 31  1  0
 31 32  1  0
 31 82  1  1
 32 33  1  0
 33 34  1  0
 33 83  1  1
 34 35  1  0
 34 36  1  0
 34 84  1  1
 35 85  1  0
 36 37  1  1
 36 38  1  0
 37 86  1  0
 37 87  1  0
 37 88  1  0
 38 39  1  0
 38 89  1  6
 39 40  1  0
 39 90  1  0
 39 91  1  0
 40 41  1  0
 40 42  1  0
 40 92  1  1
 41 93  1  0
 42 43  1  6
 42 44  1  0
 43 94  1  0
 43 95  1  0
 43 96  1  0
 44 97  1  6
 45 46  1  0
 45 47  1  0
 46 98  1  0
 46 99  1  0
 46100  1  0
 47101  1  0
 47102  1  0
 47103  1  0
M  END
>  <i_m_ct_stereo_status>  (365) 
1

>  <s_m_source_file>  (365) 
/var/tmp/pbs.5076255.sched01/tmp277fsmq3/144xeprw1xa.sdf

>  <i_m_source_file_index>  (365) 
7

>  <i_lp_mmshare_version>  (365) 
48012

>  <i_f3d_flags>  (365) 
0

>  <s_epik_input>  (365) 
W0NIM11DKD1PKU9bQ0BASF0xW0NAQEhdKEMyKFtDSDNdKVtDSDNdKVtDSDJdW0NAQEhdKE9DKD1PKVtDSDNdKVtDQEhdKFtDQF0xMjMpW0NAXTQoW0NIM10pW0NAQEhdKFtDSDJdW0NIMl0zKVtDQEBIXTVbQ0BASF0oW0NIMl1bQ0BIXTRbT0hdKVtDQEBdNihbQ0gzXSlbQ0BAXShbQ0gzXSkoW0NIMl1bQ0gyXTUpW0NASF03W0NASF0oW0NASF02W09IXSlPW0NASF04W0NAQEhdKFtDQEBIXTdbT0hdKU9DKE84KShbQ0gzXSlbQ0gzXQ==

>  <s_epik_cmdline>  (365) 
J2VwaWtfcHl0aG9uJywgJy1waHQnLCAnMi4wJywgJy1waCcsICc3LjAnLCAnLXRuJywgJzgnLCAnLW1hJywgJzIwMCcsICctaW1hZScsICc8aW5maWxlLm1hZT4nLCAnLW9tYWUnLCAnPG91dGZpbGUubWFlPic=

>  <r_lp_tautomer_probability>  (365) 
1

>  <r_epik_Ionization_Penalty>  (365) 
1.73659e-06

>  <r_epik_Ionization_Penalty_Charging>  (365) 
0

>  <r_epik_Ionization_Penalty_Neutral>  (365) 
1.73659e-06

>  <r_epik_State_Penalty>  (365) 
-0

>  <r_epik_Charging_Adjusted_Penalty>  (365) 
0

>  <i_epik_Tot_Q>  (365) 
0

>  <i_epik_Tot_abs_Q>  (365) 
0

>  <s_epik_Chemistry_Notes>  (365) 
This compound has an ester and may undergo hydrolysis at high or low pH. This compound contains an acetal/aminal-like group ( X-CH(R)-Y where X, Y are N, S, or O) that may be acid/base labile, releasing an aldehyde.

>  <s_lp_Force_Field>  (365) 
OPLS3e

>  <r_lp_Energy>  (365) 
126.017

>  <b_lp_Chiralities_Consistent>  (365) 
1

>  <s_lp_Variant>  (365) 
87:0-1

>  <s_i_glide_gridfile>  (365) 
pfpi4k_grid

>  <i_i_glide_lignum>  (365) 
7

>  <i_i_glide_rotatable_bonds>  (365) 
7

>  <r_i_docking_score>  (365) 
-1.97034

>  <r_i_glide_ligand_efficiency>  (365) 
-0.041922

>  <r_i_glide_ligand_efficiency_sa>  (365) 
-0.151289

>  <r_i_glide_ligand_efficiency_ln>  (365) 
-0.406242

>  <r_i_glide_gscore>  (365) 
-1.97034

>  <r_i_glide_lipo>  (365) 
-0.128567

>  <r_i_glide_hbond>  (365) 
0

>  <r_i_glide_metal>  (365) 
-0

>  <r_i_glide_rewards>  (365) 
-0.219894

>  <r_i_glide_evdw>  (365) 
-28.184

>  <r_i_glide_ecoul>  (365) 
-2.06752

>  <r_i_glide_erotb>  (365) 
0.097457

>  <r_i_glide_esite>  (365) 
0

>  <r_i_glide_emodel>  (365) 
-31.0947

>  <r_i_glide_energy>  (365) 
-30.2516

>  <r_i_glide_einternal>  (365) 
5.88826

>  <r_i_glide_intrahb_reward>  (365) 
-0

>  <i_i_glide_confnum>  (365) 
1

>  <i_i_glide_posenum>  (365) 
14

>  <r_i_glide_eff_state_penalty>  (365) 
0

>  <ligand_id>  (365) 
87

>  <original_smiles>  (365) 
CC(=O)OC1CC2C(OC(C)=O)C3(CCC4C5CCC6(C)C7C(O)C8OC(C)(C)OC8OC7C(O)C6(C)C5CC(O)C4(C)C13)C2(C)C

>  <smiles>  (365) 
[H]OC1([H])C2([H])OC(C([H])([H])[H])(C([H])([H])[H])OC2([H])OC2([H])C([H])(O[H])C3(C([H])([H])[H])C4([H])C([H])([H])C([H])(O[H])C5(C([H])([H])[H])C([H])(C([H])([H])C([H])([H])C67C([H])(OC(=O)C([H])([H])[H])C([H])(C([H])([H])C([H])(OC(=O)C([H])([H])[H])C56[H])C7(C([H])([H])[H])C([H])([H])[H])C4([H])C([H])([H])C([H])([H])C3(C([H])([H])[H])C12[H]

$$$$
88:0:0
     RDKit          3D

 23 28  0  0  1  0  0  0  0  0999 V2000
    4.4596   -3.0737   -3.1872 C   0  0  0  0  0  0  0  0  0  0  0  0
    3.1732   -2.4113   -2.5385 C   0  0  0  0  0  0  0  0  0  0  0  0
    3.8315   -2.1723   -1.2391 C   0  0  1  0  0  0  0  0  0  0  0  0
    5.1230   -1.4438   -1.6596 C   0  0  2  0  0  0  0  0  0  0  0  0
    5.6777   -2.7273   -2.2148 C   0  0  1  0  0  0  0  0  0  0  0  0
    5.6655   -3.4749   -0.8233 C   0  0  1  0  0  0  0  0  0  0  0  0
    5.8395   -2.4534    0.3738 C   0  0  1  0  0  0  0  0  0  0  0  0
    5.4018   -1.1074   -0.2097 C   0  0  2  0  0  0  0  0  0  0  0  0
    3.9059   -1.3726    0.0604 C   0  0  2  0  0  0  0  0  0  0  0  0
    4.3777   -2.6381    0.7963 C   0  0  1  0  0  0  0  0  0  0  0  0
    4.2038   -3.4393   -0.4625 C   0  0  1  0  0  0  0  0  0  0  0  0
    4.6153   -2.6547   -4.1806 H   0  0  0  0  0  0  0  0  0  0  0  0
    4.3365   -4.1552   -3.2935 H   0  0  0  0  0  0  0  0  0  0  0  0
    2.8666   -1.4749   -3.0201 H   0  0  0  0  0  0  0  0  0  0  0  0
    2.3087   -3.0842   -2.4755 H   0  0  0  0  0  0  0  0  0  0  0  0
    4.9700   -0.5736   -2.3024 H   0  0  0  0  0  0  0  0  0  0  0  0
    6.6595   -2.6570   -2.6890 H   0  0  0  0  0  0  0  0  0  0  0  0
    6.1388   -4.4463   -0.6837 H   0  0  0  0  0  0  0  0  0  0  0  0
    6.5847   -2.5346    1.1522 H   0  0  0  0  0  0  0  0  0  0  0  0
    5.8141   -0.1497    0.1291 H   0  0  0  0  0  0  0  0  0  0  0  0
    3.1780   -0.6539    0.4200 H   0  0  0  0  0  0  0  0  0  0  0  0
    4.0466   -2.9907    1.7739 H   0  0  0  0  0  0  0  0  0  0  0  0
    3.5550   -4.3174   -0.4669 H   0  0  0  0  0  0  0  0  0  0  0  0
  1  5  1  0
  1  2  1  0
  1 12  1  0
  1 13  1  0
  3  2  1  6
  2 14  1  0
  2 15  1  0
  3  9  1  0
  3 11  1  0
  3  4  1  0
  4  8  1  0
  4  5  1  0
  4 16  1  6
  5  6  1  0
  5 17  1  6
  6 11  1  0
  6  7  1  0
  6 18  1  6
  7 10  1  0
  7  8  1  0
  7 19  1  1
  8  9  1  0
  8 20  1  6
  9 10  1  0
  9 21  1  1
 10 11  1  0
 10 22  1  1
 11 23  1  1
M  END
>  <i_m_ct_stereo_status>  (366) 
1

>  <s_m_source_file>  (366) 
/var/tmp/pbs.5076255.sched01/tmp277fsmq3/144xeprw1xa.sdf

>  <i_m_source_file_index>  (366) 
8

>  <i_lp_mmshare_version>  (366) 
48012

>  <i_f3d_flags>  (366) 
0

>  <s_epik_input>  (366) 
W0NIMl0xW0NIMl1bQ0BASF0oW0NASF0yW0NAXTEzNClbQ0BIXTVbQ0BIXTZbQ0BASF0yW0NAQEhdM1tDQEhdNltDQEBIXTQ1

>  <s_epik_cmdline>  (366) 
J2VwaWtfcHl0aG9uJywgJy1waHQnLCAnMi4wJywgJy1waCcsICc3LjAnLCAnLXRuJywgJzgnLCAnLW1hJywgJzIwMCcsICctaW1hZScsICc8aW5maWxlLm1hZT4nLCAnLW9tYWUnLCAnPG91dGZpbGUubWFlPic=

>  <r_lp_tautomer_probability>  (366) 
1

>  <r_epik_Ionization_Penalty>  (366) 
0

>  <r_epik_Ionization_Penalty_Charging>  (366) 
0

>  <r_epik_Ionization_Penalty_Neutral>  (366) 
0

>  <r_epik_State_Penalty>  (366) 
-0

>  <r_epik_Charging_Adjusted_Penalty>  (366) 
0

>  <i_epik_Tot_Q>  (366) 
0

>  <i_epik_Tot_abs_Q>  (366) 
0

>  <s_lp_Force_Field>  (366) 
OPLS3e

>  <r_lp_Energy>  (366) 
164.151

>  <b_lp_Chiralities_Consistent>  (366) 
1

>  <s_lp_Variant>  (366) 
88:0-1

>  <s_i_glide_gridfile>  (366) 
pfpi4k_grid

>  <i_i_glide_lignum>  (366) 
8

>  <i_i_glide_rotatable_bonds>  (366) 
0

>  <r_i_docking_score>  (366) 
-3.5306

>  <r_i_glide_ligand_efficiency>  (366) 
-0.320963

>  <r_i_glide_ligand_efficiency_sa>  (366) 
-0.713816

>  <r_i_glide_ligand_efficiency_ln>  (366) 
-1.03905

>  <r_i_glide_gscore>  (366) 
-3.5306

>  <r_i_glide_lipo>  (366) 
-0.36422

>  <r_i_glide_hbond>  (366) 
0

>  <r_i_glide_metal>  (366) 
-0

>  <r_i_glide_rewards>  (366) 
-2.25

>  <r_i_glide_evdw>  (366) 
-17.7753

>  <r_i_glide_ecoul>  (366) 
-0.184069

>  <r_i_glide_erotb>  (366) 
0

>  <r_i_glide_esite>  (366) 
0

>  <r_i_glide_emodel>  (366) 
-21.9805

>  <r_i_glide_energy>  (366) 
-17.9594

>  <r_i_glide_einternal>  (366) 
0

>  <r_i_glide_intrahb_reward>  (366) 
-0

>  <i_i_glide_confnum>  (366) 
1

>  <i_i_glide_posenum>  (366) 
15

>  <r_i_glide_eff_state_penalty>  (366) 
0

>  <ligand_id>  (366) 
88

>  <original_smiles>  (366) 
C1CC23C4C1C1C5C4C2C5C13

>  <smiles>  (366) 
[H]C1([H])C([H])([H])C23C4([H])C1([H])C1([H])C5([H])C4([H])C2([H])C5([H])C13[H]

$$$$
88:0:1
     RDKit          3D

 23 28  0  0  1  0  0  0  0  0999 V2000
    3.0288   -2.6868   -2.7398 C   0  0  0  0  0  0  0  0  0  0  0  0
    4.4508   -2.4273   -3.3965 C   0  0  0  0  0  0  0  0  0  0  0  0
    5.1481   -2.4054   -2.0785 C   0  0  1  0  0  0  0  0  0  0  0  0
    4.6557   -3.7282   -1.4410 C   0  0  2  0  0  0  0  0  0  0  0  0
    3.2912   -3.1326   -1.2297 C   0  0  1  0  0  0  0  0  0  0  0  0
    3.7876   -1.9968   -0.2767 C   0  0  1  0  0  0  0  0  0  0  0  0
    5.0872   -2.4410    0.5060 C   0  0  1  0  0  0  0  0  0  0  0  0
    5.6740   -3.5780   -0.3208 C   0  0  2  0  0  0  0  0  0  0  0  0
    6.4311   -2.6093   -1.2658 C   0  0  2  0  0  0  0  0  0  0  0  0
    5.9771   -1.4954   -0.2941 C   0  0  1  0  0  0  0  0  0  0  0  0
    4.7620   -1.2363   -1.1644 C   0  0  1  0  0  0  0  0  0  0  0  0
    2.5180   -3.4787   -3.3033 H   0  0  0  0  0  0  0  0  0  0  0  0
    2.3982   -1.7912   -2.7916 H   0  0  0  0  0  0  0  0  0  0  0  0
    4.8050   -3.2463   -4.0076 H   0  0  0  0  0  0  0  0  0  0  0  0
    4.5317   -1.4876   -3.9209 H   0  0  0  0  0  0  0  0  0  0  0  0
    4.7824   -4.6183   -2.0518 H   0  0  0  0  0  0  0  0  0  0  0  0
    2.5439   -3.7980   -0.8049 H   0  0  0  0  0  0  0  0  0  0  0  0
    3.0955   -1.3497    0.2754 H   0  0  0  0  0  0  0  0  0  0  0  0
    5.1937   -2.4132    1.5935 H   0  0  0  0  0  0  0  0  0  0  0  0
    6.2429   -4.4033    0.0859 H   0  0  0  0  0  0  0  0  0  0  0  0
    7.4296   -2.7469   -1.6661 H   0  0  0  0  0  0  0  0  0  0  0  0
    6.5763   -0.6931    0.1235 H   0  0  0  0  0  0  0  0  0  0  0  0
    4.5825   -0.2468   -1.5460 H   0  0  0  0  0  0  0  0  0  0  0  0
  1  5  1  0
  1  2  1  0
  1 12  1  0
  1 13  1  0
  3  2  1  6
  2 14  1  0
  2 15  1  0
  3  9  1  0
  3 11  1  0
  3  4  1  0
  4  8  1  0
  4  5  1  0
  4 16  1  6
  5  6  1  0
  5 17  1  1
  6 11  1  0
  6  7  1  0
  6 18  1  1
  7 10  1  0
  7  8  1  0
  7 19  1  1
  8  9  1  0
  8 20  1  1
  9 10  1  0
  9 21  1  6
 10 11  1  0
 10 22  1  1
 11 23  1  6
M  END
>  <i_m_ct_stereo_status>  (367) 
1

>  <s_m_source_file>  (367) 
/var/tmp/pbs.5076255.sched01/tmp277fsmq3/144xeprw1xa.sdf

>  <i_m_source_file_index>  (367) 
8

>  <i_lp_mmshare_version>  (367) 
48012

>  <i_f3d_flags>  (367) 
0

>  <s_epik_input>  (367) 
W0NIMl0xW0NIMl1bQ0BASF0oW0NASF0yW0NAXTEzNClbQ0BIXTVbQ0BIXTZbQ0BASF0yW0NAQEhdM1tDQEhdNltDQEBIXTQ1

>  <s_epik_cmdline>  (367) 
J2VwaWtfcHl0aG9uJywgJy1waHQnLCAnMi4wJywgJy1waCcsICc3LjAnLCAnLXRuJywgJzgnLCAnLW1hJywgJzIwMCcsICctaW1hZScsICc8aW5maWxlLm1hZT4nLCAnLW9tYWUnLCAnPG91dGZpbGUubWFlPic=

>  <r_lp_tautomer_probability>  (367) 
1

>  <r_epik_Ionization_Penalty>  (367) 
0

>  <r_epik_Ionization_Penalty_Charging>  (367) 
0

>  <r_epik_Ionization_Penalty_Neutral>  (367) 
0

>  <r_epik_State_Penalty>  (367) 
-0

>  <r_epik_Charging_Adjusted_Penalty>  (367) 
0

>  <i_epik_Tot_Q>  (367) 
0

>  <i_epik_Tot_abs_Q>  (367) 
0

>  <s_lp_Force_Field>  (367) 
OPLS3e

>  <r_lp_Energy>  (367) 
164.151

>  <b_lp_Chiralities_Consistent>  (367) 
1

>  <s_lp_Variant>  (367) 
88:0-1

>  <s_i_glide_gridfile>  (367) 
pfpi4k_grid

>  <i_i_glide_lignum>  (367) 
8

>  <i_i_glide_rotatable_bonds>  (367) 
0

>  <r_i_docking_score>  (367) 
-3.49099

>  <r_i_glide_ligand_efficiency>  (367) 
-0.317362

>  <r_i_glide_ligand_efficiency_sa>  (367) 
-0.705808

>  <r_i_glide_ligand_efficiency_ln>  (367) 
-1.0274

>  <r_i_glide_gscore>  (367) 
-3.49099

>  <r_i_glide_lipo>  (367) 
-0.271873

>  <r_i_glide_hbond>  (367) 
0

>  <r_i_glide_metal>  (367) 
-0

>  <r_i_glide_rewards>  (367) 
-2.25

>  <r_i_glide_evdw>  (367) 
-18.1189

>  <r_i_glide_ecoul>  (367) 
-0.421128

>  <r_i_glide_erotb>  (367) 
0

>  <r_i_glide_esite>  (367) 
0

>  <r_i_glide_emodel>  (367) 
-22.5201

>  <r_i_glide_energy>  (367) 
-18.54

>  <r_i_glide_einternal>  (367) 
0

>  <r_i_glide_intrahb_reward>  (367) 
-0

>  <i_i_glide_confnum>  (367) 
2

>  <i_i_glide_posenum>  (367) 
35

>  <r_i_glide_eff_state_penalty>  (367) 
0

>  <ligand_id>  (367) 
88

>  <original_smiles>  (367) 
C1CC23C4C1C1C5C4C2C5C13

>  <smiles>  (367) 
[H]C1([H])C([H])([H])C23C4([H])C1([H])C1([H])C5([H])C4([H])C2([H])C5([H])C13[H]

$$$$
88:0:2
     RDKit          3D

 23 28  0  0  1  0  0  0  0  0999 V2000
    3.7493   -2.7073   -2.9783 C   0  0  0  0  0  0  0  0  0  0  0  0
    3.9761   -1.2260   -2.4637 C   0  0  0  0  0  0  0  0  0  0  0  0
    4.6932   -1.6646   -1.2468 C   0  0  1  0  0  0  0  0  0  0  0  0
    5.7691   -2.6212   -1.8186 C   0  0  2  0  0  0  0  0  0  0  0  0
    4.7073   -3.6411   -2.1009 C   0  0  1  0  0  0  0  0  0  0  0  0
    4.2960   -3.8258   -0.5944 C   0  0  1  0  0  0  0  0  0  0  0  0
    5.5103   -3.5048    0.3727 C   0  0  1  0  0  0  0  0  0  0  0  0
    6.4524   -2.6305   -0.4593 C   0  0  2  0  0  0  0  0  0  0  0  0
    5.6757   -1.3273   -0.1261 C   0  0  2  0  0  0  0  0  0  0  0  0
    4.8522   -2.2015    0.8432 C   0  0  1  0  0  0  0  0  0  0  0  0
    3.8192   -2.4341   -0.2379 C   0  0  1  0  0  0  0  0  0  0  0  0
    4.0014   -2.7706   -4.0384 H   0  0  0  0  0  0  0  0  0  0  0  0
    2.7036   -3.0068   -2.8716 H   0  0  0  0  0  0  0  0  0  0  0  0
    4.6077   -0.6246   -3.1183 H   0  0  0  0  0  0  0  0  0  0  0  0
    3.0511   -0.6875   -2.2503 H   0  0  0  0  0  0  0  0  0  0  0  0
    6.3639   -2.2470   -2.6485 H   0  0  0  0  0  0  0  0  0  0  0  0
    5.0500   -4.5496   -2.5957 H   0  0  0  0  0  0  0  0  0  0  0  0
    3.6269   -4.6332   -0.2917 H   0  0  0  0  0  0  0  0  0  0  0  0
    5.8879   -4.2056    1.1239 H   0  0  0  0  0  0  0  0  0  0  0  0
    7.5370   -2.6528   -0.3434 H   0  0  0  0  0  0  0  0  0  0  0  0
    6.1040   -0.3474    0.0929 H   0  0  0  0  0  0  0  0  0  0  0  0
    4.5890   -1.9676    1.8721 H   0  0  0  0  0  0  0  0  0  0  0  0
    2.7673   -2.1748   -0.0847 H   0  0  0  0  0  0  0  0  0  0  0  0
  1  5  1  0
  1  2  1  0
  1 12  1  0
  1 13  1  0
  3  2  1  6
  2 14  1  0
  2 15  1  0
  3  9  1  0
  3 11  1  0
  3  4  1  0
  4  8  1  0
  4  5  1  0
  4 16  1  6
  5  6  1  0
  5 17  1  6
  6 11  1  0
  6  7  1  0
  6 18  1  6
  7 10  1  0
  7  8  1  0
  7 19  1  1
  8  9  1  0
  8 20  1  6
  9 10  1  0
  9 21  1  1
 10 11  1  0
 10 22  1  1
 11 23  1  1
M  END
>  <i_m_ct_stereo_status>  (368) 
1

>  <s_m_source_file>  (368) 
/var/tmp/pbs.5076255.sched01/tmp277fsmq3/144xeprw1xa.sdf

>  <i_m_source_file_index>  (368) 
8

>  <i_lp_mmshare_version>  (368) 
48012

>  <i_f3d_flags>  (368) 
0

>  <s_epik_input>  (368) 
W0NIMl0xW0NIMl1bQ0BASF0oW0NASF0yW0NAXTEzNClbQ0BIXTVbQ0BIXTZbQ0BASF0yW0NAQEhdM1tDQEhdNltDQEBIXTQ1

>  <s_epik_cmdline>  (368) 
J2VwaWtfcHl0aG9uJywgJy1waHQnLCAnMi4wJywgJy1waCcsICc3LjAnLCAnLXRuJywgJzgnLCAnLW1hJywgJzIwMCcsICctaW1hZScsICc8aW5maWxlLm1hZT4nLCAnLW9tYWUnLCAnPG91dGZpbGUubWFlPic=

>  <r_lp_tautomer_probability>  (368) 
1

>  <r_epik_Ionization_Penalty>  (368) 
0

>  <r_epik_Ionization_Penalty_Charging>  (368) 
0

>  <r_epik_Ionization_Penalty_Neutral>  (368) 
0

>  <r_epik_State_Penalty>  (368) 
-0

>  <r_epik_Charging_Adjusted_Penalty>  (368) 
0

>  <i_epik_Tot_Q>  (368) 
0

>  <i_epik_Tot_abs_Q>  (368) 
0

>  <s_lp_Force_Field>  (368) 
OPLS3e

>  <r_lp_Energy>  (368) 
164.151

>  <b_lp_Chiralities_Consistent>  (368) 
1

>  <s_lp_Variant>  (368) 
88:0-1

>  <s_i_glide_gridfile>  (368) 
pfpi4k_grid

>  <i_i_glide_lignum>  (368) 
8

>  <i_i_glide_rotatable_bonds>  (368) 
0

>  <r_i_docking_score>  (368) 
-3.30432

>  <r_i_glide_ligand_efficiency>  (368) 
-0.300393

>  <r_i_glide_ligand_efficiency_sa>  (368) 
-0.668068

>  <r_i_glide_ligand_efficiency_ln>  (368) 
-0.972462

>  <r_i_glide_gscore>  (368) 
-3.30432

>  <r_i_glide_lipo>  (368) 
-0.134915

>  <r_i_glide_hbond>  (368) 
0

>  <r_i_glide_metal>  (368) 
-0

>  <r_i_glide_rewards>  (368) 
-2.25

>  <r_i_glide_evdw>  (368) 
-17.0557

>  <r_i_glide_ecoul>  (368) 
-0.444148

>  <r_i_glide_erotb>  (368) 
0

>  <r_i_glide_esite>  (368) 
0

>  <r_i_glide_emodel>  (368) 
-21.2679

>  <r_i_glide_energy>  (368) 
-17.4999

>  <r_i_glide_einternal>  (368) 
0

>  <r_i_glide_intrahb_reward>  (368) 
-0

>  <i_i_glide_confnum>  (368) 
1

>  <i_i_glide_posenum>  (368) 
1

>  <r_i_glide_eff_state_penalty>  (368) 
0

>  <ligand_id>  (368) 
88

>  <original_smiles>  (368) 
C1CC23C4C1C1C5C4C2C5C13

>  <smiles>  (368) 
[H]C1([H])C([H])([H])C23C4([H])C1([H])C1([H])C5([H])C4([H])C2([H])C5([H])C13[H]

$$$$
89:0:0
     RDKit          3D

 30 32  0  0  1  0  0  0  0  0999 V2000
   -1.9067    0.1235    6.3969 O   0  0  0  0  0  0  0  0  0  0  0  0
   -1.5097   -0.7601    5.6191 C   0  0  0  0  0  0  0  0  0  0  0  0
   -1.9651   -1.9302    5.6822 O   0  0  0  0  0  0  0  0  0  0  0  0
   -0.4727   -0.4004    4.5697 C   0  0  0  0  0  0  0  0  0  0  0  0
   -0.3845    0.9452    4.1660 C   0  0  0  0  0  0  0  0  0  0  0  0
    0.5373    1.3675    3.1805 C   0  0  0  0  0  0  0  0  0  0  0  0
    1.4031    0.4500    2.6069 C   0  0  0  0  0  0  0  0  0  0  0  0
    2.4057    0.6734    1.6837 N   0  0  0  0  0  0  0  0  0  0  0  0
    2.8712   -0.5438    1.4998 C   0  0  0  0  0  0  0  0  0  0  0  0
    2.3177   -1.5486    2.2282 N   0  0  0  0  0  0  0  0  0  0  0  0
    1.3262   -0.9269    2.9975 C   0  0  0  0  0  0  0  0  0  0  0  0
    0.3872   -1.3456    3.9759 C   0  0  0  0  0  0  0  0  0  0  0  0
    2.8115   -2.9302    2.1597 C   0  0  0  0  0  0  0  0  0  0  0  0
    3.7084   -3.1846    0.8953 C   0  0  1  0  0  0  0  0  0  0  0  0
    2.9037   -3.4416   -0.3991 C   0  0  0  0  0  0  0  0  0  0  0  0
    2.2503   -4.6902   -0.3082 O   0  0  0  0  0  0  0  0  0  0  0  0
    4.6375   -2.0821    0.7256 N   0  0  0  0  0  0  0  0  0  0  0  0
    3.9556   -0.8278    0.5108 C   0  0  0  0  0  0  0  0  0  0  0  0
   -1.0528    1.6611    4.6019 H   0  0  0  0  0  0  0  0  0  0  0  0
    0.5852    2.3988    2.8748 H   0  0  0  0  0  0  0  0  0  0  0  0
    0.3407   -2.3787    4.2574 H   0  0  0  0  0  0  0  0  0  0  0  0
    3.4075   -3.1470    3.0546 H   0  0  0  0  0  0  0  0  0  0  0  0
    1.9833   -3.6358    2.1367 H   0  0  0  0  0  0  0  0  0  0  0  0
    4.3487   -4.0413    1.0543 H   0  0  0  0  0  0  0  0  0  0  0  0
    2.1584   -2.6573   -0.5206 H   0  0  0  0  0  0  0  0  0  0  0  0
    3.5198   -3.4357   -1.3062 H   0  0  0  0  0  0  0  0  0  0  0  0
    2.5911   -5.2411   -1.0156 H   0  0  0  0  0  0  0  0  0  0  0  0
    5.2192   -2.2588   -0.0815 H   0  0  0  0  0  0  0  0  0  0  0  0
    3.5620   -0.7773   -0.4951 H   0  0  0  0  0  0  0  0  0  0  0  0
    4.6760   -0.0283    0.5331 H   0  0  0  0  0  0  0  0  0  0  0  0
  1  2  2  0
  2  3  1  0
  2  4  1  0
  4 12  2  0
  4  5  1  0
  5  6  2  0
  5 19  1  0
  6  7  1  0
  6 20  1  0
  7 11  2  0
  7  8  1  0
  8  9  2  0
  9 18  1  0
  9 10  1  0
 10 11  1  0
 10 13  1  0
 11 12  1  0
 12 21  1  0
 13 14  1  0
 13 22  1  0
 13 23  1  0
 14 15  1  0
 14 17  1  0
 14 24  1  1
 15 16  1  0
 15 25  1  0
 15 26  1  0
 16 27  1  0
 17 18  1  0
 17 28  1  0
 18 29  1  0
 18 30  1  0
M  CHG  1   3  -1
M  END
>  <i_m_ct_stereo_status>  (369) 
1

>  <s_m_source_file>  (369) 
/var/tmp/pbs.5076255.sched01/tmp277fsmq3/144xeprw1xa.sdf

>  <i_m_source_file_index>  (369) 
9

>  <i_lp_mmshare_version>  (369) 
48012

>  <i_f3d_flags>  (369) 
0

>  <s_epik_input>  (369) 
Tz1DKFtPSF0pYyhbY0hdW2NIXTEpW2NIXWMoYzEyKW4zYyhuMilbQ0gyXVtOSF1bQ0BASF0oW0NIMl0zKVtDSDJdW09IXQ==

>  <s_epik_cmdline>  (369) 
J2VwaWtfcHl0aG9uJywgJy1waHQnLCAnMi4wJywgJy1waCcsICc3LjAnLCAnLXRuJywgJzgnLCAnLW1hJywgJzIwMCcsICctaW1hZScsICc8aW5maWxlLm1hZT4nLCAnLW9tYWUnLCAnPG91dGZpbGUubWFlPic=

>  <r_epik_Ionization_Penalty>  (369) 
0.329764

>  <r_epik_Ionization_Penalty_Charging>  (369) 
0.000505029

>  <r_epik_Ionization_Penalty_Neutral>  (369) 
0.329259

>  <r_epik_State_Penalty>  (369) 
0.280815

>  <r_epik_Charging_Adjusted_Penalty>  (369) 
0.28132

>  <i_epik_Tot_Q>  (369) 
-1

>  <i_epik_Tot_abs_Q>  (369) 
1

>  <s_lp_Force_Field>  (369) 
OPLS3e

>  <r_lp_Energy>  (369) 
31.7745

>  <b_lp_Chiralities_Consistent>  (369) 
1

>  <s_lp_Variant>  (369) 
89:0-1

>  <s_i_glide_gridfile>  (369) 
pfpi4k_grid

>  <i_i_glide_lignum>  (369) 
9

>  <i_i_glide_rotatable_bonds>  (369) 
3

>  <r_i_docking_score>  (369) 
-4.35513

>  <r_i_glide_ligand_efficiency>  (369) 
-0.241952

>  <r_i_glide_ligand_efficiency_sa>  (369) 
-0.634093

>  <r_i_glide_ligand_efficiency_ln>  (369) 
-1.11946

>  <r_i_glide_gscore>  (369) 
-4.35513

>  <r_i_glide_lipo>  (369) 
0

>  <r_i_glide_hbond>  (369) 
-0.52

>  <r_i_glide_metal>  (369) 
-0

>  <r_i_glide_rewards>  (369) 
-1.73017

>  <r_i_glide_evdw>  (369) 
-16.8584

>  <r_i_glide_ecoul>  (369) 
-9.39812

>  <r_i_glide_erotb>  (369) 
0.287359

>  <r_i_glide_esite>  (369) 
-0.139685

>  <r_i_glide_emodel>  (369) 
-36.504

>  <r_i_glide_energy>  (369) 
-26.2565

>  <r_i_glide_einternal>  (369) 
2.32743

>  <r_i_glide_intrahb_reward>  (369) 
-0

>  <i_i_glide_confnum>  (369) 
4

>  <i_i_glide_posenum>  (369) 
34

>  <r_i_glide_eff_state_penalty>  (369) 
0

>  <ligand_id>  (369) 
89

>  <original_smiles>  (369) 
O=C(O)c1ccc2nc3n(c2c1)CC(CO)NC3

>  <smiles>  (369) 
[H]OC([H])([H])C1([H])N([H])C([H])([H])c2nc3c([H])c([H])c(C(=O)[O-])c([H])c3n2C1([H])[H]

$$$$
89:0:1
     RDKit          3D

 30 32  0  0  1  0  0  0  0  0999 V2000
   -0.0234   -4.0163    9.8915 O   0  0  0  0  0  0  0  0  0  0  0  0
   -0.2003   -4.0619    8.6472 C   0  0  0  0  0  0  0  0  0  0  0  0
   -0.5898   -3.0644    8.0116 O   0  0  0  0  0  0  0  0  0  0  0  0
    0.0797   -5.3717    7.9341 C   0  0  0  0  0  0  0  0  0  0  0  0
    0.6683   -6.4207    8.6713 C   0  0  0  0  0  0  0  0  0  0  0  0
    0.9658   -7.6606    8.0799 C   0  0  0  0  0  0  0  0  0  0  0  0
    0.6752   -7.8823    6.7313 C   0  0  0  0  0  0  0  0  0  0  0  0
    0.8852   -9.0263    5.9903 N   0  0  0  0  0  0  0  0  0  0  0  0
    0.3876   -8.6759    4.8125 C   0  0  0  0  0  0  0  0  0  0  0  0
   -0.0978   -7.4097    4.7070 N   0  0  0  0  0  0  0  0  0  0  0  0
    0.0766   -6.8348    5.9709 C   0  0  0  0  0  0  0  0  0  0  0  0
   -0.2195   -5.5768    6.5694 C   0  0  0  0  0  0  0  0  0  0  0  0
   -0.6914   -6.9273    3.4530 C   0  0  0  0  0  0  0  0  0  0  0  0
   -0.3273   -7.8205    2.2097 C   0  0  1  0  0  0  0  0  0  0  0  0
    1.0706   -7.5173    1.6420 C   0  0  0  0  0  0  0  0  0  0  0  0
    1.0617   -6.2605    0.9753 O   0  0  0  0  0  0  0  0  0  0  0  0
   -0.4654   -9.2217    2.5496 N   0  0  0  0  0  0  0  0  0  0  0  0
    0.4141   -9.6149    3.6356 C   0  0  0  0  0  0  0  0  0  0  0  0
    0.9255   -6.2676    9.7151 H   0  0  0  0  0  0  0  0  0  0  0  0
    1.4257   -8.4444    8.6467 H   0  0  0  0  0  0  0  0  0  0  0  0
   -0.6755   -4.7925    6.0183 H   0  0  0  0  0  0  0  0  0  0  0  0
   -1.7812   -6.8977    3.5661 H   0  0  0  0  0  0  0  0  0  0  0  0
   -0.3286   -5.9192    3.2682 H   0  0  0  0  0  0  0  0  0  0  0  0
   -1.0392   -7.6590    1.4099 H   0  0  0  0  0  0  0  0  0  0  0  0
    1.7986   -7.4997    2.4543 H   0  0  0  0  0  0  0  0  0  0  0  0
    1.4031   -8.2725    0.9261 H   0  0  0  0  0  0  0  0  0  0  0  0
    1.9582   -6.0919    0.7199 H   0  0  0  0  0  0  0  0  0  0  0  0
   -0.2457   -9.7800    1.7307 H   0  0  0  0  0  0  0  0  0  0  0  0
    1.4345   -9.7058    3.2819 H   0  0  0  0  0  0  0  0  0  0  0  0
    0.1730  -10.6173    3.9684 H   0  0  0  0  0  0  0  0  0  0  0  0
  1  2  2  0
  2  3  1  0
  2  4  1  0
  4 12  2  0
  4  5  1  0
  5  6  2  0
  5 19  1  0
  6  7  1  0
  6 20  1  0
  7 11  2  0
  7  8  1  0
  8  9  2  0
  9 18  1  0
  9 10  1  0
 10 11  1  0
 10 13  1  0
 11 12  1  0
 12 21  1  0
 13 14  1  0
 13 22  1  0
 13 23  1  0
 14 15  1  0
 14 17  1  0
 14 24  1  6
 15 16  1  0
 15 25  1  0
 15 26  1  0
 16 27  1  0
 17 18  1  0
 17 28  1  0
 18 29  1  0
 18 30  1  0
M  CHG  1   3  -1
M  END
>  <i_m_ct_stereo_status>  (370) 
1

>  <s_m_source_file>  (370) 
/var/tmp/pbs.5076255.sched01/tmp277fsmq3/144xeprw1xa.sdf

>  <i_m_source_file_index>  (370) 
9

>  <i_lp_mmshare_version>  (370) 
48012

>  <i_f3d_flags>  (370) 
0

>  <s_epik_input>  (370) 
Tz1DKFtPSF0pYyhbY0hdW2NIXTEpW2NIXWMoYzEyKW4zYyhuMilbQ0gyXVtOSF1bQ0BASF0oW0NIMl0zKVtDSDJdW09IXQ==

>  <s_epik_cmdline>  (370) 
J2VwaWtfcHl0aG9uJywgJy1waHQnLCAnMi4wJywgJy1waCcsICc3LjAnLCAnLXRuJywgJzgnLCAnLW1hJywgJzIwMCcsICctaW1hZScsICc8aW5maWxlLm1hZT4nLCAnLW9tYWUnLCAnPG91dGZpbGUubWFlPic=

>  <r_epik_Ionization_Penalty>  (370) 
0.329764

>  <r_epik_Ionization_Penalty_Charging>  (370) 
0.000505029

>  <r_epik_Ionization_Penalty_Neutral>  (370) 
0.329259

>  <r_epik_State_Penalty>  (370) 
0.280815

>  <r_epik_Charging_Adjusted_Penalty>  (370) 
0.28132

>  <i_epik_Tot_Q>  (370) 
-1

>  <i_epik_Tot_abs_Q>  (370) 
1

>  <s_lp_Force_Field>  (370) 
OPLS3e

>  <r_lp_Energy>  (370) 
31.7745

>  <b_lp_Chiralities_Consistent>  (370) 
1

>  <s_lp_Variant>  (370) 
89:0-1

>  <s_i_glide_gridfile>  (370) 
pfpi4k_grid

>  <i_i_glide_lignum>  (370) 
9

>  <i_i_glide_rotatable_bonds>  (370) 
3

>  <r_i_docking_score>  (370) 
-4.03842

>  <r_i_glide_ligand_efficiency>  (370) 
-0.224357

>  <r_i_glide_ligand_efficiency_sa>  (370) 
-0.587981

>  <r_i_glide_ligand_efficiency_ln>  (370) 
-1.03806

>  <r_i_glide_gscore>  (370) 
-4.03842

>  <r_i_glide_lipo>  (370) 
-0.0231686

>  <r_i_glide_hbond>  (370) 
-0.590354

>  <r_i_glide_metal>  (370) 
-0

>  <r_i_glide_rewards>  (370) 
-1.73017

>  <r_i_glide_evdw>  (370) 
-17.4123

>  <r_i_glide_ecoul>  (370) 
-6.79737

>  <r_i_glide_erotb>  (370) 
0.287359

>  <r_i_glide_esite>  (370) 
-0.091871

>  <r_i_glide_emodel>  (370) 
-34.5911

>  <r_i_glide_energy>  (370) 
-24.2097

>  <r_i_glide_einternal>  (370) 
0.50088

>  <r_i_glide_intrahb_reward>  (370) 
-0

>  <i_i_glide_confnum>  (370) 
4

>  <i_i_glide_posenum>  (370) 
2

>  <r_i_glide_eff_state_penalty>  (370) 
0

>  <ligand_id>  (370) 
89

>  <original_smiles>  (370) 
O=C(O)c1ccc2nc3n(c2c1)CC(CO)NC3

>  <smiles>  (370) 
[H]OC([H])([H])C1([H])N([H])C([H])([H])c2nc3c([H])c([H])c(C(=O)[O-])c([H])c3n2C1([H])[H]

$$$$
89:0:2
     RDKit          3D

 30 32  0  0  1  0  0  0  0  0999 V2000
   -0.2186   -1.3063    6.8025 O   0  0  0  0  0  0  0  0  0  0  0  0
   -0.1837   -2.5561    6.8889 C   0  0  0  0  0  0  0  0  0  0  0  0
   -0.5831   -3.1409    7.9111 O   0  0  0  0  0  0  0  0  0  0  0  0
    0.3581   -3.3295    5.7015 C   0  0  0  0  0  0  0  0  0  0  0  0
    1.0467   -2.6314    4.6956 C   0  0  0  0  0  0  0  0  0  0  0  0
    1.5874   -3.2844    3.5680 C   0  0  0  0  0  0  0  0  0  0  0  0
    1.4271   -4.6537    3.4159 C   0  0  0  0  0  0  0  0  0  0  0  0
    1.8293   -5.4620    2.3719 N   0  0  0  0  0  0  0  0  0  0  0  0
    1.4200   -6.6440    2.7830 C   0  0  0  0  0  0  0  0  0  0  0  0
    0.7462   -6.7000    3.9596 N   0  0  0  0  0  0  0  0  0  0  0  0
    0.7252   -5.3818    4.4324 C   0  0  0  0  0  0  0  0  0  0  0  0
    0.2009   -4.7278    5.5677 C   0  0  0  0  0  0  0  0  0  0  0  0
    0.2503   -7.9606    4.5220 C   0  0  0  0  0  0  0  0  0  0  0  0
    0.2215   -9.1132    3.4528 C   0  0  1  0  0  0  0  0  0  0  0  0
   -1.0054   -9.0834    2.5026 C   0  0  0  0  0  0  0  0  0  0  0  0
   -2.1695   -9.0605    3.2732 O   0  0  0  0  0  0  0  0  0  0  0  0
    1.4618   -9.1113    2.6969 N   0  0  0  0  0  0  0  0  0  0  0  0
    1.6469   -7.8806    1.9714 C   0  0  0  0  0  0  0  0  0  0  0  0
    1.1834   -1.5723    4.7961 H   0  0  0  0  0  0  0  0  0  0  0  0
    2.1115   -2.7255    2.8129 H   0  0  0  0  0  0  0  0  0  0  0  0
   -0.3353   -5.2849    6.3109 H   0  0  0  0  0  0  0  0  0  0  0  0
    0.8941   -8.2745    5.3492 H   0  0  0  0  0  0  0  0  0  0  0  0
   -0.7431   -7.8235    4.9479 H   0  0  0  0  0  0  0  0  0  0  0  0
    0.2135  -10.0752    3.9501 H   0  0  0  0  0  0  0  0  0  0  0  0
   -1.0153   -8.1762    1.8915 H   0  0  0  0  0  0  0  0  0  0  0  0
   -1.0363   -9.9471    1.8207 H   0  0  0  0  0  0  0  0  0  0  0  0
   -2.1590   -9.7849    3.9027 H   0  0  0  0  0  0  0  0  0  0  0  0
    1.4473   -9.8662    2.0196 H   0  0  0  0  0  0  0  0  0  0  0  0
    1.0226   -7.8583    1.0901 H   0  0  0  0  0  0  0  0  0  0  0  0
    2.6395   -7.8695    1.5575 H   0  0  0  0  0  0  0  0  0  0  0  0
  1  2  2  0
  2  3  1  0
  2  4  1  0
  4 12  2  0
  4  5  1  0
  5  6  2  0
  5 19  1  0
  6  7  1  0
  6 20  1  0
  7 11  2  0
  7  8  1  0
  8  9  2  0
  9 18  1  0
  9 10  1  0
 10 11  1  0
 10 13  1  0
 11 12  1  0
 12 21  1  0
 13 14  1  0
 13 22  1  0
 13 23  1  0
 14 15  1  0
 14 17  1  0
 14 24  1  1
 15 16  1  0
 15 25  1  0
 15 26  1  0
 16 27  1  0
 17 18  1  0
 17 28  1  0
 18 29  1  0
 18 30  1  0
M  CHG  1   3  -1
M  END
>  <i_m_ct_stereo_status>  (371) 
1

>  <s_m_source_file>  (371) 
/var/tmp/pbs.5076255.sched01/tmp277fsmq3/144xeprw1xa.sdf

>  <i_m_source_file_index>  (371) 
9

>  <i_lp_mmshare_version>  (371) 
48012

>  <i_f3d_flags>  (371) 
0

>  <s_epik_input>  (371) 
Tz1DKFtPSF0pYyhbY0hdW2NIXTEpW2NIXWMoYzEyKW4zYyhuMilbQ0gyXVtOSF1bQ0BASF0oW0NIMl0zKVtDSDJdW09IXQ==

>  <s_epik_cmdline>  (371) 
J2VwaWtfcHl0aG9uJywgJy1waHQnLCAnMi4wJywgJy1waCcsICc3LjAnLCAnLXRuJywgJzgnLCAnLW1hJywgJzIwMCcsICctaW1hZScsICc8aW5maWxlLm1hZT4nLCAnLW9tYWUnLCAnPG91dGZpbGUubWFlPic=

>  <r_epik_Ionization_Penalty>  (371) 
0.329764

>  <r_epik_Ionization_Penalty_Charging>  (371) 
0.000505029

>  <r_epik_Ionization_Penalty_Neutral>  (371) 
0.329259

>  <r_epik_State_Penalty>  (371) 
0.280815

>  <r_epik_Charging_Adjusted_Penalty>  (371) 
0.28132

>  <i_epik_Tot_Q>  (371) 
-1

>  <i_epik_Tot_abs_Q>  (371) 
1

>  <s_lp_Force_Field>  (371) 
OPLS3e

>  <r_lp_Energy>  (371) 
31.7745

>  <b_lp_Chiralities_Consistent>  (371) 
1

>  <s_lp_Variant>  (371) 
89:0-1

>  <s_i_glide_gridfile>  (371) 
pfpi4k_grid

>  <i_i_glide_lignum>  (371) 
9

>  <i_i_glide_rotatable_bonds>  (371) 
3

>  <r_i_docking_score>  (371) 
-3.88679

>  <r_i_glide_ligand_efficiency>  (371) 
-0.215933

>  <r_i_glide_ligand_efficiency_sa>  (371) 
-0.565904

>  <r_i_glide_ligand_efficiency_ln>  (371) 
-0.999079

>  <r_i_glide_gscore>  (371) 
-3.88679

>  <r_i_glide_lipo>  (371) 
-0.153326

>  <r_i_glide_hbond>  (371) 
-0.275978

>  <r_i_glide_metal>  (371) 
-0

>  <r_i_glide_rewards>  (371) 
-1.73017

>  <r_i_glide_evdw>  (371) 
-15.1602

>  <r_i_glide_ecoul>  (371) 
-7.77193

>  <r_i_glide_erotb>  (371) 
0.287359

>  <r_i_glide_esite>  (371) 
-0.0908762

>  <r_i_glide_emodel>  (371) 
-32.5611

>  <r_i_glide_energy>  (371) 
-22.9321

>  <r_i_glide_einternal>  (371) 
0.985115

>  <r_i_glide_intrahb_reward>  (371) 
-0

>  <i_i_glide_confnum>  (371) 
5

>  <i_i_glide_posenum>  (371) 
31

>  <r_i_glide_eff_state_penalty>  (371) 
0

>  <ligand_id>  (371) 
89

>  <original_smiles>  (371) 
O=C(O)c1ccc2nc3n(c2c1)CC(CO)NC3

>  <smiles>  (371) 
[H]OC([H])([H])C1([H])N([H])C([H])([H])c2nc3c([H])c([H])c(C(=O)[O-])c([H])c3n2C1([H])[H]

$$$$
89:1:0
     RDKit          3D

 31 33  0  0  1  0  0  0  0  0999 V2000
   -1.9564   -1.8099    5.6708 O   0  0  0  0  0  0  0  0  0  0  0  0
   -1.5824   -0.6242    5.6492 C   0  0  0  0  0  0  0  0  0  0  0  0
   -2.1043    0.2274    6.4180 O   0  0  0  0  0  0  0  0  0  0  0  0
   -0.4724   -0.1737    4.7318 C   0  0  0  0  0  0  0  0  0  0  0  0
   -0.2138    1.2143    4.6347 C   0  0  0  0  0  0  0  0  0  0  0  0
    0.8001    1.7546    3.8337 C   0  0  0  0  0  0  0  0  0  0  0  0
    1.5513    0.8249    3.1295 C   0  0  0  0  0  0  0  0  0  0  0  0
    2.6062    1.0716    2.2682 N   0  0  0  0  0  0  0  0  0  0  0  0
    3.0727   -0.1023    1.7937 C   0  0  0  0  0  0  0  0  0  0  0  0
    2.3537   -1.1073    2.3497 N   0  0  0  0  0  0  0  0  0  0  0  0
    1.3530   -0.5741    3.1914 C   0  0  0  0  0  0  0  0  0  0  0  0
    0.3145   -1.1076    4.0003 C   0  0  0  0  0  0  0  0  0  0  0  0
    2.5747   -2.5182    2.0018 C   0  0  0  0  0  0  0  0  0  0  0  0
    3.9059   -2.7329    1.1805 C   0  0  1  0  0  0  0  0  0  0  0  0
    4.0023   -4.0868    0.4313 C   0  0  0  0  0  0  0  0  0  0  0  0
    2.8332   -4.3334   -0.3259 O   0  0  0  0  0  0  0  0  0  0  0  0
    4.1748   -1.6392    0.2375 N   0  0  0  0  0  0  0  0  0  0  0  0
    4.2060   -0.3088    0.8466 C   0  0  0  0  0  0  0  0  0  0  0  0
   -0.8247    1.8998    5.1977 H   0  0  0  0  0  0  0  0  0  0  0  0
    0.9959    2.8155    3.7484 H   0  0  0  0  0  0  0  0  0  0  0  0
    0.1370   -2.1681    4.0657 H   0  0  0  0  0  0  0  0  0  0  0  0
    2.5706   -3.1573    2.8929 H   0  0  0  0  0  0  0  0  0  0  0  0
    1.7407   -2.7987    1.3611 H   0  0  0  0  0  0  0  0  0  0  0  0
    4.7410   -2.7076    1.8768 H   0  0  0  0  0  0  0  0  0  0  0  0
    4.8918   -4.1746   -0.2061 H   0  0  0  0  0  0  0  0  0  0  0  0
    4.0767   -4.8899    1.1560 H   0  0  0  0  0  0  0  0  0  0  0  0
    3.0171   -4.9754   -1.0063 H   0  0  0  0  0  0  0  0  0  0  0  0
    3.5072   -1.6607   -0.5267 H   0  0  0  0  0  0  0  0  0  0  0  0
    4.2135    0.4508    0.0739 H   0  0  0  0  0  0  0  0  0  0  0  0
    5.1501   -0.1733    1.3706 H   0  0  0  0  0  0  0  0  0  0  0  0
    3.0009    1.9624    2.0255 H   0  0  0  0  0  0  0  0  0  0  0  0
  1  2  2  0
  2  3  1  0
  2  4  1  0
  4 12  2  0
  4  5  1  0
  5  6  2  0
  5 19  1  0
  6  7  1  0
  6 20  1  0
  7 11  2  0
  7  8  1  0
  8  9  2  0
  8 31  1  0
  9 18  1  0
  9 10  1  0
 10 11  1  0
 10 13  1  0
 11 12  1  0
 12 21  1  0
 13 14  1  0
 13 22  1  0
 13 23  1  0
 14 15  1  0
 14 17  1  0
 14 24  1  1
 15 16  1  0
 15 25  1  0
 15 26  1  0
 16 27  1  0
 17 18  1  0
 17 28  1  0
 18 29  1  0
 18 30  1  0
M  CHG  2   3  -1   8   1
M  END
>  <i_m_ct_stereo_status>  (372) 
1

>  <s_m_source_file>  (372) 
/var/tmp/pbs.5076255.sched01/tmp277fsmq3/144xeprw1xa.sdf

>  <i_m_source_file_index>  (372) 
10

>  <i_lp_mmshare_version>  (372) 
48012

>  <i_f3d_flags>  (372) 
0

>  <s_epik_input>  (372) 
Tz1DKFtPSF0pYyhbY0hdW2NIXTEpW2NIXWMoYzEyKW4zYyhuMilbQ0gyXVtOSF1bQ0BASF0oW0NIMl0zKVtDSDJdW09IXQ==

>  <s_epik_cmdline>  (372) 
J2VwaWtfcHl0aG9uJywgJy1waHQnLCAnMi4wJywgJy1waCcsICc3LjAnLCAnLXRuJywgJzgnLCAnLW1hJywgJzIwMCcsICctaW1hZScsICc8aW5maWxlLm1hZT4nLCAnLW9tYWUnLCAnPG91dGZpbGUubWFlPic=

>  <r_epik_Ionization_Penalty>  (372) 
0.724035

>  <r_epik_Ionization_Penalty_Charging>  (372) 
0.70131

>  <r_epik_Ionization_Penalty_Neutral>  (372) 
0.0227255

>  <r_epik_State_Penalty>  (372) 
0.798045

>  <r_epik_Charging_Adjusted_Penalty>  (372) 
1.49936

>  <i_epik_Tot_Q>  (372) 
0

>  <i_epik_Tot_abs_Q>  (372) 
2

>  <s_lp_Force_Field>  (372) 
OPLS3e

>  <r_lp_Energy>  (372) 
30.9956

>  <b_lp_Chiralities_Consistent>  (372) 
1

>  <s_lp_Variant>  (372) 
89:0-2

>  <s_i_glide_gridfile>  (372) 
pfpi4k_grid

>  <i_i_glide_lignum>  (372) 
10

>  <i_i_glide_rotatable_bonds>  (372) 
3

>  <r_i_docking_score>  (372) 
-4.54324

>  <r_i_glide_ligand_efficiency>  (372) 
-0.252402

>  <r_i_glide_ligand_efficiency_sa>  (372) 
-0.66148

>  <r_i_glide_ligand_efficiency_ln>  (372) 
-1.16782

>  <r_i_glide_gscore>  (372) 
-4.54324

>  <r_i_glide_lipo>  (372) 
-0.145191

>  <r_i_glide_hbond>  (372) 
-0.52

>  <r_i_glide_metal>  (372) 
-0

>  <r_i_glide_rewards>  (372) 
-1.7233

>  <r_i_glide_evdw>  (372) 
-15.2834

>  <r_i_glide_ecoul>  (372) 
-10.5024

>  <r_i_glide_erotb>  (372) 
0.285357

>  <r_i_glide_esite>  (372) 
-0.100572

>  <r_i_glide_emodel>  (372) 
-33.9954

>  <r_i_glide_energy>  (372) 
-25.7858

>  <r_i_glide_einternal>  (372) 
7.97699

>  <r_i_glide_intrahb_reward>  (372) 
-0

>  <i_i_glide_confnum>  (372) 
3

>  <i_i_glide_posenum>  (372) 
33

>  <r_i_glide_eff_state_penalty>  (372) 
0

>  <ligand_id>  (372) 
89

>  <original_smiles>  (372) 
O=C(O)c1ccc2nc3n(c2c1)CC(CO)NC3

>  <smiles>  (372) 
[H]OC([H])([H])C1([H])N([H])C([H])([H])c2n(c3c([H])c(C(=O)[O-])c([H])c([H])c3[n+]2[H])C1([H])[H]

$$$$
89:1:1
     RDKit          3D

 31 33  0  0  1  0  0  0  0  0999 V2000
   -2.0700    0.5223    6.5168 O   0  0  0  0  0  0  0  0  0  0  0  0
   -1.6201   -0.2973    5.6967 C   0  0  0  0  0  0  0  0  0  0  0  0
   -2.0940   -1.4550    5.6067 O   0  0  0  0  0  0  0  0  0  0  0  0
   -0.4401    0.1138    4.8666 C   0  0  0  0  0  0  0  0  0  0  0  0
    0.0195    1.4457    5.0213 C   0  0  0  0  0  0  0  0  0  0  0  0
    1.0982    1.9653    4.2925 C   0  0  0  0  0  0  0  0  0  0  0  0
    1.6920    1.0814    3.4121 C   0  0  0  0  0  0  0  0  0  0  0  0
    2.7581    1.3122    2.5586 N   0  0  0  0  0  0  0  0  0  0  0  0
    3.0437    0.1809    1.8886 C   0  0  0  0  0  0  0  0  0  0  0  0
    2.1949   -0.7896    2.2925 N   0  0  0  0  0  0  0  0  0  0  0  0
    1.2980   -0.2704    3.2420 C   0  0  0  0  0  0  0  0  0  0  0  0
    0.2049   -0.7847    3.9860 C   0  0  0  0  0  0  0  0  0  0  0  0
    2.2111   -2.1356    1.7084 C   0  0  0  0  0  0  0  0  0  0  0  0
    3.4794   -2.3883    0.8079 C   0  0  1  0  0  0  0  0  0  0  0  0
    3.3677   -3.5802   -0.1725 C   0  0  0  0  0  0  0  0  0  0  0  0
    2.2128   -3.4663   -0.9794 O   0  0  0  0  0  0  0  0  0  0  0  0
    3.8923   -1.1978    0.0554 N   0  0  0  0  0  0  0  0  0  0  0  0
    4.1215   -0.0194    0.8840 C   0  0  0  0  0  0  0  0  0  0  0  0
   -0.4779    2.0963    5.7147 H   0  0  0  0  0  0  0  0  0  0  0  0
    1.4424    2.9844    4.3890 H   0  0  0  0  0  0  0  0  0  0  0  0
   -0.1204   -1.8102    3.8828 H   0  0  0  0  0  0  0  0  0  0  0  0
    2.1162   -2.9165    2.4722 H   0  0  0  0  0  0  0  0  0  0  0  0
    1.3519   -2.1882    1.0475 H   0  0  0  0  0  0  0  0  0  0  0  0
    4.3195   -2.6061    1.4639 H   0  0  0  0  0  0  0  0  0  0  0  0
    4.2545   -3.7274   -0.8039 H   0  0  0  0  0  0  0  0  0  0  0  0
    3.2591   -4.4973    0.3928 H   0  0  0  0  0  0  0  0  0  0  0  0
    2.0262   -2.5420   -1.1303 H   0  0  0  0  0  0  0  0  0  0  0  0
    3.2271   -0.9684   -0.6779 H   0  0  0  0  0  0  0  0  0  0  0  0
    4.1991    0.8516    0.2337 H   0  0  0  0  0  0  0  0  0  0  0  0
    5.0888   -0.1066    1.3789 H   0  0  0  0  0  0  0  0  0  0  0  0
    3.2864    2.1589    2.4448 H   0  0  0  0  0  0  0  0  0  0  0  0
  1  2  2  0
  2  3  1  0
  2  4  1  0
  4 12  2  0
  4  5  1  0
  5  6  2  0
  5 19  1  0
  6  7  1  0
  6 20  1  0
  7 11  2  0
  7  8  1  0
  8  9  2  0
  8 31  1  0
  9 18  1  0
  9 10  1  0
 10 11  1  0
 10 13  1  0
 11 12  1  0
 12 21  1  0
 13 14  1  0
 13 22  1  0
 13 23  1  0
 14 15  1  0
 14 17  1  0
 14 24  1  1
 15 16  1  0
 15 25  1  0
 15 26  1  0
 16 27  1  0
 17 18  1  0
 17 28  1  0
 18 29  1  0
 18 30  1  0
M  CHG  2   3  -1   8   1
M  END
>  <i_m_ct_stereo_status>  (373) 
1

>  <s_m_source_file>  (373) 
/var/tmp/pbs.5076255.sched01/tmp277fsmq3/144xeprw1xa.sdf

>  <i_m_source_file_index>  (373) 
10

>  <i_lp_mmshare_version>  (373) 
48012

>  <i_f3d_flags>  (373) 
0

>  <s_epik_input>  (373) 
Tz1DKFtPSF0pYyhbY0hdW2NIXTEpW2NIXWMoYzEyKW4zYyhuMilbQ0gyXVtOSF1bQ0BASF0oW0NIMl0zKVtDSDJdW09IXQ==

>  <s_epik_cmdline>  (373) 
J2VwaWtfcHl0aG9uJywgJy1waHQnLCAnMi4wJywgJy1waCcsICc3LjAnLCAnLXRuJywgJzgnLCAnLW1hJywgJzIwMCcsICctaW1hZScsICc8aW5maWxlLm1hZT4nLCAnLW9tYWUnLCAnPG91dGZpbGUubWFlPic=

>  <r_epik_Ionization_Penalty>  (373) 
0.724035

>  <r_epik_Ionization_Penalty_Charging>  (373) 
0.70131

>  <r_epik_Ionization_Penalty_Neutral>  (373) 
0.0227255

>  <r_epik_State_Penalty>  (373) 
0.798045

>  <r_epik_Charging_Adjusted_Penalty>  (373) 
1.49936

>  <i_epik_Tot_Q>  (373) 
0

>  <i_epik_Tot_abs_Q>  (373) 
2

>  <s_lp_Force_Field>  (373) 
OPLS3e

>  <r_lp_Energy>  (373) 
30.9956

>  <b_lp_Chiralities_Consistent>  (373) 
1

>  <s_lp_Variant>  (373) 
89:0-2

>  <s_i_glide_gridfile>  (373) 
pfpi4k_grid

>  <i_i_glide_lignum>  (373) 
10

>  <i_i_glide_rotatable_bonds>  (373) 
3

>  <r_i_docking_score>  (373) 
-4.28543

>  <r_i_glide_ligand_efficiency>  (373) 
-0.238079

>  <r_i_glide_ligand_efficiency_sa>  (373) 
-0.623944

>  <r_i_glide_ligand_efficiency_ln>  (373) 
-1.10155

>  <r_i_glide_gscore>  (373) 
-4.28543

>  <r_i_glide_lipo>  (373) 
-0.0798874

>  <r_i_glide_hbond>  (373) 
-0.353421

>  <r_i_glide_metal>  (373) 
-0

>  <r_i_glide_rewards>  (373) 
-1.77011

>  <r_i_glide_evdw>  (373) 
-15.1805

>  <r_i_glide_ecoul>  (373) 
-10.0034

>  <r_i_glide_erotb>  (373) 
0.285357

>  <r_i_glide_esite>  (373) 
-0.107834

>  <r_i_glide_emodel>  (373) 
-32.2506

>  <r_i_glide_energy>  (373) 
-25.1839

>  <r_i_glide_einternal>  (373) 
7.72278

>  <r_i_glide_intrahb_reward>  (373) 
-0

>  <i_i_glide_confnum>  (373) 
3

>  <i_i_glide_posenum>  (373) 
1

>  <r_i_glide_eff_state_penalty>  (373) 
0

>  <ligand_id>  (373) 
89

>  <original_smiles>  (373) 
O=C(O)c1ccc2nc3n(c2c1)CC(CO)NC3

>  <smiles>  (373) 
[H]OC([H])([H])C1([H])N([H])C([H])([H])c2n(c3c([H])c(C(=O)[O-])c([H])c([H])c3[n+]2[H])C1([H])[H]

$$$$
89:1:2
     RDKit          3D

 31 33  0  0  1  0  0  0  0  0999 V2000
   -2.0431    0.1526    6.4216 O   0  0  0  0  0  0  0  0  0  0  0  0
   -1.6486   -0.7436    5.6287 C   0  0  0  0  0  0  0  0  0  0  0  0
   -2.1057   -1.8996    5.6798 O   0  0  0  0  0  0  0  0  0  0  0  0
   -0.6023   -0.3900    4.6102 C   0  0  0  0  0  0  0  0  0  0  0  0
   -0.4860    0.9654    4.2211 C   0  0  0  0  0  0  0  0  0  0  0  0
    0.4396    1.4010    3.2627 C   0  0  0  0  0  0  0  0  0  0  0  0
    1.2551    0.4169    2.7270 C   0  0  0  0  0  0  0  0  0  0  0  0
    2.2482    0.5722    1.7764 N   0  0  0  0  0  0  0  0  0  0  0  0
    2.8150   -0.6247    1.5219 C   0  0  0  0  0  0  0  0  0  0  0  0
    2.2201   -1.5609    2.2994 N   0  0  0  0  0  0  0  0  0  0  0  0
    1.1969   -0.9629    3.0884 C   0  0  0  0  0  0  0  0  0  0  0  0
    0.2486   -1.3868    4.0392 C   0  0  0  0  0  0  0  0  0  0  0  0
    2.5676   -2.9939    2.2381 C   0  0  0  0  0  0  0  0  0  0  0  0
    3.8830   -3.2404    1.4066 C   0  0  1  0  0  0  0  0  0  0  0  0
    4.0725   -4.7065    0.9557 C   0  0  0  0  0  0  0  0  0  0  0  0
    2.9482   -5.1832    0.2424 O   0  0  0  0  0  0  0  0  0  0  0  0
    4.0023   -2.3428    0.2476 N   0  0  0  0  0  0  0  0  0  0  0  0
    3.9242   -0.9190    0.5684 C   0  0  0  0  0  0  0  0  0  0  0  0
   -1.1505    1.6948    4.6613 H   0  0  0  0  0  0  0  0  0  0  0  0
    0.5204    2.4403    2.9464 H   0  0  0  0  0  0  0  0  0  0  0  0
    0.1569   -2.4206    4.3343 H   0  0  0  0  0  0  0  0  0  0  0  0
    2.6552   -3.4140    3.2453 H   0  0  0  0  0  0  0  0  0  0  0  0
    1.7440   -3.4930    1.7303 H   0  0  0  0  0  0  0  0  0  0  0  0
    4.7286   -3.0036    2.0495 H   0  0  0  0  0  0  0  0  0  0  0  0
    4.9751   -4.8651    0.3593 H   0  0  0  0  0  0  0  0  0  0  0  0
    4.1854   -5.3333    1.8345 H   0  0  0  0  0  0  0  0  0  0  0  0
    3.0362   -4.9539   -0.6732 H   0  0  0  0  0  0  0  0  0  0  0  0
    3.3157   -2.5659   -0.4645 H   0  0  0  0  0  0  0  0  0  0  0  0
    3.8042   -0.3540   -0.3505 H   0  0  0  0  0  0  0  0  0  0  0  0
    4.8642   -0.5852    1.0015 H   0  0  0  0  0  0  0  0  0  0  0  0
    2.5219    1.4330    1.3222 H   0  0  0  0  0  0  0  0  0  0  0  0
  1  2  2  0
  2  3  1  0
  2  4  1  0
  4 12  2  0
  4  5  1  0
  5  6  2  0
  5 19  1  0
  6  7  1  0
  6 20  1  0
  7 11  2  0
  7  8  1  0
  8  9  2  0
  8 31  1  0
  9 18  1  0
  9 10  1  0
 10 11  1  0
 10 13  1  0
 11 12  1  0
 12 21  1  0
 13 14  1  0
 13 22  1  0
 13 23  1  0
 14 15  1  0
 14 17  1  0
 14 24  1  1
 15 16  1  0
 15 25  1  0
 15 26  1  0
 16 27  1  0
 17 18  1  0
 17 28  1  0
 18 29  1  0
 18 30  1  0
M  CHG  2   3  -1   8   1
M  END
>  <i_m_ct_stereo_status>  (374) 
1

>  <s_m_source_file>  (374) 
/var/tmp/pbs.5076255.sched01/tmp277fsmq3/144xeprw1xa.sdf

>  <i_m_source_file_index>  (374) 
10

>  <i_lp_mmshare_version>  (374) 
48012

>  <i_f3d_flags>  (374) 
0

>  <s_epik_input>  (374) 
Tz1DKFtPSF0pYyhbY0hdW2NIXTEpW2NIXWMoYzEyKW4zYyhuMilbQ0gyXVtOSF1bQ0BASF0oW0NIMl0zKVtDSDJdW09IXQ==

>  <s_epik_cmdline>  (374) 
J2VwaWtfcHl0aG9uJywgJy1waHQnLCAnMi4wJywgJy1waCcsICc3LjAnLCAnLXRuJywgJzgnLCAnLW1hJywgJzIwMCcsICctaW1hZScsICc8aW5maWxlLm1hZT4nLCAnLW9tYWUnLCAnPG91dGZpbGUubWFlPic=

>  <r_epik_Ionization_Penalty>  (374) 
0.724035

>  <r_epik_Ionization_Penalty_Charging>  (374) 
0.70131

>  <r_epik_Ionization_Penalty_Neutral>  (374) 
0.0227255

>  <r_epik_State_Penalty>  (374) 
0.798045

>  <r_epik_Charging_Adjusted_Penalty>  (374) 
1.49936

>  <i_epik_Tot_Q>  (374) 
0

>  <i_epik_Tot_abs_Q>  (374) 
2

>  <s_lp_Force_Field>  (374) 
OPLS3e

>  <r_lp_Energy>  (374) 
30.9956

>  <b_lp_Chiralities_Consistent>  (374) 
1

>  <s_lp_Variant>  (374) 
89:0-2

>  <s_i_glide_gridfile>  (374) 
pfpi4k_grid

>  <i_i_glide_lignum>  (374) 
10

>  <i_i_glide_rotatable_bonds>  (374) 
3

>  <r_i_docking_score>  (374) 
-4.01907

>  <r_i_glide_ligand_efficiency>  (374) 
-0.223282

>  <r_i_glide_ligand_efficiency_sa>  (374) 
-0.585163

>  <r_i_glide_ligand_efficiency_ln>  (374) 
-1.03308

>  <r_i_glide_gscore>  (374) 
-4.01907

>  <r_i_glide_lipo>  (374) 
-0.0288198

>  <r_i_glide_hbond>  (374) 
-0.300068

>  <r_i_glide_metal>  (374) 
-0

>  <r_i_glide_rewards>  (374) 
-1.7233

>  <r_i_glide_evdw>  (374) 
-14.888

>  <r_i_glide_ecoul>  (374) 
-8.88499

>  <r_i_glide_erotb>  (374) 
0.285357

>  <r_i_glide_esite>  (374) 
-0.175091

>  <r_i_glide_emodel>  (374) 
-29.8913

>  <r_i_glide_energy>  (374) 
-23.773

>  <r_i_glide_einternal>  (374) 
8.49588

>  <r_i_glide_intrahb_reward>  (374) 
-0

>  <i_i_glide_confnum>  (374) 
3

>  <i_i_glide_posenum>  (374) 
5

>  <r_i_glide_eff_state_penalty>  (374) 
0

>  <ligand_id>  (374) 
89

>  <original_smiles>  (374) 
O=C(O)c1ccc2nc3n(c2c1)CC(CO)NC3

>  <smiles>  (374) 
[H]OC([H])([H])C1([H])N([H])C([H])([H])c2n(c3c([H])c(C(=O)[O-])c([H])c([H])c3[n+]2[H])C1([H])[H]

$$$$
89:2:0
     RDKit          3D

 31 33  0  0  1  0  0  0  0  0999 V2000
   -0.5820   -3.1040    8.5468 O   0  0  0  0  0  0  0  0  0  0  0  0
   -0.8317   -3.9254    7.6332 C   0  0  0  0  0  0  0  0  0  0  0  0
   -1.7822   -3.7031    6.8517 O   0  0  0  0  0  0  0  0  0  0  0  0
    0.0082   -5.1751    7.5211 C   0  0  0  0  0  0  0  0  0  0  0  0
    0.9935   -5.4259    8.4979 C   0  0  0  0  0  0  0  0  0  0  0  0
    1.8183   -6.5605    8.4487 C   0  0  0  0  0  0  0  0  0  0  0  0
    1.6808   -7.4995    7.4165 C   0  0  0  0  0  0  0  0  0  0  0  0
    2.3770   -8.6598    7.2078 N   0  0  0  0  0  0  0  0  0  0  0  0
    1.8050   -9.1489    6.1181 C   0  0  0  0  0  0  0  0  0  0  0  0
    0.8081   -8.4024    5.5797 N   0  0  0  0  0  0  0  0  0  0  0  0
    0.6770   -7.2706    6.4219 C   0  0  0  0  0  0  0  0  0  0  0  0
   -0.1423   -6.1164    6.4672 C   0  0  0  0  0  0  0  0  0  0  0  0
    0.0722   -8.8119    4.3868 C   0  0  0  0  0  0  0  0  0  0  0  0
    0.8318   -9.9474    3.6211 C   0  0  1  0  0  0  0  0  0  0  0  0
    1.9649   -9.4409    2.6903 C   0  0  0  0  0  0  0  0  0  0  0  0
    1.4235   -8.6302    1.6787 O   0  0  0  0  0  0  0  0  0  0  0  0
    1.3571  -10.9506    4.5660 N   0  0  0  0  0  0  0  0  0  0  0  0
    2.3466  -10.4219    5.5188 C   0  0  0  0  0  0  0  0  0  0  0  0
    1.1186   -4.7196    9.2994 H   0  0  0  0  0  0  0  0  0  0  0  0
    2.5638   -6.7169    9.2076 H   0  0  0  0  0  0  0  0  0  0  0  0
   -0.8944   -5.9538    5.7202 H   0  0  0  0  0  0  0  0  0  0  0  0
   -0.9182   -9.1758    4.6809 H   0  0  0  0  0  0  0  0  0  0  0  0
   -0.0738   -7.9704    3.7117 H   0  0  0  0  0  0  0  0  0  0  0  0
    0.1384  -10.5109    3.0026 H   0  0  0  0  0  0  0  0  0  0  0  0
    2.6580   -8.8235    3.2630 H   0  0  0  0  0  0  0  0  0  0  0  0
    2.5497  -10.2569    2.2328 H   0  0  0  0  0  0  0  0  0  0  0  0
    0.8992   -9.1655    1.0788 H   0  0  0  0  0  0  0  0  0  0  0  0
    0.6090  -11.3765    5.0886 H   0  0  0  0  0  0  0  0  0  0  0  0
    3.2895  -10.2486    5.0113 H   0  0  0  0  0  0  0  0  0  0  0  0
    2.6035  -11.1544    6.2780 H   0  0  0  0  0  0  0  0  0  0  0  0
    1.8168  -11.6761    4.0398 H   0  0  0  0  0  0  0  0  0  0  0  0
  1  2  2  0
  2  3  1  0
  2  4  1  0
  4 12  2  0
  4  5  1  0
  5  6  2  0
  5 19  1  0
  6  7  1  0
  6 20  1  0
  7 11  2  0
  7  8  1  0
  8  9  2  0
  9 18  1  0
  9 10  1  0
 10 11  1  0
 10 13  1  0
 11 12  1  0
 12 21  1  0
 13 14  1  0
 13 22  1  0
 13 23  1  0
 14 15  1  0
 14 17  1  0
 14 24  1  6
 15 16  1  0
 15 25  1  0
 15 26  1  0
 16 27  1  0
 17 18  1  0
 17 28  1  0
 17 31  1  0
 18 29  1  0
 18 30  1  0
M  CHG  2   3  -1  17   1
M  END
>  <i_m_ct_stereo_status>  (375) 
1

>  <s_m_source_file>  (375) 
/var/tmp/pbs.5076255.sched01/tmp277fsmq3/144xeprw1xa.sdf

>  <i_m_source_file_index>  (375) 
11

>  <i_lp_mmshare_version>  (375) 
48012

>  <i_f3d_flags>  (375) 
0

>  <s_epik_input>  (375) 
Tz1DKFtPSF0pYyhbY0hdW2NIXTEpW2NIXWMoYzEyKW4zYyhuMilbQ0gyXVtOSF1bQ0BASF0oW0NIMl0zKVtDSDJdW09IXQ==

>  <s_epik_cmdline>  (375) 
J2VwaWtfcHl0aG9uJywgJy1waHQnLCAnMi4wJywgJy1waCcsICc3LjAnLCAnLXRuJywgJzgnLCAnLW1hJywgJzIwMCcsICctaW1hZScsICc8aW5maWxlLm1hZT4nLCAnLW9tYWUnLCAnPG91dGZpbGUubWFlPic=

>  <r_epik_Ionization_Penalty>  (375) 
1.0393

>  <r_epik_Ionization_Penalty_Charging>  (375) 
1.03894

>  <r_epik_Ionization_Penalty_Neutral>  (375) 
0.000364567

>  <r_epik_State_Penalty>  (375) 
1.26903

>  <r_epik_Charging_Adjusted_Penalty>  (375) 
2.30797

>  <i_epik_Tot_Q>  (375) 
0

>  <i_epik_Tot_abs_Q>  (375) 
2

>  <s_lp_Force_Field>  (375) 
OPLS3e

>  <r_lp_Energy>  (375) 
29.3103

>  <b_lp_Chiralities_Consistent>  (375) 
1

>  <s_lp_Variant>  (375) 
89:0-3

>  <s_i_glide_gridfile>  (375) 
pfpi4k_grid

>  <i_i_glide_lignum>  (375) 
11

>  <i_i_glide_rotatable_bonds>  (375) 
3

>  <r_i_docking_score>  (375) 
-4.67979

>  <r_i_glide_ligand_efficiency>  (375) 
-0.259989

>  <r_i_glide_ligand_efficiency_sa>  (375) 
-0.681363

>  <r_i_glide_ligand_efficiency_ln>  (375) 
-1.20292

>  <r_i_glide_gscore>  (375) 
-4.67979

>  <r_i_glide_lipo>  (375) 
-0.046069

>  <r_i_glide_hbond>  (375) 
-0.509099

>  <r_i_glide_metal>  (375) 
-0

>  <r_i_glide_rewards>  (375) 
-1.90106

>  <r_i_glide_evdw>  (375) 
-11.4891

>  <r_i_glide_ecoul>  (375) 
-12.0805

>  <r_i_glide_erotb>  (375) 
0.285357

>  <r_i_glide_esite>  (375) 
-0.122397

>  <r_i_glide_emodel>  (375) 
-38.5524

>  <r_i_glide_energy>  (375) 
-23.5696

>  <r_i_glide_einternal>  (375) 
0.0680847

>  <r_i_glide_intrahb_reward>  (375) 
-0

>  <i_i_glide_confnum>  (375) 
4

>  <i_i_glide_posenum>  (375) 
13

>  <r_i_glide_eff_state_penalty>  (375) 
0

>  <ligand_id>  (375) 
89

>  <original_smiles>  (375) 
O=C(O)c1ccc2nc3n(c2c1)CC(CO)NC3

>  <smiles>  (375) 
[H]OC([H])([H])C1([H])C([H])([H])n2c(nc3c([H])c([H])c(C(=O)[O-])c([H])c32)C([H])([H])[N+]1([H])[H]

$$$$
89:2:1
     RDKit          3D

 31 33  0  0  1  0  0  0  0  0999 V2000
    0.6495   -0.8350   11.0425 O   0  0  0  0  0  0  0  0  0  0  0  0
    0.2275   -0.9763    9.8900 C   0  0  0  0  0  0  0  0  0  0  0  0
   -0.1982   -2.0721    9.4288 O   0  0  0  0  0  0  0  0  0  0  0  0
    0.1208    0.2423    9.0160 C   0  0  0  0  0  0  0  0  0  0  0  0
   -0.0752    1.4912    9.6306 C   0  0  0  0  0  0  0  0  0  0  0  0
   -0.2338    2.6671    8.8676 C   0  0  0  0  0  0  0  0  0  0  0  0
   -0.1889    2.6148    7.4747 C   0  0  0  0  0  0  0  0  0  0  0  0
   -0.3116    3.6313    6.5431 N   0  0  0  0  0  0  0  0  0  0  0  0
   -0.1630    2.9905    5.3992 C   0  0  0  0  0  0  0  0  0  0  0  0
    0.0236    1.6485    5.4781 N   0  0  0  0  0  0  0  0  0  0  0  0
    0.0080    1.3489    6.8462 C   0  0  0  0  0  0  0  0  0  0  0  0
    0.1435    0.1686    7.6161 C   0  0  0  0  0  0  0  0  0  0  0  0
    0.1503    0.8105    4.2899 C   0  0  0  0  0  0  0  0  0  0  0  0
    0.4007    1.6507    2.9952 C   0  0  1  0  0  0  0  0  0  0  0  0
    0.1292    0.8276    1.7125 C   0  0  0  0  0  0  0  0  0  0  0  0
    0.9930   -0.2695    1.6792 O   0  0  0  0  0  0  0  0  0  0  0  0
   -0.4078    2.8770    2.9739 N   0  0  0  0  0  0  0  0  0  0  0  0
   -0.1722    3.7758    4.1096 C   0  0  0  0  0  0  0  0  0  0  0  0
   -0.1491    1.5234   10.6983 H   0  0  0  0  0  0  0  0  0  0  0  0
   -0.3843    3.6028    9.3723 H   0  0  0  0  0  0  0  0  0  0  0  0
    0.3003   -0.7711    7.1238 H   0  0  0  0  0  0  0  0  0  0  0  0
    0.9843    0.1108    4.3863 H   0  0  0  0  0  0  0  0  0  0  0  0
   -0.7796    0.2463    4.1676 H   0  0  0  0  0  0  0  0  0  0  0  0
    1.4153    2.0423    2.9359 H   0  0  0  0  0  0  0  0  0  0  0  0
   -0.9089    0.4891    1.6672 H   0  0  0  0  0  0  0  0  0  0  0  0
    0.2708    1.4047    0.7931 H   0  0  0  0  0  0  0  0  0  0  0  0
    1.0199   -0.5678    0.7615 H   0  0  0  0  0  0  0  0  0  0  0  0
   -0.1681    3.4110    2.1285 H   0  0  0  0  0  0  0  0  0  0  0  0
   -0.9490    4.5280    4.1356 H   0  0  0  0  0  0  0  0  0  0  0  0
    0.7554    4.3111    3.9656 H   0  0  0  0  0  0  0  0  0  0  0  0
   -1.3804    2.6327    2.9607 H   0  0  0  0  0  0  0  0  0  0  0  0
  1  2  2  0
  2  3  1  0
  2  4  1  0
  4 12  2  0
  4  5  1  0
  5  6  2  0
  5 19  1  0
  6  7  1  0
  6 20  1  0
  7 11  2  0
  7  8  1  0
  8  9  2  0
  9 18  1  0
  9 10  1  0
 10 11  1  0
 10 13  1  0
 11 12  1  0
 12 21  1  0
 13 14  1  0
 13 22  1  0
 13 23  1  0
 14 15  1  0
 14 17  1  0
 14 24  1  6
 15 16  1  0
 15 25  1  0
 15 26  1  0
 16 27  1  0
 17 18  1  0
 17 28  1  0
 17 31  1  0
 18 29  1  0
 18 30  1  0
M  CHG  2   3  -1  17   1
M  END
>  <i_m_ct_stereo_status>  (376) 
1

>  <s_m_source_file>  (376) 
/var/tmp/pbs.5076255.sched01/tmp277fsmq3/144xeprw1xa.sdf

>  <i_m_source_file_index>  (376) 
11

>  <i_lp_mmshare_version>  (376) 
48012

>  <i_f3d_flags>  (376) 
0

>  <s_epik_input>  (376) 
Tz1DKFtPSF0pYyhbY0hdW2NIXTEpW2NIXWMoYzEyKW4zYyhuMilbQ0gyXVtOSF1bQ0BASF0oW0NIMl0zKVtDSDJdW09IXQ==

>  <s_epik_cmdline>  (376) 
J2VwaWtfcHl0aG9uJywgJy1waHQnLCAnMi4wJywgJy1waCcsICc3LjAnLCAnLXRuJywgJzgnLCAnLW1hJywgJzIwMCcsICctaW1hZScsICc8aW5maWxlLm1hZT4nLCAnLW9tYWUnLCAnPG91dGZpbGUubWFlPic=

>  <r_epik_Ionization_Penalty>  (376) 
1.0393

>  <r_epik_Ionization_Penalty_Charging>  (376) 
1.03894

>  <r_epik_Ionization_Penalty_Neutral>  (376) 
0.000364567

>  <r_epik_State_Penalty>  (376) 
1.26903

>  <r_epik_Charging_Adjusted_Penalty>  (376) 
2.30797

>  <i_epik_Tot_Q>  (376) 
0

>  <i_epik_Tot_abs_Q>  (376) 
2

>  <s_lp_Force_Field>  (376) 
OPLS3e

>  <r_lp_Energy>  (376) 
29.3103

>  <b_lp_Chiralities_Consistent>  (376) 
1

>  <s_lp_Variant>  (376) 
89:0-3

>  <s_i_glide_gridfile>  (376) 
pfpi4k_grid

>  <i_i_glide_lignum>  (376) 
11

>  <i_i_glide_rotatable_bonds>  (376) 
3

>  <r_i_docking_score>  (376) 
-4.43639

>  <r_i_glide_ligand_efficiency>  (376) 
-0.246466

>  <r_i_glide_ligand_efficiency_sa>  (376) 
-0.645924

>  <r_i_glide_ligand_efficiency_ln>  (376) 
-1.14035

>  <r_i_glide_gscore>  (376) 
-4.43639

>  <r_i_glide_lipo>  (376) 
0

>  <r_i_glide_hbond>  (376) 
-0.56

>  <r_i_glide_metal>  (376) 
-0

>  <r_i_glide_rewards>  (376) 
-1.7233

>  <r_i_glide_evdw>  (376) 
-8.54801

>  <r_i_glide_ecoul>  (376) 
-12.4053

>  <r_i_glide_erotb>  (376) 
0.285357

>  <r_i_glide_esite>  (376) 
-0.150261

>  <r_i_glide_emodel>  (376) 
-33.9662

>  <r_i_glide_energy>  (376) 
-20.9533

>  <r_i_glide_einternal>  (376) 
1.92825

>  <r_i_glide_intrahb_reward>  (376) 
-0

>  <i_i_glide_confnum>  (376) 
5

>  <i_i_glide_posenum>  (376) 
8

>  <r_i_glide_eff_state_penalty>  (376) 
0

>  <ligand_id>  (376) 
89

>  <original_smiles>  (376) 
O=C(O)c1ccc2nc3n(c2c1)CC(CO)NC3

>  <smiles>  (376) 
[H]OC([H])([H])C1([H])C([H])([H])n2c(nc3c([H])c([H])c(C(=O)[O-])c([H])c32)C([H])([H])[N+]1([H])[H]

$$$$
89:2:2
     RDKit          3D

 31 33  0  0  1  0  0  0  0  0999 V2000
    1.3609    5.6610    8.6061 O   0  0  0  0  0  0  0  0  0  0  0  0
    0.1398    5.3635    8.6148 C   0  0  0  0  0  0  0  0  0  0  0  0
   -0.6407    5.7438    9.5254 O   0  0  0  0  0  0  0  0  0  0  0  0
   -0.4387    4.5149    7.5004 C   0  0  0  0  0  0  0  0  0  0  0  0
   -1.7787    4.0762    7.6208 C   0  0  0  0  0  0  0  0  0  0  0  0
   -2.3807    3.2880    6.6281 C   0  0  0  0  0  0  0  0  0  0  0  0
   -1.6593    2.9257    5.4852 C   0  0  0  0  0  0  0  0  0  0  0  0
   -2.0839    2.1877    4.4111 N   0  0  0  0  0  0  0  0  0  0  0  0
   -1.0104    2.1683    3.6327 C   0  0  0  0  0  0  0  0  0  0  0  0
    0.0907    2.8262    4.1146 N   0  0  0  0  0  0  0  0  0  0  0  0
   -0.3023    3.3650    5.3604 C   0  0  0  0  0  0  0  0  0  0  0  0
    0.3037    4.1426    6.3522 C   0  0  0  0  0  0  0  0  0  0  0  0
    1.3401    2.9099    3.3574 C   0  0  0  0  0  0  0  0  0  0  0  0
    1.3833    1.8230    2.2259 C   0  0  1  0  0  0  0  0  0  0  0  0
    1.8208    0.4296    2.6850 C   0  0  0  0  0  0  0  0  0  0  0  0
    2.2479   -0.3756    1.5906 O   0  0  0  0  0  0  0  0  0  0  0  0
    0.0953    1.7432    1.5294 N   0  0  0  0  0  0  0  0  0  0  0  0
   -1.0586    1.3729    2.3445 C   0  0  0  0  0  0  0  0  0  0  0  0
   -2.3465    4.3611    8.4981 H   0  0  0  0  0  0  0  0  0  0  0  0
   -3.4029    2.9690    6.7372 H   0  0  0  0  0  0  0  0  0  0  0  0
    1.3121    4.4692    6.2605 H   0  0  0  0  0  0  0  0  0  0  0  0
    1.4199    3.9125    2.9176 H   0  0  0  0  0  0  0  0  0  0  0  0
    2.2040    2.7621    4.0097 H   0  0  0  0  0  0  0  0  0  0  0  0
    2.0910    2.1773    1.4745 H   0  0  0  0  0  0  0  0  0  0  0  0
    2.6645    0.5240    3.3588 H   0  0  0  0  0  0  0  0  0  0  0  0
    1.0500   -0.0857    3.2620 H   0  0  0  0  0  0  0  0  0  0  0  0
    1.5818   -0.4735    0.9122 H   0  0  0  0  0  0  0  0  0  0  0  0
   -0.0630    2.6858    1.1698 H   0  0  0  0  0  0  0  0  0  0  0  0
   -1.0389    0.3205    2.5436 H   0  0  0  0  0  0  0  0  0  0  0  0
   -1.9783    1.5453    1.8057 H   0  0  0  0  0  0  0  0  0  0  0  0
    0.1177    1.1123    0.7403 H   0  0  0  0  0  0  0  0  0  0  0  0
  1  2  2  0
  2  3  1  0
  2  4  1  0
  4 12  2  0
  4  5  1  0
  5  6  2  0
  5 19  1  0
  6  7  1  0
  6 20  1  0
  7 11  2  0
  7  8  1  0
  8  9  2  0
  9 18  1  0
  9 10  1  0
 10 11  1  0
 10 13  1  0
 11 12  1  0
 12 21  1  0
 13 14  1  0
 13 22  1  0
 13 23  1  0
 14 15  1  0
 14 17  1  0
 14 24  1  6
 15 16  1  0
 15 25  1  0
 15 26  1  0
 16 27  1  0
 17 18  1  0
 17 28  1  0
 17 31  1  0
 18 29  1  0
 18 30  1  0
M  CHG  2   3  -1  17   1
M  END
>  <i_m_ct_stereo_status>  (377) 
1

>  <s_m_source_file>  (377) 
/var/tmp/pbs.5076255.sched01/tmp277fsmq3/144xeprw1xa.sdf

>  <i_m_source_file_index>  (377) 
11

>  <i_lp_mmshare_version>  (377) 
48012

>  <i_f3d_flags>  (377) 
0

>  <s_epik_input>  (377) 
Tz1DKFtPSF0pYyhbY0hdW2NIXTEpW2NIXWMoYzEyKW4zYyhuMilbQ0gyXVtOSF1bQ0BASF0oW0NIMl0zKVtDSDJdW09IXQ==

>  <s_epik_cmdline>  (377) 
J2VwaWtfcHl0aG9uJywgJy1waHQnLCAnMi4wJywgJy1waCcsICc3LjAnLCAnLXRuJywgJzgnLCAnLW1hJywgJzIwMCcsICctaW1hZScsICc8aW5maWxlLm1hZT4nLCAnLW9tYWUnLCAnPG91dGZpbGUubWFlPic=

>  <r_epik_Ionization_Penalty>  (377) 
1.0393

>  <r_epik_Ionization_Penalty_Charging>  (377) 
1.03894

>  <r_epik_Ionization_Penalty_Neutral>  (377) 
0.000364567

>  <r_epik_State_Penalty>  (377) 
1.26903

>  <r_epik_Charging_Adjusted_Penalty>  (377) 
2.30797

>  <i_epik_Tot_Q>  (377) 
0

>  <i_epik_Tot_abs_Q>  (377) 
2

>  <s_lp_Force_Field>  (377) 
OPLS3e

>  <r_lp_Energy>  (377) 
29.3103

>  <b_lp_Chiralities_Consistent>  (377) 
1

>  <s_lp_Variant>  (377) 
89:0-3

>  <s_i_glide_gridfile>  (377) 
pfpi4k_grid

>  <i_i_glide_lignum>  (377) 
11

>  <i_i_glide_rotatable_bonds>  (377) 
3

>  <r_i_docking_score>  (377) 
-4.24925

>  <r_i_glide_ligand_efficiency>  (377) 
-0.23607

>  <r_i_glide_ligand_efficiency_sa>  (377) 
-0.618678

>  <r_i_glide_ligand_efficiency_ln>  (377) 
-1.09225

>  <r_i_glide_gscore>  (377) 
-4.24925

>  <r_i_glide_lipo>  (377) 
-0.134507

>  <r_i_glide_hbond>  (377) 
-0.497102

>  <r_i_glide_metal>  (377) 
-0

>  <r_i_glide_rewards>  (377) 
-1.7233

>  <r_i_glide_evdw>  (377) 
-15.0346

>  <r_i_glide_ecoul>  (377) 
-8.46457

>  <r_i_glide_erotb>  (377) 
0.285357

>  <r_i_glide_esite>  (377) 
-0.15829

>  <r_i_glide_emodel>  (377) 
-36.3001

>  <r_i_glide_energy>  (377) 
-23.4992

>  <r_i_glide_einternal>  (377) 
1.2465

>  <r_i_glide_intrahb_reward>  (377) 
-0

>  <i_i_glide_confnum>  (377) 
6

>  <i_i_glide_posenum>  (377) 
7

>  <r_i_glide_eff_state_penalty>  (377) 
0

>  <ligand_id>  (377) 
89

>  <original_smiles>  (377) 
O=C(O)c1ccc2nc3n(c2c1)CC(CO)NC3

>  <smiles>  (377) 
[H]OC([H])([H])C1([H])C([H])([H])n2c(nc3c([H])c([H])c(C(=O)[O-])c([H])c32)C([H])([H])[N+]1([H])[H]

$$$$
91:0:0
     RDKit          3D

 40 43  0  0  1  0  0  0  0  0999 V2000
   -0.4393   -2.8947    5.6207 C   0  0  0  0  0  0  0  0  0  0  0  0
   -1.3732   -1.8161    5.5619 O   0  0  0  0  0  0  0  0  0  0  0  0
   -0.8347   -0.5565    5.6557 C   0  0  0  0  0  0  0  0  0  0  0  0
   -1.0225    0.3234    4.5743 C   0  0  0  0  0  0  0  0  0  0  0  0
   -0.5108    1.6439    4.5995 C   0  0  0  0  0  0  0  0  0  0  0  0
    0.1929    2.0949    5.7390 C   0  0  0  0  0  0  0  0  0  0  0  0
    0.3515    1.2176    6.8339 C   0  0  0  0  0  0  0  0  0  0  0  0
   -0.1663   -0.1063    6.8186 C   0  0  0  0  0  0  0  0  0  0  0  0
   -0.0834   -0.9777    7.8875 O   0  0  0  0  0  0  0  0  0  0  0  0
    0.6169   -0.5666    9.0525 C   0  0  0  0  0  0  0  0  0  0  0  0
    0.8725    3.4627    5.8532 C   0  0  1  0  0  0  0  0  0  0  0  0
    2.2070    3.5752    5.1533 C   0  0  0  0  0  0  0  0  0  0  0  0
    2.9561    2.6356    4.8869 O   0  0  0  0  0  0  0  0  0  0  0  0
    2.4463    4.8573    4.9486 O   0  0  0  0  0  0  0  0  0  0  0  0
    1.3610    5.7129    5.3068 C   0  0  1  0  0  0  0  0  0  0  0  0
    1.0274    6.6087    4.1272 C   0  0  0  0  0  0  0  0  0  0  0  0
    0.1814    5.6997    3.2478 C   0  0  0  0  0  0  0  0  0  0  0  0
   -0.5831    4.9336    4.2367 N   0  0  0  0  0  0  0  0  0  0  0  0
   -1.4615    3.8669    3.7700 C   0  0  0  0  0  0  0  0  0  0  0  0
   -0.7555    2.5494    3.3961 C   0  0  0  0  0  0  0  0  0  0  0  0
    0.1446    4.7710    5.5057 C   0  0  1  0  0  0  0  0  0  0  0  0
   -0.9756   -3.8466    5.6817 H   0  0  0  0  0  0  0  0  0  0  0  0
    0.2287   -2.8653    6.4821 H   0  0  0  0  0  0  0  0  0  0  0  0
    0.1726   -2.9071    4.7160 H   0  0  0  0  0  0  0  0  0  0  0  0
   -1.5663   -0.0476    3.7144 H   0  0  0  0  0  0  0  0  0  0  0  0
    0.8783    1.5778    7.7060 H   0  0  0  0  0  0  0  0  0  0  0  0
    0.6274   -1.3903    9.7638 H   0  0  0  0  0  0  0  0  0  0  0  0
    0.1266    0.2786    9.5353 H   0  0  0  0  0  0  0  0  0  0  0  0
    1.6543   -0.3157    8.8330 H   0  0  0  0  0  0  0  0  0  0  0  0
    1.1437    3.5625    6.9031 H   0  0  0  0  0  0  0  0  0  0  0  0
    1.6168    6.2940    6.1946 H   0  0  0  0  0  0  0  0  0  0  0  0
    0.4321    7.4561    4.4676 H   0  0  0  0  0  0  0  0  0  0  0  0
    1.9089    7.0004    3.6131 H   0  0  0  0  0  0  0  0  0  0  0  0
   -0.4603    6.2523    2.5607 H   0  0  0  0  0  0  0  0  0  0  0  0
    0.8469    5.0702    2.6548 H   0  0  0  0  0  0  0  0  0  0  0  0
   -2.2022    3.6695    4.5418 H   0  0  0  0  0  0  0  0  0  0  0  0
   -2.0073    4.2478    2.9071 H   0  0  0  0  0  0  0  0  0  0  0  0
    0.1758    2.7300    2.8571 H   0  0  0  0  0  0  0  0  0  0  0  0
   -1.3961    2.0213    2.6872 H   0  0  0  0  0  0  0  0  0  0  0  0
   -0.5054    5.0875    6.3215 H   0  0  0  0  0  0  0  0  0  0  0  0
  1  2  1  0
  1 22  1  0
  1 23  1  0
  1 24  1  0
  2  3  1  0
  3  8  2  0
  3  4  1  0
  4  5  2  0
  4 25  1  0
  5 20  1  0
  5  6  1  0
  6  7  2  0
  6 11  1  0
  7  8  1  0
  7 26  1  0
  8  9  1  0
  9 10  1  0
 10 27  1  0
 10 28  1  0
 10 29  1  0
 11 21  1  0
 11 12  1  0
 11 30  1  1
 12 13  2  0
 12 14  1  0
 14 15  1  0
 15 21  1  0
 15 16  1  0
 15 31  1  1
 16 17  1  0
 16 32  1  0
 16 33  1  0
 17 18  1  0
 17 34  1  0
 17 35  1  0
 18 19  1  0
 18 21  1  0
 19 20  1  0
 19 36  1  0
 19 37  1  0
 20 38  1  0
 20 39  1  0
 21 40  1  1
M  END
>  <i_m_ct_stereo_status>  (378) 
1

>  <s_m_source_file>  (378) 
/var/tmp/pbs.5076255.sched01/tmp277fsmq3/144xeprw1xa.sdf

>  <i_m_source_file_index>  (378) 
13

>  <i_lp_mmshare_version>  (378) 
48012

>  <i_f3d_flags>  (378) 
0

>  <s_epik_input>  (378) 
W0NIM11PYyhbY0hdMSljKE9bQ0gzXSlbY0hdYyhjMTIpW0NAQEhdM1tDQEhdNFtDQEBIXShPQzM9TylbQ0gyXVtDSDJdTjRbQ0gyXVtDSDJdMg==

>  <s_epik_cmdline>  (378) 
J2VwaWtfcHl0aG9uJywgJy1waHQnLCAnMi4wJywgJy1waCcsICc3LjAnLCAnLXRuJywgJzgnLCAnLW1hJywgJzIwMCcsICctaW1hZScsICc8aW5maWxlLm1hZT4nLCAnLW9tYWUnLCAnPG91dGZpbGUubWFlPic=

>  <r_lp_tautomer_probability>  (378) 
1

>  <r_epik_Ionization_Penalty>  (378) 
0.397445

>  <r_epik_Ionization_Penalty_Charging>  (378) 
0

>  <r_epik_Ionization_Penalty_Neutral>  (378) 
0.397445

>  <r_epik_State_Penalty>  (378) 
0.396568

>  <r_epik_Charging_Adjusted_Penalty>  (378) 
0.396568

>  <i_epik_Tot_Q>  (378) 
0

>  <i_epik_Tot_abs_Q>  (378) 
0

>  <s_epik_Chemistry_Notes>  (378) 
This compound has an ester and may undergo hydrolysis at high or low pH.

>  <s_lp_Force_Field>  (378) 
OPLS3e

>  <r_lp_Energy>  (378) 
34.4786

>  <b_lp_Chiralities_Consistent>  (378) 
1

>  <s_lp_Variant>  (378) 
91:0-1

>  <s_i_glide_gridfile>  (378) 
pfpi4k_grid

>  <i_i_glide_lignum>  (378) 
13

>  <i_i_glide_rotatable_bonds>  (378) 
2

>  <r_i_docking_score>  (378) 
-2.85969

>  <r_i_glide_ligand_efficiency>  (378) 
-0.136176

>  <r_i_glide_ligand_efficiency_sa>  (378) 
-0.375699

>  <r_i_glide_ligand_efficiency_ln>  (378) 
-0.707053

>  <r_i_glide_gscore>  (378) 
-2.85969

>  <r_i_glide_lipo>  (378) 
0

>  <r_i_glide_hbond>  (378) 
-0.0494681

>  <r_i_glide_metal>  (378) 
-0

>  <r_i_glide_rewards>  (378) 
-1.43641

>  <r_i_glide_evdw>  (378) 
-15.3977

>  <r_i_glide_ecoul>  (378) 
-4.0082

>  <r_i_glide_erotb>  (378) 
0

>  <r_i_glide_esite>  (378) 
-0.00270018

>  <r_i_glide_emodel>  (378) 
-20.3513

>  <r_i_glide_energy>  (378) 
-19.4059

>  <r_i_glide_einternal>  (378) 
6.24823

>  <r_i_glide_intrahb_reward>  (378) 
-0

>  <i_i_glide_confnum>  (378) 
2

>  <i_i_glide_posenum>  (378) 
36

>  <r_i_glide_eff_state_penalty>  (378) 
0

>  <ligand_id>  (378) 
91

>  <original_smiles>  (378) 
COc1cc2c(cc1OC)C1C(=O)OC3CCN(CC2)C31

>  <smiles>  (378) 
[H]c1c(OC([H])([H])[H])c(OC([H])([H])[H])c([H])c2c1C([H])([H])C([H])([H])N1C([H])([H])C([H])([H])C3([H])OC(=O)C2([H])C13[H]

$$$$
91:0:1
     RDKit          3D

 40 43  0  0  1  0  0  0  0  0999 V2000
   -3.2080    3.7660    2.4836 C   0  0  0  0  0  0  0  0  0  0  0  0
   -2.9775    3.3407    3.8164 O   0  0  0  0  0  0  0  0  0  0  0  0
   -1.9559    2.4496    4.0572 C   0  0  0  0  0  0  0  0  0  0  0  0
   -1.1576    1.8595    3.0443 C   0  0  0  0  0  0  0  0  0  0  0  0
   -0.1414    0.9278    3.3513 C   0  0  0  0  0  0  0  0  0  0  0  0
    0.0928    0.5672    4.7028 C   0  0  0  0  0  0  0  0  0  0  0  0
   -0.6987    1.1631    5.7101 C   0  0  0  0  0  0  0  0  0  0  0  0
   -1.7187    2.1002    5.4043 C   0  0  0  0  0  0  0  0  0  0  0  0
   -2.5207    2.7053    6.3546 O   0  0  0  0  0  0  0  0  0  0  0  0
   -2.2695    2.4455    7.7287 C   0  0  0  0  0  0  0  0  0  0  0  0
    1.0995   -0.4899    5.1580 C   0  0  1  0  0  0  0  0  0  0  0  0
    0.6389   -1.9190    4.9892 C   0  0  0  0  0  0  0  0  0  0  0  0
   -0.5356   -2.2796    4.9474 O   0  0  0  0  0  0  0  0  0  0  0  0
    1.7159   -2.6876    4.9653 O   0  0  0  0  0  0  0  0  0  0  0  0
    2.9459   -1.9595    4.9725 C   0  0  1  0  0  0  0  0  0  0  0  0
    3.8102   -2.4347    3.8165 C   0  0  0  0  0  0  0  0  0  0  0  0
    3.2315   -1.6870    2.6187 C   0  0  0  0  0  0  0  0  0  0  0  0
    2.8517   -0.4089    3.2209 N   0  0  0  0  0  0  0  0  0  0  0  0
    2.2026    0.6064    2.4034 C   0  0  0  0  0  0  0  0  0  0  0  0
    0.6960    0.3699    2.2041 C   0  0  0  0  0  0  0  0  0  0  0  0
    2.5525   -0.4960    4.6594 C   0  0  1  0  0  0  0  0  0  0  0  0
   -4.0428    4.4683    2.4748 H   0  0  0  0  0  0  0  0  0  0  0  0
   -3.4755    2.9356    1.8295 H   0  0  0  0  0  0  0  0  0  0  0  0
   -2.3365    4.2853    2.0862 H   0  0  0  0  0  0  0  0  0  0  0  0
   -1.3199    2.1130    2.0069 H   0  0  0  0  0  0  0  0  0  0  0  0
   -0.5096    0.8825    6.7384 H   0  0  0  0  0  0  0  0  0  0  0  0
   -2.9829    3.0021    8.3378 H   0  0  0  0  0  0  0  0  0  0  0  0
   -1.2688    2.7680    8.0143 H   0  0  0  0  0  0  0  0  0  0  0  0
   -2.3943    1.3900    7.9658 H   0  0  0  0  0  0  0  0  0  0  0  0
    1.1714   -0.3805    6.2388 H   0  0  0  0  0  0  0  0  0  0  0  0
    3.4491   -2.0773    5.9342 H   0  0  0  0  0  0  0  0  0  0  0  0
    4.8415   -2.1221    3.9813 H   0  0  0  0  0  0  0  0  0  0  0  0
    3.8080   -3.5214    3.6967 H   0  0  0  0  0  0  0  0  0  0  0  0
    3.9585   -1.5754    1.8143 H   0  0  0  0  0  0  0  0  0  0  0  0
    2.3601   -2.2148    2.2283 H   0  0  0  0  0  0  0  0  0  0  0  0
    2.3659    1.5820    2.8595 H   0  0  0  0  0  0  0  0  0  0  0  0
    2.7111    0.6363    1.4400 H   0  0  0  0  0  0  0  0  0  0  0  0
    0.4782   -0.6871    2.0475 H   0  0  0  0  0  0  0  0  0  0  0  0
    0.4032    0.8675    1.2774 H   0  0  0  0  0  0  0  0  0  0  0  0
    3.1621    0.2366    5.1911 H   0  0  0  0  0  0  0  0  0  0  0  0
  1  2  1  0
  1 22  1  0
  1 23  1  0
  1 24  1  0
  2  3  1  0
  3  8  2  0
  3  4  1  0
  4  5  2  0
  4 25  1  0
  5 20  1  0
  5  6  1  0
  6  7  2  0
  6 11  1  0
  7  8  1  0
  7 26  1  0
  8  9  1  0
  9 10  1  0
 10 27  1  0
 10 28  1  0
 10 29  1  0
 11 21  1  0
 11 12  1  0
 11 30  1  1
 12 13  2  0
 12 14  1  0
 14 15  1  0
 15 21  1  0
 15 16  1  0
 15 31  1  1
 16 17  1  0
 16 32  1  0
 16 33  1  0
 17 18  1  0
 17 34  1  0
 17 35  1  0
 18 19  1  0
 18 21  1  0
 19 20  1  0
 19 36  1  0
 19 37  1  0
 20 38  1  0
 20 39  1  0
 21 40  1  1
M  END
>  <i_m_ct_stereo_status>  (379) 
1

>  <s_m_source_file>  (379) 
/var/tmp/pbs.5076255.sched01/tmp277fsmq3/144xeprw1xa.sdf

>  <i_m_source_file_index>  (379) 
13

>  <i_lp_mmshare_version>  (379) 
48012

>  <i_f3d_flags>  (379) 
0

>  <s_epik_input>  (379) 
W0NIM11PYyhbY0hdMSljKE9bQ0gzXSlbY0hdYyhjMTIpW0NAQEhdM1tDQEhdNFtDQEBIXShPQzM9TylbQ0gyXVtDSDJdTjRbQ0gyXVtDSDJdMg==

>  <s_epik_cmdline>  (379) 
J2VwaWtfcHl0aG9uJywgJy1waHQnLCAnMi4wJywgJy1waCcsICc3LjAnLCAnLXRuJywgJzgnLCAnLW1hJywgJzIwMCcsICctaW1hZScsICc8aW5maWxlLm1hZT4nLCAnLW9tYWUnLCAnPG91dGZpbGUubWFlPic=

>  <r_lp_tautomer_probability>  (379) 
1

>  <r_epik_Ionization_Penalty>  (379) 
0.397445

>  <r_epik_Ionization_Penalty_Charging>  (379) 
0

>  <r_epik_Ionization_Penalty_Neutral>  (379) 
0.397445

>  <r_epik_State_Penalty>  (379) 
0.396568

>  <r_epik_Charging_Adjusted_Penalty>  (379) 
0.396568

>  <i_epik_Tot_Q>  (379) 
0

>  <i_epik_Tot_abs_Q>  (379) 
0

>  <s_epik_Chemistry_Notes>  (379) 
This compound has an ester and may undergo hydrolysis at high or low pH.

>  <s_lp_Force_Field>  (379) 
OPLS3e

>  <r_lp_Energy>  (379) 
34.4786

>  <b_lp_Chiralities_Consistent>  (379) 
1

>  <s_lp_Variant>  (379) 
91:0-1

>  <s_i_glide_gridfile>  (379) 
pfpi4k_grid

>  <i_i_glide_lignum>  (379) 
13

>  <i_i_glide_rotatable_bonds>  (379) 
2

>  <r_i_docking_score>  (379) 
-2.51351

>  <r_i_glide_ligand_efficiency>  (379) 
-0.119691

>  <r_i_glide_ligand_efficiency_sa>  (379) 
-0.330219

>  <r_i_glide_ligand_efficiency_ln>  (379) 
-0.621461

>  <r_i_glide_gscore>  (379) 
-2.51351

>  <r_i_glide_lipo>  (379) 
-0.0203955

>  <r_i_glide_hbond>  (379) 
0

>  <r_i_glide_metal>  (379) 
-0

>  <r_i_glide_rewards>  (379) 
-1.43641

>  <r_i_glide_evdw>  (379) 
-20.1945

>  <r_i_glide_ecoul>  (379) 
-0.303434

>  <r_i_glide_erotb>  (379) 
0

>  <r_i_glide_esite>  (379) 
-0.00146777

>  <r_i_glide_emodel>  (379) 
-24.0626

>  <r_i_glide_energy>  (379) 
-20.4979

>  <r_i_glide_einternal>  (379) 
0.0548965

>  <r_i_glide_intrahb_reward>  (379) 
-0

>  <i_i_glide_confnum>  (379) 
1

>  <i_i_glide_posenum>  (379) 
9

>  <r_i_glide_eff_state_penalty>  (379) 
0

>  <ligand_id>  (379) 
91

>  <original_smiles>  (379) 
COc1cc2c(cc1OC)C1C(=O)OC3CCN(CC2)C31

>  <smiles>  (379) 
[H]c1c(OC([H])([H])[H])c(OC([H])([H])[H])c([H])c2c1C([H])([H])C([H])([H])N1C([H])([H])C([H])([H])C3([H])OC(=O)C2([H])C13[H]

$$$$
91:0:2
     RDKit          3D

 40 43  0  0  1  0  0  0  0  0999 V2000
   -2.1383   -4.5723    7.3674 C   0  0  0  0  0  0  0  0  0  0  0  0
   -0.8966   -4.0291    7.7816 O   0  0  0  0  0  0  0  0  0  0  0  0
   -0.2951   -3.0605    7.0065 C   0  0  0  0  0  0  0  0  0  0  0  0
   -0.9862   -2.2614    6.0657 C   0  0  0  0  0  0  0  0  0  0  0  0
   -0.3217   -1.2587    5.3247 C   0  0  0  0  0  0  0  0  0  0  0  0
    1.0707   -1.0678    5.5002 C   0  0  0  0  0  0  0  0  0  0  0  0
    1.7555   -1.8678    6.4382 C   0  0  0  0  0  0  0  0  0  0  0  0
    1.0856   -2.8585    7.2051 C   0  0  0  0  0  0  0  0  0  0  0  0
    1.7062   -3.6594    8.1420 O   0  0  0  0  0  0  0  0  0  0  0  0
    3.1015   -3.5061    8.3548 C   0  0  0  0  0  0  0  0  0  0  0  0
    1.9273   -0.1014    4.6765 C   0  0  1  0  0  0  0  0  0  0  0  0
    2.2890   -0.5843    3.2880 C   0  0  0  0  0  0  0  0  0  0  0  0
    2.3264   -1.7601    2.9348 O   0  0  0  0  0  0  0  0  0  0  0  0
    2.6056    0.4758    2.5667 O   0  0  0  0  0  0  0  0  0  0  0  0
    2.3767    1.7181    3.2304 C   0  0  1  0  0  0  0  0  0  0  0  0
    1.5102    2.5927    2.3470 C   0  0  0  0  0  0  0  0  0  0  0  0
    0.0996    2.0689    2.5960 C   0  0  0  0  0  0  0  0  0  0  0  0
    0.1623    1.7018    4.0116 N   0  0  0  0  0  0  0  0  0  0  0  0
   -0.9988    1.1054    4.6530 C   0  0  0  0  0  0  0  0  0  0  0  0
   -1.1431   -0.3988    4.3735 C   0  0  0  0  0  0  0  0  0  0  0  0
    1.5207    1.3643    4.4717 C   0  0  1  0  0  0  0  0  0  0  0  0
   -2.4422   -5.3286    8.0871 H   0  0  0  0  0  0  0  0  0  0  0  0
   -2.0377   -5.0734    6.4094 H   0  0  0  0  0  0  0  0  0  0  0  0
   -2.9408   -3.8393    7.3214 H   0  0  0  0  0  0  0  0  0  0  0  0
   -2.0470   -2.3986    5.9155 H   0  0  0  0  0  0  0  0  0  0  0  0
    2.8168   -1.7151    6.5638 H   0  0  0  0  0  0  0  0  0  0  0  0
    3.4287   -4.2174    9.1135 H   0  0  0  0  0  0  0  0  0  0  0  0
    3.3393   -2.5065    8.7178 H   0  0  0  0  0  0  0  0  0  0  0  0
    3.6699   -3.7113    7.4476 H   0  0  0  0  0  0  0  0  0  0  0  0
    2.8906   -0.0572    5.1828 H   0  0  0  0  0  0  0  0  0  0  0  0
    3.3283    2.1934    3.4743 H   0  0  0  0  0  0  0  0  0  0  0  0
    1.5761    3.6269    2.6848 H   0  0  0  0  0  0  0  0  0  0  0  0
    1.8005    2.5660    1.2923 H   0  0  0  0  0  0  0  0  0  0  0  0
   -0.6612    2.8235    2.3947 H   0  0  0  0  0  0  0  0  0  0  0  0
   -0.0949    1.2039    1.9582 H   0  0  0  0  0  0  0  0  0  0  0  0
   -0.9359    1.2857    5.7260 H   0  0  0  0  0  0  0  0  0  0  0  0
   -1.8815    1.6433    4.3028 H   0  0  0  0  0  0  0  0  0  0  0  0
   -0.8703   -0.6272    3.3453 H   0  0  0  0  0  0  0  0  0  0  0  0
   -2.1989   -0.6520    4.4759 H   0  0  0  0  0  0  0  0  0  0  0  0
    1.7592    1.9775    5.3417 H   0  0  0  0  0  0  0  0  0  0  0  0
  1  2  1  0
  1 22  1  0
  1 23  1  0
  1 24  1  0
  2  3  1  0
  3  8  2  0
  3  4  1  0
  4  5  2  0
  4 25  1  0
  5 20  1  0
  5  6  1  0
  6  7  2  0
  6 11  1  0
  7  8  1  0
  7 26  1  0
  8  9  1  0
  9 10  1  0
 10 27  1  0
 10 28  1  0
 10 29  1  0
 11 21  1  0
 11 12  1  0
 11 30  1  1
 12 13  2  0
 12 14  1  0
 14 15  1  0
 15 21  1  0
 15 16  1  0
 15 31  1  1
 16 17  1  0
 16 32  1  0
 16 33  1  0
 17 18  1  0
 17 34  1  0
 17 35  1  0
 18 19  1  0
 18 21  1  0
 19 20  1  0
 19 36  1  0
 19 37  1  0
 20 38  1  0
 20 39  1  0
 21 40  1  1
M  END
>  <i_m_ct_stereo_status>  (380) 
1

>  <s_m_source_file>  (380) 
/var/tmp/pbs.5076255.sched01/tmp277fsmq3/144xeprw1xa.sdf

>  <i_m_source_file_index>  (380) 
13

>  <i_lp_mmshare_version>  (380) 
48012

>  <i_f3d_flags>  (380) 
0

>  <s_epik_input>  (380) 
W0NIM11PYyhbY0hdMSljKE9bQ0gzXSlbY0hdYyhjMTIpW0NAQEhdM1tDQEhdNFtDQEBIXShPQzM9TylbQ0gyXVtDSDJdTjRbQ0gyXVtDSDJdMg==

>  <s_epik_cmdline>  (380) 
J2VwaWtfcHl0aG9uJywgJy1waHQnLCAnMi4wJywgJy1waCcsICc3LjAnLCAnLXRuJywgJzgnLCAnLW1hJywgJzIwMCcsICctaW1hZScsICc8aW5maWxlLm1hZT4nLCAnLW9tYWUnLCAnPG91dGZpbGUubWFlPic=

>  <r_lp_tautomer_probability>  (380) 
1

>  <r_epik_Ionization_Penalty>  (380) 
0.397445

>  <r_epik_Ionization_Penalty_Charging>  (380) 
0

>  <r_epik_Ionization_Penalty_Neutral>  (380) 
0.397445

>  <r_epik_State_Penalty>  (380) 
0.396568

>  <r_epik_Charging_Adjusted_Penalty>  (380) 
0.396568

>  <i_epik_Tot_Q>  (380) 
0

>  <i_epik_Tot_abs_Q>  (380) 
0

>  <s_epik_Chemistry_Notes>  (380) 
This compound has an ester and may undergo hydrolysis at high or low pH.

>  <s_lp_Force_Field>  (380) 
OPLS3e

>  <r_lp_Energy>  (380) 
34.4786

>  <b_lp_Chiralities_Consistent>  (380) 
1

>  <s_lp_Variant>  (380) 
91:0-1

>  <s_i_glide_gridfile>  (380) 
pfpi4k_grid

>  <i_i_glide_lignum>  (380) 
13

>  <i_i_glide_rotatable_bonds>  (380) 
2

>  <r_i_docking_score>  (380) 
-2.37615

>  <r_i_glide_ligand_efficiency>  (380) 
-0.11315

>  <r_i_glide_ligand_efficiency_sa>  (380) 
-0.312172

>  <r_i_glide_ligand_efficiency_ln>  (380) 
-0.587497

>  <r_i_glide_gscore>  (380) 
-2.37615

>  <r_i_glide_lipo>  (380) 
-0.0454969

>  <r_i_glide_hbond>  (380) 
0

>  <r_i_glide_metal>  (380) 
-0

>  <r_i_glide_rewards>  (380) 
-1.43641

>  <r_i_glide_evdw>  (380) 
-16.0935

>  <r_i_glide_ecoul>  (380) 
-0.578891

>  <r_i_glide_erotb>  (380) 
0

>  <r_i_glide_esite>  (380) 
-0.0027296

>  <r_i_glide_emodel>  (380) 
-19.6112

>  <r_i_glide_energy>  (380) 
-16.6724

>  <r_i_glide_einternal>  (380) 
0.734168

>  <r_i_glide_intrahb_reward>  (380) 
-0

>  <i_i_glide_confnum>  (380) 
1

>  <i_i_glide_posenum>  (380) 
3

>  <r_i_glide_eff_state_penalty>  (380) 
0

>  <ligand_id>  (380) 
91

>  <original_smiles>  (380) 
COc1cc2c(cc1OC)C1C(=O)OC3CCN(CC2)C31

>  <smiles>  (380) 
[H]c1c(OC([H])([H])[H])c(OC([H])([H])[H])c([H])c2c1C([H])([H])C([H])([H])N1C([H])([H])C([H])([H])C3([H])OC(=O)C2([H])C13[H]

$$$$
91:1:0
     RDKit          3D

 41 44  0  0  1  0  0  0  0  0999 V2000
   -1.7982    1.1504    5.9276 C   0  0  0  0  0  0  0  0  0  0  0  0
   -1.6443   -0.2555    6.0559 O   0  0  0  0  0  0  0  0  0  0  0  0
   -0.5890   -0.8646    5.4132 C   0  0  0  0  0  0  0  0  0  0  0  0
    0.3414   -0.1850    4.5868 C   0  0  0  0  0  0  0  0  0  0  0  0
    1.4018   -0.8660    3.9495 C   0  0  0  0  0  0  0  0  0  0  0  0
    1.5513   -2.2730    4.1309 C   0  0  0  0  0  0  0  0  0  0  0  0
    0.6477   -2.9241    5.0085 C   0  0  0  0  0  0  0  0  0  0  0  0
   -0.4262   -2.2463    5.6336 C   0  0  0  0  0  0  0  0  0  0  0  0
   -1.3496   -2.8617    6.4567 O   0  0  0  0  0  0  0  0  0  0  0  0
   -1.1150   -4.1989    6.8798 C   0  0  0  0  0  0  0  0  0  0  0  0
    2.6969   -3.1077    3.4958 C   0  0  1  0  0  0  0  0  0  0  0  0
    2.2981   -4.4534    2.8628 C   0  0  0  0  0  0  0  0  0  0  0  0
    1.4025   -5.1934    3.2549 O   0  0  0  0  0  0  0  0  0  0  0  0
    3.0774   -4.6929    1.8105 O   0  0  0  0  0  0  0  0  0  0  0  0
    4.0553   -3.6956    1.5866 C   0  0  1  0  0  0  0  0  0  0  0  0
    4.1224   -3.2417    0.1275 C   0  0  0  0  0  0  0  0  0  0  0  0
    3.0360   -2.1718   -0.0037 C   0  0  0  0  0  0  0  0  0  0  0  0
    2.6355   -1.7778    1.3739 N   0  0  2  0  0  0  0  0  0  0  0  0
    2.5055   -0.3269    1.6473 C   0  0  0  0  0  0  0  0  0  0  0  0
    2.4170   -0.0253    3.1631 C   0  0  0  0  0  0  0  0  0  0  0  0
    3.5030   -2.4901    2.3446 C   0  0  1  0  0  0  0  0  0  0  0  0
   -2.6835    1.4667    6.4811 H   0  0  0  0  0  0  0  0  0  0  0  0
   -1.9399    1.4485    4.8882 H   0  0  0  0  0  0  0  0  0  0  0  0
   -0.9455    1.6811    6.3513 H   0  0  0  0  0  0  0  0  0  0  0  0
    0.2713    0.8869    4.4577 H   0  0  0  0  0  0  0  0  0  0  0  0
    0.7901   -3.9705    5.2128 H   0  0  0  0  0  0  0  0  0  0  0  0
   -1.9583   -4.5352    7.4863 H   0  0  0  0  0  0  0  0  0  0  0  0
   -0.2185   -4.2527    7.4974 H   0  0  0  0  0  0  0  0  0  0  0  0
   -1.0198   -4.9021    6.0531 H   0  0  0  0  0  0  0  0  0  0  0  0
    3.3986   -3.3449    4.2912 H   0  0  0  0  0  0  0  0  0  0  0  0
    5.0235   -4.0305    1.9608 H   0  0  0  0  0  0  0  0  0  0  0  0
    5.0977   -2.7930   -0.0740 H   0  0  0  0  0  0  0  0  0  0  0  0
    3.9895   -4.0678   -0.5779 H   0  0  0  0  0  0  0  0  0  0  0  0
    3.3547   -1.3308   -0.6173 H   0  0  0  0  0  0  0  0  0  0  0  0
    2.1983   -2.6504   -0.5068 H   0  0  0  0  0  0  0  0  0  0  0  0
    3.3584    0.2094    1.2339 H   0  0  0  0  0  0  0  0  0  0  0  0
    1.6213    0.0605    1.1448 H   0  0  0  0  0  0  0  0  0  0  0  0
    2.1770    1.0293    3.2755 H   0  0  0  0  0  0  0  0  0  0  0  0
    3.3923   -0.1291    3.6402 H   0  0  0  0  0  0  0  0  0  0  0  0
    4.3294   -1.8642    2.6703 H   0  0  0  0  0  0  0  0  0  0  0  0
    1.7009   -2.1429    1.4944 H   0  0  0  0  0  0  0  0  0  0  0  0
  1  2  1  0
  1 22  1  0
  1 23  1  0
  1 24  1  0
  2  3  1  0
  3  8  2  0
  3  4  1  0
  4  5  2  0
  4 25  1  0
  5 20  1  0
  5  6  1  0
  6  7  2  0
  6 11  1  0
  7  8  1  0
  7 26  1  0
  8  9  1  0
  9 10  1  0
 10 27  1  0
 10 28  1  0
 10 29  1  0
 11 21  1  0
 11 12  1  0
 11 30  1  1
 12 13  2  0
 12 14  1  0
 14 15  1  0
 15 21  1  0
 15 16  1  0
 15 31  1  1
 16 17  1  0
 16 32  1  0
 16 33  1  0
 17 18  1  0
 17 34  1  0
 17 35  1  0
 18 19  1  0
 18 21  1  0
 18 41  1  1
 19 20  1  0
 19 36  1  0
 19 37  1  0
 20 38  1  0
 20 39  1  0
 21 40  1  1
M  CHG  1  18   1
M  END
>  <i_m_ct_stereo_status>  (381) 
1

>  <s_m_source_file>  (381) 
/var/tmp/pbs.5076255.sched01/tmp277fsmq3/144xeprw1xa.sdf

>  <i_m_source_file_index>  (381) 
14

>  <i_lp_mmshare_version>  (381) 
48012

>  <i_f3d_flags>  (381) 
0

>  <s_epik_input>  (381) 
W0NIM11PYyhbY0hdMSljKE9bQ0gzXSlbY0hdYyhjMTIpW0NAQEhdM1tDQEhdNFtDQEBIXShPQzM9TylbQ0gyXVtDSDJdTjRbQ0gyXVtDSDJdMg==

>  <s_epik_cmdline>  (381) 
J2VwaWtfcHl0aG9uJywgJy1waHQnLCAnMi4wJywgJy1waCcsICc3LjAnLCAnLXRuJywgJzgnLCAnLW1hJywgJzIwMCcsICctaW1hZScsICc8aW5maWxlLm1hZT4nLCAnLW9tYWUnLCAnPG91dGZpbGUubWFlPic=

>  <r_lp_tautomer_probability>  (381) 
1

>  <r_epik_Ionization_Penalty>  (381) 
0.424217

>  <r_epik_Ionization_Penalty_Charging>  (381) 
0.424217

>  <r_epik_Ionization_Penalty_Neutral>  (381) 
0

>  <r_epik_State_Penalty>  (381) 
0.425136

>  <r_epik_Charging_Adjusted_Penalty>  (381) 
0.849354

>  <i_epik_Tot_Q>  (381) 
1

>  <i_epik_Tot_abs_Q>  (381) 
1

>  <s_epik_Chemistry_Notes>  (381) 
This compound has an ester and may undergo hydrolysis at high or low pH.

>  <s_lp_Force_Field>  (381) 
OPLS3e

>  <r_lp_Energy>  (381) 
41.199

>  <b_lp_Chiralities_Consistent>  (381) 
1

>  <s_lp_Variant>  (381) 
91:0-2

>  <s_i_glide_gridfile>  (381) 
pfpi4k_grid

>  <i_i_glide_lignum>  (381) 
14

>  <i_i_glide_rotatable_bonds>  (381) 
2

>  <r_i_docking_score>  (381) 
-3.37514

>  <r_i_glide_ligand_efficiency>  (381) 
-0.160721

>  <r_i_glide_ligand_efficiency_sa>  (381) 
-0.443417

>  <r_i_glide_ligand_efficiency_ln>  (381) 
-0.834496

>  <r_i_glide_gscore>  (381) 
-3.37514

>  <r_i_glide_lipo>  (381) 
-0.0432923

>  <r_i_glide_hbond>  (381) 
-0.139248

>  <r_i_glide_metal>  (381) 
-0

>  <r_i_glide_rewards>  (381) 
-1.42954

>  <r_i_glide_evdw>  (381) 
-16.1617

>  <r_i_glide_ecoul>  (381) 
-5.98445

>  <r_i_glide_erotb>  (381) 
0

>  <r_i_glide_esite>  (381) 
-0.057307

>  <r_i_glide_emodel>  (381) 
-27.8572

>  <r_i_glide_energy>  (381) 
-22.1462

>  <r_i_glide_einternal>  (381) 
0.32511

>  <r_i_glide_intrahb_reward>  (381) 
-0

>  <i_i_glide_confnum>  (381) 
1

>  <i_i_glide_posenum>  (381) 
13

>  <r_i_glide_eff_state_penalty>  (381) 
0

>  <ligand_id>  (381) 
91

>  <original_smiles>  (381) 
COc1cc2c(cc1OC)C1C(=O)OC3CCN(CC2)C31

>  <smiles>  (381) 
[H]c1c(OC([H])([H])[H])c(OC([H])([H])[H])c([H])c2c1C([H])([H])C([H])([H])[N+]1([H])C([H])([H])C([H])([H])C3([H])OC(=O)C2([H])C31[H]

$$$$
91:1:1
     RDKit          3D

 41 44  0  0  1  0  0  0  0  0999 V2000
   -2.3733    1.5272    6.5978 C   0  0  0  0  0  0  0  0  0  0  0  0
   -2.0825    0.1470    6.4041 O   0  0  0  0  0  0  0  0  0  0  0  0
   -0.8776   -0.2103    5.8348 C   0  0  0  0  0  0  0  0  0  0  0  0
    0.0486    0.7172    5.3057 C   0  0  0  0  0  0  0  0  0  0  0  0
    1.2626    0.2933    4.7316 C   0  0  0  0  0  0  0  0  0  0  0  0
    1.5799   -1.0976    4.6775 C   0  0  0  0  0  0  0  0  0  0  0  0
    0.6719   -2.0015    5.2689 C   0  0  0  0  0  0  0  0  0  0  0  0
   -0.5611   -1.5843    5.8173 C   0  0  0  0  0  0  0  0  0  0  0  0
   -1.4908   -2.4585    6.3375 O   0  0  0  0  0  0  0  0  0  0  0  0
   -1.1190   -3.8049    6.6064 C   0  0  0  0  0  0  0  0  0  0  0  0
    2.9003   -1.6607    4.0860 C   0  0  1  0  0  0  0  0  0  0  0  0
    2.7761   -2.8963    3.1734 C   0  0  0  0  0  0  0  0  0  0  0  0
    1.9549   -3.7987    3.2920 O   0  0  0  0  0  0  0  0  0  0  0  0
    3.7105   -2.8381    2.2291 O   0  0  0  0  0  0  0  0  0  0  0  0
    4.5605   -1.7123    2.3376 C   0  0  1  0  0  0  0  0  0  0  0  0
    4.7504   -0.9784    1.0139 C   0  0  0  0  0  0  0  0  0  0  0  0
    3.5563   -0.0217    0.9126 C   0  0  0  0  0  0  0  0  0  0  0  0
    2.9245    0.0394    2.2525 N   0  0  2  0  0  0  0  0  0  0  0  0
    2.5622    1.3834    2.7574 C   0  0  0  0  0  0  0  0  0  0  0  0
    2.2419    1.3752    4.2719 C   0  0  0  0  0  0  0  0  0  0  0  0
    3.7520   -0.7435    3.2007 C   0  0  1  0  0  0  0  0  0  0  0  0
   -3.3657    1.6305    7.0372 H   0  0  0  0  0  0  0  0  0  0  0  0
   -2.3836    2.0791    5.6589 H   0  0  0  0  0  0  0  0  0  0  0  0
   -1.6656    1.9839    7.2859 H   0  0  0  0  0  0  0  0  0  0  0  0
   -0.1526    1.7771    5.3588 H   0  0  0  0  0  0  0  0  0  0  0  0
    0.9251   -3.0474    5.3048 H   0  0  0  0  0  0  0  0  0  0  0  0
   -1.9846   -4.3350    7.0095 H   0  0  0  0  0  0  0  0  0  0  0  0
   -0.3255   -3.8549    7.3529 H   0  0  0  0  0  0  0  0  0  0  0  0
   -0.8071   -4.3390    5.7110 H   0  0  0  0  0  0  0  0  0  0  0  0
    3.5180   -1.9730    4.9276 H   0  0  0  0  0  0  0  0  0  0  0  0
    5.5097   -2.0018    2.7951 H   0  0  0  0  0  0  0  0  0  0  0  0
    5.6727   -0.3930    1.0488 H   0  0  0  0  0  0  0  0  0  0  0  0
    4.8281   -1.6569    0.1624 H   0  0  0  0  0  0  0  0  0  0  0  0
    3.8694    0.9482    0.5417 H   0  0  0  0  0  0  0  0  0  0  0  0
    2.8263   -0.4197    0.2101 H   0  0  0  0  0  0  0  0  0  0  0  0
    3.3796    2.0809    2.5862 H   0  0  0  0  0  0  0  0  0  0  0  0
    1.7088    1.7561    2.1878 H   0  0  0  0  0  0  0  0  0  0  0  0
    1.8463    2.3575    4.5263 H   0  0  0  0  0  0  0  0  0  0  0  0
    3.1545    1.2919    4.8622 H   0  0  0  0  0  0  0  0  0  0  0  0
    4.4357   -0.1041    3.7598 H   0  0  0  0  0  0  0  0  0  0  0  0
    2.0497   -0.4604    2.1594 H   0  0  0  0  0  0  0  0  0  0  0  0
  1  2  1  0
  1 22  1  0
  1 23  1  0
  1 24  1  0
  2  3  1  0
  3  8  2  0
  3  4  1  0
  4  5  2  0
  4 25  1  0
  5 20  1  0
  5  6  1  0
  6  7  2  0
  6 11  1  0
  7  8  1  0
  7 26  1  0
  8  9  1  0
  9 10  1  0
 10 27  1  0
 10 28  1  0
 10 29  1  0
 11 21  1  0
 11 12  1  0
 11 30  1  1
 12 13  2  0
 12 14  1  0
 14 15  1  0
 15 21  1  0
 15 16  1  0
 15 31  1  1
 16 17  1  0
 16 32  1  0
 16 33  1  0
 17 18  1  0
 17 34  1  0
 17 35  1  0
 18 19  1  0
 18 21  1  0
 18 41  1  6
 19 20  1  0
 19 36  1  0
 19 37  1  0
 20 38  1  0
 20 39  1  0
 21 40  1  1
M  CHG  1  18   1
M  END
>  <i_m_ct_stereo_status>  (382) 
1

>  <s_m_source_file>  (382) 
/var/tmp/pbs.5076255.sched01/tmp277fsmq3/144xeprw1xa.sdf

>  <i_m_source_file_index>  (382) 
14

>  <i_lp_mmshare_version>  (382) 
48012

>  <i_f3d_flags>  (382) 
0

>  <s_epik_input>  (382) 
W0NIM11PYyhbY0hdMSljKE9bQ0gzXSlbY0hdYyhjMTIpW0NAQEhdM1tDQEhdNFtDQEBIXShPQzM9TylbQ0gyXVtDSDJdTjRbQ0gyXVtDSDJdMg==

>  <s_epik_cmdline>  (382) 
J2VwaWtfcHl0aG9uJywgJy1waHQnLCAnMi4wJywgJy1waCcsICc3LjAnLCAnLXRuJywgJzgnLCAnLW1hJywgJzIwMCcsICctaW1hZScsICc8aW5maWxlLm1hZT4nLCAnLW9tYWUnLCAnPG91dGZpbGUubWFlPic=

>  <r_lp_tautomer_probability>  (382) 
1

>  <r_epik_Ionization_Penalty>  (382) 
0.424217

>  <r_epik_Ionization_Penalty_Charging>  (382) 
0.424217

>  <r_epik_Ionization_Penalty_Neutral>  (382) 
0

>  <r_epik_State_Penalty>  (382) 
0.425136

>  <r_epik_Charging_Adjusted_Penalty>  (382) 
0.849354

>  <i_epik_Tot_Q>  (382) 
1

>  <i_epik_Tot_abs_Q>  (382) 
1

>  <s_epik_Chemistry_Notes>  (382) 
This compound has an ester and may undergo hydrolysis at high or low pH.

>  <s_lp_Force_Field>  (382) 
OPLS3e

>  <r_lp_Energy>  (382) 
41.199

>  <b_lp_Chiralities_Consistent>  (382) 
1

>  <s_lp_Variant>  (382) 
91:0-2

>  <s_i_glide_gridfile>  (382) 
pfpi4k_grid

>  <i_i_glide_lignum>  (382) 
14

>  <i_i_glide_rotatable_bonds>  (382) 
2

>  <r_i_docking_score>  (382) 
-3.1991

>  <r_i_glide_ligand_efficiency>  (382) 
-0.152338

>  <r_i_glide_ligand_efficiency_sa>  (382) 
-0.420289

>  <r_i_glide_ligand_efficiency_ln>  (382) 
-0.790971

>  <r_i_glide_gscore>  (382) 
-3.1991

>  <r_i_glide_lipo>  (382) 
-0.135276

>  <r_i_glide_hbond>  (382) 
-0.16

>  <r_i_glide_metal>  (382) 
-0

>  <r_i_glide_rewards>  (382) 
-1.42954

>  <r_i_glide_evdw>  (382) 
-13.2534

>  <r_i_glide_ecoul>  (382) 
-5.40841

>  <r_i_glide_erotb>  (382) 
0

>  <r_i_glide_esite>  (382) 
-0.000352709

>  <r_i_glide_emodel>  (382) 
-23.99

>  <r_i_glide_energy>  (382) 
-18.6618

>  <r_i_glide_einternal>  (382) 
0.486879

>  <r_i_glide_intrahb_reward>  (382) 
-0

>  <i_i_glide_confnum>  (382) 
2

>  <i_i_glide_posenum>  (382) 
17

>  <r_i_glide_eff_state_penalty>  (382) 
0

>  <ligand_id>  (382) 
91

>  <original_smiles>  (382) 
COc1cc2c(cc1OC)C1C(=O)OC3CCN(CC2)C31

>  <smiles>  (382) 
[H]c1c(OC([H])([H])[H])c(OC([H])([H])[H])c([H])c2c1C([H])([H])C([H])([H])[N+]1([H])C([H])([H])C([H])([H])C3([H])OC(=O)C2([H])C31[H]

$$$$
91:1:2
     RDKit          3D

 41 44  0  0  1  0  0  0  0  0999 V2000
   -0.0966   -6.8146    4.3308 C   0  0  0  0  0  0  0  0  0  0  0  0
    0.9578   -6.5078    3.4318 O   0  0  0  0  0  0  0  0  0  0  0  0
    1.4370   -5.2172    3.3688 C   0  0  0  0  0  0  0  0  0  0  0  0
    0.8873   -4.1343    4.0921 C   0  0  0  0  0  0  0  0  0  0  0  0
    1.3859   -2.8207    3.9504 C   0  0  0  0  0  0  0  0  0  0  0  0
    2.4820   -2.5722    3.0740 C   0  0  0  0  0  0  0  0  0  0  0  0
    3.0638   -3.6803    2.4128 C   0  0  0  0  0  0  0  0  0  0  0  0
    2.5404   -4.9905    2.5259 C   0  0  0  0  0  0  0  0  0  0  0  0
    3.0492   -6.0797    1.8508 O   0  0  0  0  0  0  0  0  0  0  0  0
    4.1105   -5.8883    0.9238 C   0  0  0  0  0  0  0  0  0  0  0  0
    3.1257   -1.1728    2.8776 C   0  0  1  0  0  0  0  0  0  0  0  0
    3.4660   -0.7679    1.4327 C   0  0  0  0  0  0  0  0  0  0  0  0
    3.8547   -1.5220    0.5474 O   0  0  0  0  0  0  0  0  0  0  0  0
    3.2976    0.5438    1.2990 O   0  0  0  0  0  0  0  0  0  0  0  0
    2.9090    1.1949    2.4946 C   0  0  1  0  0  0  0  0  0  0  0  0
    1.7373    2.1582    2.3016 C   0  0  0  0  0  0  0  0  0  0  0  0
    0.4802    1.2858    2.4086 C   0  0  0  0  0  0  0  0  0  0  0  0
    0.9099   -0.0155    2.9879 N   0  0  2  0  0  0  0  0  0  0  0  0
    0.0723   -0.5709    4.0766 C   0  0  0  0  0  0  0  0  0  0  0  0
    0.7693   -1.7300    4.8303 C   0  0  0  0  0  0  0  0  0  0  0  0
    2.3456    0.0633    3.3434 C   0  0  1  0  0  0  0  0  0  0  0  0
   -0.3408   -7.8762    4.2543 H   0  0  0  0  0  0  0  0  0  0  0  0
   -1.0006   -6.2549    4.0918 H   0  0  0  0  0  0  0  0  0  0  0  0
    0.1924   -6.6181    5.3628 H   0  0  0  0  0  0  0  0  0  0  0  0
    0.0652   -4.3014    4.7723 H   0  0  0  0  0  0  0  0  0  0  0  0
    3.9408   -3.5258    1.8091 H   0  0  0  0  0  0  0  0  0  0  0  0
    4.3734   -6.8458    0.4698 H   0  0  0  0  0  0  0  0  0  0  0  0
    5.0079   -5.5045    1.4111 H   0  0  0  0  0  0  0  0  0  0  0  0
    3.8192   -5.2151    0.1173 H   0  0  0  0  0  0  0  0  0  0  0  0
    4.0718   -1.1832    3.4136 H   0  0  0  0  0  0  0  0  0  0  0  0
    3.7688    1.6746    2.9657 H   0  0  0  0  0  0  0  0  0  0  0  0
    1.7345    2.8923    3.1102 H   0  0  0  0  0  0  0  0  0  0  0  0
    1.8073    2.7183    1.3667 H   0  0  0  0  0  0  0  0  0  0  0  0
   -0.3010    1.7820    2.9843 H   0  0  0  0  0  0  0  0  0  0  0  0
    0.0768    1.1056    1.4122 H   0  0  0  0  0  0  0  0  0  0  0  0
   -0.1723    0.2102    4.7950 H   0  0  0  0  0  0  0  0  0  0  0  0
   -0.8760   -0.9097    3.6709 H   0  0  0  0  0  0  0  0  0  0  0  0
    0.0363   -2.1794    5.4980 H   0  0  0  0  0  0  0  0  0  0  0  0
    1.5456   -1.3541    5.4986 H   0  0  0  0  0  0  0  0  0  0  0  0
    2.4844    0.3014    4.3960 H   0  0  0  0  0  0  0  0  0  0  0  0
    0.8606   -0.6734    2.2203 H   0  0  0  0  0  0  0  0  0  0  0  0
  1  2  1  0
  1 22  1  0
  1 23  1  0
  1 24  1  0
  2  3  1  0
  3  8  2  0
  3  4  1  0
  4  5  2  0
  4 25  1  0
  5 20  1  0
  5  6  1  0
  6  7  2  0
  6 11  1  0
  7  8  1  0
  7 26  1  0
  8  9  1  0
  9 10  1  0
 10 27  1  0
 10 28  1  0
 10 29  1  0
 11 21  1  0
 11 12  1  0
 11 30  1  1
 12 13  2  0
 12 14  1  0
 14 15  1  0
 15 21  1  0
 15 16  1  0
 15 31  1  1
 16 17  1  0
 16 32  1  0
 16 33  1  0
 17 18  1  0
 17 34  1  0
 17 35  1  0
 18 19  1  0
 18 21  1  0
 18 41  1  6
 19 20  1  0
 19 36  1  0
 19 37  1  0
 20 38  1  0
 20 39  1  0
 21 40  1  1
M  CHG  1  18   1
M  END
>  <i_m_ct_stereo_status>  (383) 
1

>  <s_m_source_file>  (383) 
/var/tmp/pbs.5076255.sched01/tmp277fsmq3/144xeprw1xa.sdf

>  <i_m_source_file_index>  (383) 
14

>  <i_lp_mmshare_version>  (383) 
48012

>  <i_f3d_flags>  (383) 
0

>  <s_epik_input>  (383) 
W0NIM11PYyhbY0hdMSljKE9bQ0gzXSlbY0hdYyhjMTIpW0NAQEhdM1tDQEhdNFtDQEBIXShPQzM9TylbQ0gyXVtDSDJdTjRbQ0gyXVtDSDJdMg==

>  <s_epik_cmdline>  (383) 
J2VwaWtfcHl0aG9uJywgJy1waHQnLCAnMi4wJywgJy1waCcsICc3LjAnLCAnLXRuJywgJzgnLCAnLW1hJywgJzIwMCcsICctaW1hZScsICc8aW5maWxlLm1hZT4nLCAnLW9tYWUnLCAnPG91dGZpbGUubWFlPic=

>  <r_lp_tautomer_probability>  (383) 
1

>  <r_epik_Ionization_Penalty>  (383) 
0.424217

>  <r_epik_Ionization_Penalty_Charging>  (383) 
0.424217

>  <r_epik_Ionization_Penalty_Neutral>  (383) 
0

>  <r_epik_State_Penalty>  (383) 
0.425136

>  <r_epik_Charging_Adjusted_Penalty>  (383) 
0.849354

>  <i_epik_Tot_Q>  (383) 
1

>  <i_epik_Tot_abs_Q>  (383) 
1

>  <s_epik_Chemistry_Notes>  (383) 
This compound has an ester and may undergo hydrolysis at high or low pH.

>  <s_lp_Force_Field>  (383) 
OPLS3e

>  <r_lp_Energy>  (383) 
41.199

>  <b_lp_Chiralities_Consistent>  (383) 
1

>  <s_lp_Variant>  (383) 
91:0-2

>  <s_i_glide_gridfile>  (383) 
pfpi4k_grid

>  <i_i_glide_lignum>  (383) 
14

>  <i_i_glide_rotatable_bonds>  (383) 
2

>  <r_i_docking_score>  (383) 
-2.93281

>  <r_i_glide_ligand_efficiency>  (383) 
-0.139658

>  <r_i_glide_ligand_efficiency_sa>  (383) 
-0.385305

>  <r_i_glide_ligand_efficiency_ln>  (383) 
-0.725131

>  <r_i_glide_gscore>  (383) 
-2.93281

>  <r_i_glide_lipo>  (383) 
-0.0990223

>  <r_i_glide_hbond>  (383) 
0

>  <r_i_glide_metal>  (383) 
-0

>  <r_i_glide_rewards>  (383) 
-1.42954

>  <r_i_glide_evdw>  (383) 
-17.0509

>  <r_i_glide_ecoul>  (383) 
-3.39292

>  <r_i_glide_erotb>  (383) 
0

>  <r_i_glide_esite>  (383) 
-0.0427606

>  <r_i_glide_emodel>  (383) 
-25.5707

>  <r_i_glide_energy>  (383) 
-20.4439

>  <r_i_glide_einternal>  (383) 
0.0549798

>  <r_i_glide_intrahb_reward>  (383) 
-0

>  <i_i_glide_confnum>  (383) 
2

>  <i_i_glide_posenum>  (383) 
21

>  <r_i_glide_eff_state_penalty>  (383) 
0

>  <ligand_id>  (383) 
91

>  <original_smiles>  (383) 
COc1cc2c(cc1OC)C1C(=O)OC3CCN(CC2)C31

>  <smiles>  (383) 
[H]c1c(OC([H])([H])[H])c(OC([H])([H])[H])c([H])c2c1C([H])([H])C([H])([H])[N+]1([H])C([H])([H])C([H])([H])C3([H])OC(=O)C2([H])C31[H]

$$$$
92:0:0
     RDKit          3D

 22 24  0  0  1  0  0  0  0  0999 V2000
   -0.7290   -8.6973    2.5119 C   0  0  0  0  0  0  0  0  0  0  0  0
   -1.4421   -8.3015    3.6621 C   0  0  0  0  0  0  0  0  0  0  0  0
   -1.1459   -7.2072    4.4019 N   0  0  0  0  0  0  0  0  0  0  0  0
   -0.0468   -6.5156    3.9809 C   0  0  0  0  0  0  0  0  0  0  0  0
    0.7430   -6.7993    2.8465 C   0  0  0  0  0  0  0  0  0  0  0  0
    0.3854   -7.9386    2.0949 C   0  0  0  0  0  0  0  0  0  0  0  0
    1.7319   -5.8431    2.7041 N   0  0  0  0  0  0  0  0  0  0  0  0
    1.6150   -4.9990    3.6891 N   0  0  0  0  0  0  0  0  0  0  0  0
    0.5651   -5.3737    4.4847 N   0  0  0  0  0  0  0  0  0  0  0  0
    0.2169   -4.5981    5.6282 C   0  0  0  0  0  0  0  0  0  0  0  0
    0.5812   -3.2359    5.7316 C   0  0  0  0  0  0  0  0  0  0  0  0
    0.2142   -2.5191    6.8852 C   0  0  0  0  0  0  0  0  0  0  0  0
   -0.4918   -3.0563    7.9022 N   0  0  0  0  0  0  0  0  0  0  0  0
   -0.8333   -4.3577    7.8091 C   0  0  0  0  0  0  0  0  0  0  0  0
   -0.5090   -5.1599    6.7027 C   0  0  0  0  0  0  0  0  0  0  0  0
   -1.0259   -9.5808    1.9633 H   0  0  0  0  0  0  0  0  0  0  0  0
   -2.2952   -8.8755    3.9976 H   0  0  0  0  0  0  0  0  0  0  0  0
    0.9482   -8.2303    1.2204 H   0  0  0  0  0  0  0  0  0  0  0  0
    1.1323   -2.7347    4.9492 H   0  0  0  0  0  0  0  0  0  0  0  0
    0.4771   -1.4768    6.9875 H   0  0  0  0  0  0  0  0  0  0  0  0
   -1.3921   -4.7649    8.6394 H   0  0  0  0  0  0  0  0  0  0  0  0
   -0.8122   -6.1923    6.6994 H   0  0  0  0  0  0  0  0  0  0  0  0
  1  6  2  0
  1  2  1  0
  1 16  1  0
  2  3  2  0
  2 17  1  0
  3  4  1  0
  4  9  1  0
  4  5  2  0
  5  6  1  0
  5  7  1  0
  6 18  1  0
  7  8  2  0
  8  9  1  0
  9 10  1  0
 10 15  1  0
 10 11  2  0
 11 12  1  0
 11 19  1  0
 12 13  2  0
 12 20  1  0
 13 14  1  0
 14 15  2  0
 14 21  1  0
 15 22  1  0
M  END
>  <i_m_ct_stereo_status>  (384) 
1

>  <s_m_source_file>  (384) 
/var/tmp/pbs.5076255.sched01/tmp277fsmq3/144xeprw1xa.sdf

>  <i_m_source_file_index>  (384) 
15

>  <i_lp_mmshare_version>  (384) 
48012

>  <i_f3d_flags>  (384) 
0

>  <s_epik_input>  (384) 
bjFbY0hdW2NIXVtjSF1jKGMxMilubm4yLWMzW2NIXVtjSF1uW2NIXVtjSF0z

>  <s_epik_cmdline>  (384) 
J2VwaWtfcHl0aG9uJywgJy1waHQnLCAnMi4wJywgJy1waCcsICc3LjAnLCAnLXRuJywgJzgnLCAnLW1hJywgJzIwMCcsICctaW1hZScsICc8aW5maWxlLm1hZT4nLCAnLW9tYWUnLCAnPG91dGZpbGUubWFlPic=

>  <r_lp_tautomer_probability>  (384) 
1

>  <r_epik_Ionization_Penalty>  (384) 
4.36205e-07

>  <r_epik_Ionization_Penalty_Charging>  (384) 
0

>  <r_epik_Ionization_Penalty_Neutral>  (384) 
4.36205e-07

>  <r_epik_State_Penalty>  (384) 
-0

>  <r_epik_Charging_Adjusted_Penalty>  (384) 
0

>  <i_epik_Tot_Q>  (384) 
0

>  <i_epik_Tot_abs_Q>  (384) 
0

>  <s_lp_Force_Field>  (384) 
OPLS3e

>  <r_lp_Energy>  (384) 
24.6195

>  <b_lp_Chiralities_Consistent>  (384) 
1

>  <s_lp_Variant>  (384) 
92:0-1

>  <s_i_glide_gridfile>  (384) 
pfpi4k_grid

>  <i_i_glide_lignum>  (384) 
15

>  <i_i_glide_rotatable_bonds>  (384) 
1

>  <r_i_docking_score>  (384) 
-3.24979

>  <r_i_glide_ligand_efficiency>  (384) 
-0.216653

>  <r_i_glide_ligand_efficiency_sa>  (384) 
-0.534312

>  <r_i_glide_ligand_efficiency_ln>  (384) 
-0.876415

>  <r_i_glide_gscore>  (384) 
-3.24979

>  <r_i_glide_lipo>  (384) 
-0.0484915

>  <r_i_glide_hbond>  (384) 
-0.0926396

>  <r_i_glide_metal>  (384) 
-0

>  <r_i_glide_rewards>  (384) 
-2.06457

>  <r_i_glide_evdw>  (384) 
-16.2345

>  <r_i_glide_ecoul>  (384) 
-3.71783

>  <r_i_glide_erotb>  (384) 
0.418047

>  <r_i_glide_esite>  (384) 
-0.0927364

>  <r_i_glide_emodel>  (384) 
-24.5198

>  <r_i_glide_energy>  (384) 
-19.9523

>  <r_i_glide_einternal>  (384) 
0.00656237

>  <r_i_glide_intrahb_reward>  (384) 
-0

>  <i_i_glide_confnum>  (384) 
5

>  <i_i_glide_posenum>  (384) 
24

>  <r_i_glide_eff_state_penalty>  (384) 
0

>  <ligand_id>  (384) 
92

>  <original_smiles>  (384) 
c1cnc2c(c1)nnn2-c1ccncc1

>  <smiles>  (384) 
[H]c1nc([H])c([H])c(-n2nnc3c([H])c([H])c([H])nc32)c1[H]

$$$$
92:0:1
     RDKit          3D

 22 24  0  0  1  0  0  0  0  0999 V2000
    1.8372   -2.6041    3.2771 C   0  0  0  0  0  0  0  0  0  0  0  0
    1.8248   -1.2968    2.7386 C   0  0  0  0  0  0  0  0  0  0  0  0
    0.9639   -0.3270    3.1200 N   0  0  0  0  0  0  0  0  0  0  0  0
    0.0766   -0.7035    4.0862 C   0  0  0  0  0  0  0  0  0  0  0  0
   -0.0142   -1.9625    4.7098 C   0  0  0  0  0  0  0  0  0  0  0  0
    0.9057   -2.9452    4.2796 C   0  0  0  0  0  0  0  0  0  0  0  0
   -1.0335   -1.9547    5.6503 N   0  0  0  0  0  0  0  0  0  0  0  0
   -1.5804   -0.7750    5.6353 N   0  0  0  0  0  0  0  0  0  0  0  0
   -0.9471    0.0010    4.7056 N   0  0  0  0  0  0  0  0  0  0  0  0
   -1.3551    1.3412    4.5039 C   0  0  0  0  0  0  0  0  0  0  0  0
   -1.7659    2.1453    5.5898 C   0  0  0  0  0  0  0  0  0  0  0  0
   -2.1566    3.4699    5.3311 C   0  0  0  0  0  0  0  0  0  0  0  0
   -2.1746    4.0206    4.0996 N   0  0  0  0  0  0  0  0  0  0  0  0
   -1.7821    3.2470    3.0664 C   0  0  0  0  0  0  0  0  0  0  0  0
   -1.3687    1.9094    3.2124 C   0  0  0  0  0  0  0  0  0  0  0  0
    2.5565   -3.3306    2.9236 H   0  0  0  0  0  0  0  0  0  0  0  0
    2.5382   -1.0239    1.9738 H   0  0  0  0  0  0  0  0  0  0  0  0
    0.8938   -3.9375    4.7015 H   0  0  0  0  0  0  0  0  0  0  0  0
   -1.7692    1.7759    6.6047 H   0  0  0  0  0  0  0  0  0  0  0  0
   -2.4658    4.1152    6.1386 H   0  0  0  0  0  0  0  0  0  0  0  0
   -1.8040    3.7135    2.0916 H   0  0  0  0  0  0  0  0  0  0  0  0
   -1.0724    1.3436    2.3408 H   0  0  0  0  0  0  0  0  0  0  0  0
  1  6  2  0
  1  2  1  0
  1 16  1  0
  2  3  2  0
  2 17  1  0
  3  4  1  0
  4  9  1  0
  4  5  2  0
  5  6  1  0
  5  7  1  0
  6 18  1  0
  7  8  2  0
  8  9  1  0
  9 10  1  0
 10 15  1  0
 10 11  2  0
 11 12  1  0
 11 19  1  0
 12 13  2  0
 12 20  1  0
 13 14  1  0
 14 15  2  0
 14 21  1  0
 15 22  1  0
M  END
>  <i_m_ct_stereo_status>  (385) 
1

>  <s_m_source_file>  (385) 
/var/tmp/pbs.5076255.sched01/tmp277fsmq3/144xeprw1xa.sdf

>  <i_m_source_file_index>  (385) 
15

>  <i_lp_mmshare_version>  (385) 
48012

>  <i_f3d_flags>  (385) 
0

>  <s_epik_input>  (385) 
bjFbY0hdW2NIXVtjSF1jKGMxMilubm4yLWMzW2NIXVtjSF1uW2NIXVtjSF0z

>  <s_epik_cmdline>  (385) 
J2VwaWtfcHl0aG9uJywgJy1waHQnLCAnMi4wJywgJy1waCcsICc3LjAnLCAnLXRuJywgJzgnLCAnLW1hJywgJzIwMCcsICctaW1hZScsICc8aW5maWxlLm1hZT4nLCAnLW9tYWUnLCAnPG91dGZpbGUubWFlPic=

>  <r_lp_tautomer_probability>  (385) 
1

>  <r_epik_Ionization_Penalty>  (385) 
4.36205e-07

>  <r_epik_Ionization_Penalty_Charging>  (385) 
0

>  <r_epik_Ionization_Penalty_Neutral>  (385) 
4.36205e-07

>  <r_epik_State_Penalty>  (385) 
-0

>  <r_epik_Charging_Adjusted_Penalty>  (385) 
0

>  <i_epik_Tot_Q>  (385) 
0

>  <i_epik_Tot_abs_Q>  (385) 
0

>  <s_lp_Force_Field>  (385) 
OPLS3e

>  <r_lp_Energy>  (385) 
24.6195

>  <b_lp_Chiralities_Consistent>  (385) 
1

>  <s_lp_Variant>  (385) 
92:0-1

>  <s_i_glide_gridfile>  (385) 
pfpi4k_grid

>  <i_i_glide_lignum>  (385) 
15

>  <i_i_glide_rotatable_bonds>  (385) 
1

>  <r_i_docking_score>  (385) 
-3.17442

>  <r_i_glide_ligand_efficiency>  (385) 
-0.211628

>  <r_i_glide_ligand_efficiency_sa>  (385) 
-0.52192

>  <r_i_glide_ligand_efficiency_ln>  (385) 
-0.85609

>  <r_i_glide_gscore>  (385) 
-3.17442

>  <r_i_glide_lipo>  (385) 
-0.0417209

>  <r_i_glide_hbond>  (385) 
-0.0345908

>  <r_i_glide_metal>  (385) 
-0

>  <r_i_glide_rewards>  (385) 
-2.06457

>  <r_i_glide_evdw>  (385) 
-17.34

>  <r_i_glide_ecoul>  (385) 
-2.89719

>  <r_i_glide_erotb>  (385) 
0.418047

>  <r_i_glide_esite>  (385) 
-0.150008

>  <r_i_glide_emodel>  (385) 
-24.5197

>  <r_i_glide_energy>  (385) 
-20.2372

>  <r_i_glide_einternal>  (385) 
0.412983

>  <r_i_glide_intrahb_reward>  (385) 
-0

>  <i_i_glide_confnum>  (385) 
5

>  <i_i_glide_posenum>  (385) 
25

>  <r_i_glide_eff_state_penalty>  (385) 
0

>  <ligand_id>  (385) 
92

>  <original_smiles>  (385) 
c1cnc2c(c1)nnn2-c1ccncc1

>  <smiles>  (385) 
[H]c1nc([H])c([H])c(-n2nnc3c([H])c([H])c([H])nc32)c1[H]

$$$$
92:0:2
     RDKit          3D

 22 24  0  0  1  0  0  0  0  0999 V2000
    1.7382   -2.7505    3.4932 C   0  0  0  0  0  0  0  0  0  0  0  0
    0.5920   -2.1887    4.0964 C   0  0  0  0  0  0  0  0  0  0  0  0
    0.2184   -0.8946    3.9741 N   0  0  0  0  0  0  0  0  0  0  0  0
    1.0523   -0.1392    3.1968 C   0  0  0  0  0  0  0  0  0  0  0  0
    2.2255   -0.5700    2.5473 C   0  0  0  0  0  0  0  0  0  0  0  0
    2.5712   -1.9294    2.7034 C   0  0  0  0  0  0  0  0  0  0  0  0
    2.8206    0.4898    1.8840 N   0  0  0  0  0  0  0  0  0  0  0  0
    2.0928    1.5493    2.0898 N   0  0  0  0  0  0  0  0  0  0  0  0
    1.0195    1.2075    2.8635 N   0  0  0  0  0  0  0  0  0  0  0  0
    0.0826    2.1932    3.2582 C   0  0  0  0  0  0  0  0  0  0  0  0
   -1.3036    1.9281    3.2578 C   0  0  0  0  0  0  0  0  0  0  0  0
   -2.1849    2.9450    3.6654 C   0  0  0  0  0  0  0  0  0  0  0  0
   -1.7795    4.1661    4.0738 N   0  0  0  0  0  0  0  0  0  0  0  0
   -0.4512    4.4133    4.0661 C   0  0  0  0  0  0  0  0  0  0  0  0
    0.5159    3.4704    3.6781 C   0  0  0  0  0  0  0  0  0  0  0  0
    1.9744   -3.7956    3.6340 H   0  0  0  0  0  0  0  0  0  0  0  0
   -0.0590   -2.8121    4.6938 H   0  0  0  0  0  0  0  0  0  0  0  0
    3.4610   -2.3308    2.2440 H   0  0  0  0  0  0  0  0  0  0  0  0
   -1.6936    0.9723    2.9360 H   0  0  0  0  0  0  0  0  0  0  0  0
   -3.2509    2.7778    3.6774 H   0  0  0  0  0  0  0  0  0  0  0  0
   -0.1540    5.3986    4.3966 H   0  0  0  0  0  0  0  0  0  0  0  0
    1.5653    3.7311    3.6951 H   0  0  0  0  0  0  0  0  0  0  0  0
  1  6  2  0
  1  2  1  0
  1 16  1  0
  2  3  2  0
  2 17  1  0
  3  4  1  0
  4  9  1  0
  4  5  2  0
  5  6  1  0
  5  7  1  0
  6 18  1  0
  7  8  2  0
  8  9  1  0
  9 10  1  0
 10 15  1  0
 10 11  2  0
 11 12  1  0
 11 19  1  0
 12 13  2  0
 12 20  1  0
 13 14  1  0
 14 15  2  0
 14 21  1  0
 15 22  1  0
M  END
>  <i_m_ct_stereo_status>  (386) 
1

>  <s_m_source_file>  (386) 
/var/tmp/pbs.5076255.sched01/tmp277fsmq3/144xeprw1xa.sdf

>  <i_m_source_file_index>  (386) 
15

>  <i_lp_mmshare_version>  (386) 
48012

>  <i_f3d_flags>  (386) 
0

>  <s_epik_input>  (386) 
bjFbY0hdW2NIXVtjSF1jKGMxMilubm4yLWMzW2NIXVtjSF1uW2NIXVtjSF0z

>  <s_epik_cmdline>  (386) 
J2VwaWtfcHl0aG9uJywgJy1waHQnLCAnMi4wJywgJy1waCcsICc3LjAnLCAnLXRuJywgJzgnLCAnLW1hJywgJzIwMCcsICctaW1hZScsICc8aW5maWxlLm1hZT4nLCAnLW9tYWUnLCAnPG91dGZpbGUubWFlPic=

>  <r_lp_tautomer_probability>  (386) 
1

>  <r_epik_Ionization_Penalty>  (386) 
4.36205e-07

>  <r_epik_Ionization_Penalty_Charging>  (386) 
0

>  <r_epik_Ionization_Penalty_Neutral>  (386) 
4.36205e-07

>  <r_epik_State_Penalty>  (386) 
-0

>  <r_epik_Charging_Adjusted_Penalty>  (386) 
0

>  <i_epik_Tot_Q>  (386) 
0

>  <i_epik_Tot_abs_Q>  (386) 
0

>  <s_lp_Force_Field>  (386) 
OPLS3e

>  <r_lp_Energy>  (386) 
24.6195

>  <b_lp_Chiralities_Consistent>  (386) 
1

>  <s_lp_Variant>  (386) 
92:0-1

>  <s_i_glide_gridfile>  (386) 
pfpi4k_grid

>  <i_i_glide_lignum>  (386) 
15

>  <i_i_glide_rotatable_bonds>  (386) 
1

>  <r_i_docking_score>  (386) 
-3.10971

>  <r_i_glide_ligand_efficiency>  (386) 
-0.207314

>  <r_i_glide_ligand_efficiency_sa>  (386) 
-0.511281

>  <r_i_glide_ligand_efficiency_ln>  (386) 
-0.838639

>  <r_i_glide_gscore>  (386) 
-3.10971

>  <r_i_glide_lipo>  (386) 
-0.0566437

>  <r_i_glide_hbond>  (386) 
-0.0569778

>  <r_i_glide_metal>  (386) 
-0

>  <r_i_glide_rewards>  (386) 
-2.06457

>  <r_i_glide_evdw>  (386) 
-18.3321

>  <r_i_glide_ecoul>  (386) 
-2.55025

>  <r_i_glide_erotb>  (386) 
0.418047

>  <r_i_glide_esite>  (386) 
-0.0504227

>  <r_i_glide_emodel>  (386) 
-24.891

>  <r_i_glide_energy>  (386) 
-20.8824

>  <r_i_glide_einternal>  (386) 
0.725908

>  <r_i_glide_intrahb_reward>  (386) 
-0

>  <i_i_glide_confnum>  (386) 
3

>  <i_i_glide_posenum>  (386) 
11

>  <r_i_glide_eff_state_penalty>  (386) 
0

>  <ligand_id>  (386) 
92

>  <original_smiles>  (386) 
c1cnc2c(c1)nnn2-c1ccncc1

>  <smiles>  (386) 
[H]c1nc([H])c([H])c(-n2nnc3c([H])c([H])c([H])nc32)c1[H]

$$$$
93:0:0
     RDKit          3D

 66 70  0  0  1  0  0  0  0  0999 V2000
    8.8786   -4.1119   -0.6442 C   0  0  0  0  0  0  0  0  0  0  0  0
    7.9996   -3.4274   -1.5292 O   0  0  0  0  0  0  0  0  0  0  0  0
    6.6064   -3.3712   -1.2129 C   0  0  2  0  0  0  0  0  0  0  0  0
    5.6933   -3.2324   -2.6852 C   0  0  0  0  0  0  0  0  0  0  0  0
    4.0894   -2.5066   -2.6843 C   0  0  1  0  0  0  0  0  0  0  0  0
    3.2763   -3.0434   -3.8547 C   0  0  0  0  0  0  0  0  0  0  0  0
    3.1236   -2.4775   -1.2689 C   0  0  2  0  0  0  0  0  0  0  0  0
    1.9133   -3.4582   -1.3057 C   0  0  0  0  0  0  0  0  0  0  0  0
    4.3157   -2.8890   -0.7588 C   0  0  1  0  0  0  0  0  0  0  0  0
    5.4326   -1.5041   -0.8814 C   0  0  0  0  0  0  0  0  0  0  0  0
    6.2533   -2.2413   -0.0836 C   0  0  2  0  0  0  0  0  0  0  0  0
    7.4080   -1.4536    0.5478 C   0  0  0  0  0  0  0  0  0  0  0  0
    4.8944   -2.4786    0.8281 C   0  0  1  0  0  0  0  0  0  0  0  0
    5.0740   -2.5771    2.2600 O   0  0  0  0  0  0  0  0  0  0  0  0
    4.7487   -1.4832    3.1023 C   0  0  2  0  0  0  0  0  0  0  0  0
    5.3726   -1.6130    4.3560 O   0  0  0  0  0  0  0  0  0  0  0  0
    5.0482   -2.8087    5.0969 C   0  0  1  0  0  0  0  0  0  0  0  0
    5.8874   -2.8428    6.3816 C   0  0  0  0  0  0  0  0  0  0  0  0
    5.6429   -4.0389    7.1045 O   0  0  0  0  0  0  0  0  0  0  0  0
    3.5147   -2.7994    5.4006 C   0  0  1  0  0  0  0  0  0  0  0  0
    3.2213   -1.7378    6.3051 O   0  0  0  0  0  0  0  0  0  0  0  0
    2.7346   -2.5996    4.1077 C   0  0  1  0  0  0  0  0  0  0  0  0
    1.3100   -2.5950    4.2651 O   0  0  0  0  0  0  0  0  0  0  0  0
    3.2159   -1.3794    3.3478 C   0  0  1  0  0  0  0  0  0  0  0  0
    2.9330   -0.1856    4.0399 O   0  0  0  0  0  0  0  0  0  0  0  0
    3.3565   -1.9970    0.2750 C   0  0  1  0  0  0  0  0  0  0  0  0
    3.0280   -0.6397    0.4168 O   0  0  0  0  0  0  0  0  0  0  0  0
    4.7762   -3.8301    0.3382 C   0  0  1  0  0  0  0  0  0  0  0  0
    3.8681   -4.8796    1.0269 C   0  0  0  0  0  0  0  0  0  0  0  0
    6.0825   -4.4730   -0.2245 C   0  0  0  0  0  0  0  0  0  0  0  0
    9.8717   -3.9824   -1.0599 H   0  0  0  0  0  0  0  0  0  0  0  0
    8.6813   -5.1815   -0.5693 H   0  0  0  0  0  0  0  0  0  0  0  0
    8.9149   -3.7083    0.3721 H   0  0  0  0  0  0  0  0  0  0  0  0
    6.2810   -2.6851   -3.4223 H   0  0  0  0  0  0  0  0  0  0  0  0
    5.5843   -4.2480   -3.0601 H   0  0  0  0  0  0  0  0  0  0  0  0
    4.1938   -1.4531   -2.9583 H   0  0  0  0  0  0  0  0  0  0  0  0
    3.0810   -4.1141   -3.7801 H   0  0  0  0  0  0  0  0  0  0  0  0
    3.8531   -2.8792   -4.7510 H   0  0  0  0  0  0  0  0  0  0  0  0
    2.3249   -2.5196   -3.9631 H   0  0  0  0  0  0  0  0  0  0  0  0
    1.4369   -3.6136   -0.3462 H   0  0  0  0  0  0  0  0  0  0  0  0
    2.1874   -4.4535   -1.6247 H   0  0  0  0  0  0  0  0  0  0  0  0
    1.1465   -3.0574   -1.9684 H   0  0  0  0  0  0  0  0  0  0  0  0
    4.2133   -3.9219   -1.1851 H   0  0  0  0  0  0  0  0  0  0  0  0
    5.9095   -1.1069   -1.7867 H   0  0  0  0  0  0  0  0  0  0  0  0
    5.2460   -0.5553   -0.3543 H   0  0  0  0  0  0  0  0  0  0  0  0
    7.0713   -0.5924    1.1501 H   0  0  0  0  0  0  0  0  0  0  0  0
    8.2059   -1.1872   -0.1746 H   0  0  0  0  0  0  0  0  0  0  0  0
    7.8599   -2.1543    1.2398 H   0  0  0  0  0  0  0  0  0  0  0  0
    5.2121   -0.5990    2.6421 H   0  0  0  0  0  0  0  0  0  0  0  0
    5.3352   -3.6545    4.4673 H   0  0  0  0  0  0  0  0  0  0  0  0
    6.9546   -2.7596    6.1744 H   0  0  0  0  0  0  0  0  0  0  0  0
    5.6258   -1.9906    7.0109 H   0  0  0  0  0  0  0  0  0  0  0  0
    5.8853   -4.7989    6.5536 H   0  0  0  0  0  0  0  0  0  0  0  0
    3.2447   -3.7768    5.8307 H   0  0  0  0  0  0  0  0  0  0  0  0
    3.3626   -0.9308    5.7743 H   0  0  0  0  0  0  0  0  0  0  0  0
    2.9818   -3.4829    3.5345 H   0  0  0  0  0  0  0  0  0  0  0  0
    0.9192   -2.4769    3.3873 H   0  0  0  0  0  0  0  0  0  0  0  0
    2.5825   -1.3984    2.4874 H   0  0  0  0  0  0  0  0  0  0  0  0
    1.9916   -0.0320    3.8791 H   0  0  0  0  0  0  0  0  0  0  0  0
    2.6007   -2.4953    0.8667 H   0  0  0  0  0  0  0  0  0  0  0  0
    2.0920   -0.5746    0.0947 H   0  0  0  0  0  0  0  0  0  0  0  0
    4.4717   -5.5105    1.6912 H   0  0  0  0  0  0  0  0  0  0  0  0
    3.4014   -5.5380    0.2908 H   0  0  0  0  0  0  0  0  0  0  0  0
    3.0741   -4.4355    1.6155 H   0  0  0  0  0  0  0  0  0  0  0  0
    5.8466   -5.4207   -0.7289 H   0  0  0  0  0  0  0  0  0  0  0  0
    6.7057   -4.6651    0.6562 H   0  0  0  0  0  0  0  0  0  0  0  0
  1  2  1  0
  1 31  1  0
  1 32  1  0
  1 33  1  0
  3  2  1  6
  3 11  1  0
  3 30  1  0
  3  4  1  0
  4  5  1  0
  4 34  1  0
  4 35  1  0
  5  6  1  0
  5  7  1  0
  5 36  1  6
  6 37  1  0
  6 38  1  0
  6 39  1  0
  7 26  1  0
  7  8  1  1
  7  9  1  0
  8 40  1  0
  8 41  1  0
  8 42  1  0
  9 28  1  0
  9 10  1  0
  9 43  1  6
 10 11  1  0
 10 44  1  0
 10 45  1  0
 11 12  1  1
 11 13  1  0
 12 46  1  0
 12 47  1  0
 12 48  1  0
 13 14  1  1
 13 26  1  0
 13 28  1  0
 14 15  1  0
 15 24  1  0
 15 16  1  0
 15 49  1  6
 16 17  1  0
 17 18  1  0
 17 20  1  0
 17 50  1  6
 18 19  1  0
 18 51  1  0
 18 52  1  0
 19 53  1  0
 20 21  1  0
 20 22  1  0
 20 54  1  1
 21 55  1  0
 22 23  1  0
 22 24  1  0
 22 56  1  6
 23 57  1  0
 24 25  1  0
 24 58  1  6
 25 59  1  0
 26 27  1  0
 26 60  1  1
 27 61  1  0
 28 29  1  1
 28 30  1  0
 29 62  1  0
 29 63  1  0
 29 64  1  0
 30 65  1  0
 30 66  1  0
M  END
>  <i_m_ct_stereo_status>  (387) 
1

>  <s_m_source_file>  (387) 
/var/tmp/pbs.5076255.sched01/tmp277fsmq3/144xeprw1xa.sdf

>  <i_m_source_file_index>  (387) 
16

>  <i_lp_mmshare_version>  (387) 
48012

>  <i_f3d_flags>  (387) 
0

>  <s_epik_input>  (387) 
W0NIMl0xW0NAQEhdKFtDSDNdKUMoW0NIM10pKFtDQEBIXTJbT0hdKVtDSF0oW0NIMl0zKVtDQEBdKFtDSDNdKShbQ0gyXTQpW0NAXTIoW0NAQF0zKFtDSDNdKVtDQF0xNE9bQ0gzXSlPW0NAQEhdNU9bQ0BASF0oW0NIMl1bT0hdKVtDQEBIXShbT0hdKVtDQEBIXShbT0hdKVtDQEhdNVtPSF0=

>  <s_epik_cmdline>  (387) 
J2VwaWtfcHl0aG9uJywgJy1waHQnLCAnMi4wJywgJy1waCcsICc3LjAnLCAnLXRuJywgJzgnLCAnLW1hJywgJzIwMCcsICctaW1hZScsICc8aW5maWxlLm1hZT4nLCAnLW9tYWUnLCAnPG91dGZpbGUubWFlPic=

>  <r_lp_tautomer_probability>  (387) 
1

>  <r_epik_Ionization_Penalty>  (387) 
2.68857e-06

>  <r_epik_Ionization_Penalty_Charging>  (387) 
0

>  <r_epik_Ionization_Penalty_Neutral>  (387) 
2.68857e-06

>  <r_epik_State_Penalty>  (387) 
-0

>  <r_epik_Charging_Adjusted_Penalty>  (387) 
0

>  <i_epik_Tot_Q>  (387) 
0

>  <i_epik_Tot_abs_Q>  (387) 
0

>  <s_epik_Chemistry_Notes>  (387) 
This compound contains an acetal/aminal-like group ( X-CH(R)-Y where X, Y are N, S, or O) that may be acid/base labile, releasing an aldehyde.

>  <s_lp_Force_Field>  (387) 
OPLS3e

>  <r_lp_Energy>  (387) 
436.32

>  <b_lp_Chiralities_Consistent>  (387) 
1

>  <s_lp_Variant>  (387) 
93:0-1

>  <s_i_glide_gridfile>  (387) 
pfpi4k_grid

>  <i_i_glide_lignum>  (387) 
16

>  <i_i_glide_rotatable_bonds>  (387) 
9

>  <r_i_docking_score>  (387) 
-3.10614

>  <r_i_glide_ligand_efficiency>  (387) 
-0.103538

>  <r_i_glide_ligand_efficiency_sa>  (387) 
-0.321717

>  <r_i_glide_ligand_efficiency_ln>  (387) 
-0.70575

>  <r_i_glide_gscore>  (387) 
-3.10614

>  <r_i_glide_lipo>  (387) 
-0.773115

>  <r_i_glide_hbond>  (387) 
0

>  <r_i_glide_metal>  (387) 
-0

>  <r_i_glide_rewards>  (387) 
-1.06702

>  <r_i_glide_evdw>  (387) 
-17.3341

>  <r_i_glide_ecoul>  (387) 
-5.92409

>  <r_i_glide_erotb>  (387) 
0.324535

>  <r_i_glide_esite>  (387) 
0

>  <r_i_glide_emodel>  (387) 
-20.1793

>  <r_i_glide_energy>  (387) 
-23.2582

>  <r_i_glide_einternal>  (387) 
14.8984

>  <r_i_glide_intrahb_reward>  (387) 
-0.5

>  <i_i_glide_confnum>  (387) 
4

>  <i_i_glide_posenum>  (387) 
25

>  <r_i_glide_eff_state_penalty>  (387) 
0

>  <ligand_id>  (387) 
93

>  <original_smiles>  (387) 
COC12CC(C)C3(C)C4CC1(C)C(OC1OC(CO)C(O)C(O)C1O)(C3O)C4(C)C2

>  <smiles>  (387) 
[H]OC([H])([H])C1([H])OC([H])(OC23C([H])(O[H])C4(C([H])([H])[H])C([H])(C([H])([H])[H])C([H])([H])C5(OC([H])([H])[H])C([H])([H])C2(C([H])([H])[H])C4([H])C([H])([H])C53C([H])([H])[H])C([H])(O[H])C([H])(O[H])C1([H])O[H]

$$$$
93:0:1
     RDKit          3D

 66 70  0  0  1  0  0  0  0  0999 V2000
    8.7177   -4.5385   -0.3135 C   0  0  0  0  0  0  0  0  0  0  0  0
    7.9708   -3.6548   -1.1597 O   0  0  0  0  0  0  0  0  0  0  0  0
    6.5418   -3.5703   -1.0314 C   0  0  2  0  0  0  0  0  0  0  0  0
    5.8002   -3.2259   -2.5766 C   0  0  0  0  0  0  0  0  0  0  0  0
    4.2392   -2.3776   -2.6472 C   0  0  1  0  0  0  0  0  0  0  0  0
    3.5403   -2.7207   -3.9542 C   0  0  0  0  0  0  0  0  0  0  0  0
    3.1418   -2.4315   -1.3187 C   0  0  2  0  0  0  0  0  0  0  0  0
    1.8966   -3.3139   -1.6360 C   0  0  0  0  0  0  0  0  0  0  0  0
    4.2309   -3.0036   -0.7786 C   0  0  1  0  0  0  0  0  0  0  0  0
    5.4362   -1.6884   -0.6247 C   0  0  0  0  0  0  0  0  0  0  0  0
    6.1108   -2.5630    0.1709 C   0  0  2  0  0  0  0  0  0  0  0  0
    7.2356   -1.9548    0.9912 C   0  0  0  0  0  0  0  0  0  0  0  0
    4.6670   -2.8064    0.9021 C   0  0  1  0  0  0  0  0  0  0  0  0
    4.7017   -3.0876    2.3065 O   0  0  0  0  0  0  0  0  0  0  0  0
    4.6478   -2.0097    3.2121 C   0  0  2  0  0  0  0  0  0  0  0  0
    5.3829   -2.2966    4.4021 O   0  0  0  0  0  0  0  0  0  0  0  0
    4.9170   -3.4456    5.1237 C   0  0  1  0  0  0  0  0  0  0  0  0
    5.8679   -3.6979    6.3081 C   0  0  0  0  0  0  0  0  0  0  0  0
    5.4775   -4.8614    7.0274 O   0  0  0  0  0  0  0  0  0  0  0  0
    3.4518   -3.2106    5.5824 C   0  0  1  0  0  0  0  0  0  0  0  0
    3.3710   -2.2486    6.6279 O   0  0  0  0  0  0  0  0  0  0  0  0
    2.5850   -2.8070    4.3815 C   0  0  1  0  0  0  0  0  0  0  0  0
    1.2257   -2.5825    4.7447 O   0  0  0  0  0  0  0  0  0  0  0  0
    3.1861   -1.6534    3.5756 C   0  0  1  0  0  0  0  0  0  0  0  0
    3.1807   -0.4113    4.2672 O   0  0  0  0  0  0  0  0  0  0  0  0
    3.2226   -2.1308    0.2877 C   0  0  1  0  0  0  0  0  0  0  0  0
    3.0166   -0.7604    0.5096 O   0  0  0  0  0  0  0  0  0  0  0  0
    4.5134   -4.0794    0.2428 C   0  0  1  0  0  0  0  0  0  0  0  0
    3.4510   -5.1022    0.7268 C   0  0  0  0  0  0  0  0  0  0  0  0
    5.8324   -4.7368   -0.2648 C   0  0  0  0  0  0  0  0  0  0  0  0
    9.7460   -4.4674   -0.6687 H   0  0  0  0  0  0  0  0  0  0  0  0
    8.4253   -5.5928   -0.3758 H   0  0  0  0  0  0  0  0  0  0  0  0
    8.6683   -4.2700    0.7305 H   0  0  0  0  0  0  0  0  0  0  0  0
    6.5185   -2.6623   -3.1786 H   0  0  0  0  0  0  0  0  0  0  0  0
    5.6755   -4.1793   -3.0863 H   0  0  0  0  0  0  0  0  0  0  0  0
    4.4377   -1.3091   -2.7992 H   0  0  0  0  0  0  0  0  0  0  0  0
    3.2811   -3.7796   -4.0286 H   0  0  0  0  0  0  0  0  0  0  0  0
    4.2540   -2.4733   -4.7228 H   0  0  0  0  0  0  0  0  0  0  0  0
    2.6391   -2.1181   -4.1064 H   0  0  0  0  0  0  0  0  0  0  0  0
    1.3362   -3.5464   -0.7356 H   0  0  0  0  0  0  0  0  0  0  0  0
    2.1419   -4.2511   -2.1006 H   0  0  0  0  0  0  0  0  0  0  0  0
    1.2409   -2.7824   -2.3251 H   0  0  0  0  0  0  0  0  0  0  0  0
    4.1113   -3.9633   -1.3468 H   0  0  0  0  0  0  0  0  0  0  0  0
    6.0398   -1.2408   -1.4172 H   0  0  0  0  0  0  0  0  0  0  0  0
    5.2596   -0.7867   -0.0349 H   0  0  0  0  0  0  0  0  0  0  0  0
    6.9757   -1.0820    1.5868 H   0  0  0  0  0  0  0  0  0  0  0  0
    8.1043   -1.6987    0.3924 H   0  0  0  0  0  0  0  0  0  0  0  0
    7.4382   -2.7893    1.6694 H   0  0  0  0  0  0  0  0  0  0  0  0
    5.1708   -1.1701    2.7557 H   0  0  0  0  0  0  0  0  0  0  0  0
    4.9710   -4.3088    4.4526 H   0  0  0  0  0  0  0  0  0  0  0  0
    6.8988   -3.8143    5.9768 H   0  0  0  0  0  0  0  0  0  0  0  0
    5.8599   -2.8471    6.9892 H   0  0  0  0  0  0  0  0  0  0  0  0
    4.5833   -4.7150    7.3663 H   0  0  0  0  0  0  0  0  0  0  0  0
    3.0649   -4.1529    5.9689 H   0  0  0  0  0  0  0  0  0  0  0  0
    2.4387   -2.0108    6.7396 H   0  0  0  0  0  0  0  0  0  0  0  0
    2.5880   -3.6644    3.7204 H   0  0  0  0  0  0  0  0  0  0  0  0
    0.7531   -2.2638    3.9627 H   0  0  0  0  0  0  0  0  0  0  0  0
    2.5551   -1.5498    2.6992 H   0  0  0  0  0  0  0  0  0  0  0  0
    3.4485    0.2842    3.6460 H   0  0  0  0  0  0  0  0  0  0  0  0
    2.3872   -2.5847    0.8134 H   0  0  0  0  0  0  0  0  0  0  0  0
    2.1079   -0.6024    0.1446 H   0  0  0  0  0  0  0  0  0  0  0  0
    3.9471   -5.8664    1.3327 H   0  0  0  0  0  0  0  0  0  0  0  0
    2.9943   -5.6286   -0.1151 H   0  0  0  0  0  0  0  0  0  0  0  0
    2.6682   -4.6710    1.3499 H   0  0  0  0  0  0  0  0  0  0  0  0
    5.6011   -5.5766   -0.9184 H   0  0  0  0  0  0  0  0  0  0  0  0
    6.3551   -5.1061    0.6216 H   0  0  0  0  0  0  0  0  0  0  0  0
  1  2  1  0
  1 31  1  0
  1 32  1  0
  1 33  1  0
  3  2  1  6
  3 11  1  0
  3 30  1  0
  3  4  1  0
  4  5  1  0
  4 34  1  0
  4 35  1  0
  5  6  1  0
  5  7  1  0
  5 36  1  6
  6 37  1  0
  6 38  1  0
  6 39  1  0
  7 26  1  0
  7  8  1  1
  7  9  1  0
  8 40  1  0
  8 41  1  0
  8 42  1  0
  9 28  1  0
  9 10  1  0
  9 43  1  6
 10 11  1  0
 10 44  1  0
 10 45  1  0
 11 12  1  1
 11 13  1  0
 12 46  1  0
 12 47  1  0
 12 48  1  0
 13 14  1  1
 13 26  1  0
 13 28  1  0
 14 15  1  0
 15 24  1  0
 15 16  1  0
 15 49  1  6
 16 17  1  0
 17 18  1  0
 17 20  1  0
 17 50  1  6
 18 19  1  0
 18 51  1  0
 18 52  1  0
 19 53  1  0
 20 21  1  0
 20 22  1  0
 20 54  1  1
 21 55  1  0
 22 23  1  0
 22 24  1  0
 22 56  1  6
 23 57  1  0
 24 25  1  0
 24 58  1  6
 25 59  1  0
 26 27  1  0
 26 60  1  1
 27 61  1  0
 28 29  1  1
 28 30  1  0
 29 62  1  0
 29 63  1  0
 29 64  1  0
 30 65  1  0
 30 66  1  0
M  END
>  <i_m_ct_stereo_status>  (388) 
1

>  <s_m_source_file>  (388) 
/var/tmp/pbs.5076255.sched01/tmp277fsmq3/144xeprw1xa.sdf

>  <i_m_source_file_index>  (388) 
16

>  <i_lp_mmshare_version>  (388) 
48012

>  <i_f3d_flags>  (388) 
0

>  <s_epik_input>  (388) 
W0NIMl0xW0NAQEhdKFtDSDNdKUMoW0NIM10pKFtDQEBIXTJbT0hdKVtDSF0oW0NIMl0zKVtDQEBdKFtDSDNdKShbQ0gyXTQpW0NAXTIoW0NAQF0zKFtDSDNdKVtDQF0xNE9bQ0gzXSlPW0NAQEhdNU9bQ0BASF0oW0NIMl1bT0hdKVtDQEBIXShbT0hdKVtDQEBIXShbT0hdKVtDQEhdNVtPSF0=

>  <s_epik_cmdline>  (388) 
J2VwaWtfcHl0aG9uJywgJy1waHQnLCAnMi4wJywgJy1waCcsICc3LjAnLCAnLXRuJywgJzgnLCAnLW1hJywgJzIwMCcsICctaW1hZScsICc8aW5maWxlLm1hZT4nLCAnLW9tYWUnLCAnPG91dGZpbGUubWFlPic=

>  <r_lp_tautomer_probability>  (388) 
1

>  <r_epik_Ionization_Penalty>  (388) 
2.68857e-06

>  <r_epik_Ionization_Penalty_Charging>  (388) 
0

>  <r_epik_Ionization_Penalty_Neutral>  (388) 
2.68857e-06

>  <r_epik_State_Penalty>  (388) 
-0

>  <r_epik_Charging_Adjusted_Penalty>  (388) 
0

>  <i_epik_Tot_Q>  (388) 
0

>  <i_epik_Tot_abs_Q>  (388) 
0

>  <s_epik_Chemistry_Notes>  (388) 
This compound contains an acetal/aminal-like group ( X-CH(R)-Y where X, Y are N, S, or O) that may be acid/base labile, releasing an aldehyde.

>  <s_lp_Force_Field>  (388) 
OPLS3e

>  <r_lp_Energy>  (388) 
436.32

>  <b_lp_Chiralities_Consistent>  (388) 
1

>  <s_lp_Variant>  (388) 
93:0-1

>  <s_i_glide_gridfile>  (388) 
pfpi4k_grid

>  <i_i_glide_lignum>  (388) 
16

>  <i_i_glide_rotatable_bonds>  (388) 
9

>  <r_i_docking_score>  (388) 
-2.67094

>  <r_i_glide_ligand_efficiency>  (388) 
-0.0890315

>  <r_i_glide_ligand_efficiency_sa>  (388) 
-0.276641

>  <r_i_glide_ligand_efficiency_ln>  (388) 
-0.606868

>  <r_i_glide_gscore>  (388) 
-2.67094

>  <r_i_glide_lipo>  (388) 
-0.765735

>  <r_i_glide_hbond>  (388) 
0

>  <r_i_glide_metal>  (388) 
-0

>  <r_i_glide_rewards>  (388) 
-0.541939

>  <r_i_glide_evdw>  (388) 
-16.8457

>  <r_i_glide_ecoul>  (388) 
-5.63679

>  <r_i_glide_erotb>  (388) 
0.324535

>  <r_i_glide_esite>  (388) 
0

>  <r_i_glide_emodel>  (388) 
-18.4166

>  <r_i_glide_energy>  (388) 
-22.4825

>  <r_i_glide_einternal>  (388) 
9.95022

>  <r_i_glide_intrahb_reward>  (388) 
-0

>  <i_i_glide_confnum>  (388) 
4

>  <i_i_glide_posenum>  (388) 
11

>  <r_i_glide_eff_state_penalty>  (388) 
0

>  <ligand_id>  (388) 
93

>  <original_smiles>  (388) 
COC12CC(C)C3(C)C4CC1(C)C(OC1OC(CO)C(O)C(O)C1O)(C3O)C4(C)C2

>  <smiles>  (388) 
[H]OC([H])([H])C1([H])OC([H])(OC23C([H])(O[H])C4(C([H])([H])[H])C([H])(C([H])([H])[H])C([H])([H])C5(OC([H])([H])[H])C([H])([H])C2(C([H])([H])[H])C4([H])C([H])([H])C53C([H])([H])[H])C([H])(O[H])C([H])(O[H])C1([H])O[H]

$$$$
93:0:2
     RDKit          3D

 66 70  0  0  1  0  0  0  0  0999 V2000
    7.4320   -6.1907    1.0662 C   0  0  0  0  0  0  0  0  0  0  0  0
    7.1585   -5.1746    0.1256 O   0  0  0  0  0  0  0  0  0  0  0  0
    5.8192   -4.7076   -0.0776 C   0  0  2  0  0  0  0  0  0  0  0  0
    5.6007   -4.1546   -1.7152 C   0  0  0  0  0  0  0  0  0  0  0  0
    4.3677   -2.9666   -2.1101 C   0  0  1  0  0  0  0  0  0  0  0  0
    3.9979   -3.1294   -3.6036 C   0  0  0  0  0  0  0  0  0  0  0  0
    2.9747   -2.7497   -1.1016 C   0  0  2  0  0  0  0  0  0  0  0  0
    1.6883   -3.3057   -1.8034 C   0  0  0  0  0  0  0  0  0  0  0  0
    3.7125   -3.5873   -0.3439 C   0  0  1  0  0  0  0  0  0  0  0  0
    5.0960   -2.6224    0.2110 C   0  0  0  0  0  0  0  0  0  0  0  0
    5.3110   -3.6571    1.0732 C   0  0  2  0  0  0  0  0  0  0  0  0
    6.2664   -3.3696    2.2048 C   0  0  0  0  0  0  0  0  0  0  0  0
    3.7215   -3.5592    1.3909 C   0  0  1  0  0  0  0  0  0  0  0  0
    3.3234   -3.8462    2.7423 O   0  0  0  0  0  0  0  0  0  0  0  0
    3.3751   -2.7970    3.6807 C   0  0  2  0  0  0  0  0  0  0  0  0
    3.8725   -3.2297    4.9288 O   0  0  0  0  0  0  0  0  0  0  0  0
    3.0921   -4.2887    5.5319 C   0  0  1  0  0  0  0  0  0  0  0  0
    3.8167   -4.7727    6.7983 C   0  0  0  0  0  0  0  0  0  0  0  0
    3.1119   -5.8488    7.4148 O   0  0  0  0  0  0  0  0  0  0  0  0
    1.6680   -3.7528    5.8126 C   0  0  1  0  0  0  0  0  0  0  0  0
    1.6678   -2.7915    6.8753 O   0  0  0  0  0  0  0  0  0  0  0  0
    1.0617   -3.1710    4.5295 C   0  0  1  0  0  0  0  0  0  0  0  0
   -0.2479   -2.6469    4.7467 O   0  0  0  0  0  0  0  0  0  0  0  0
    1.9826   -2.1479    3.8571 C   0  0  1  0  0  0  0  0  0  0  0  0
    2.1180   -0.9312    4.5989 O   0  0  0  0  0  0  0  0  0  0  0  0
    2.6823   -2.5405    0.5130 C   0  0  1  0  0  0  0  0  0  0  0  0
    2.6754   -1.1712    0.8899 O   0  0  0  0  0  0  0  0  0  0  0  0
    3.4744   -4.7477    0.6011 C   0  0  1  0  0  0  0  0  0  0  0  0
    2.1326   -5.4903    0.7415 C   0  0  0  0  0  0  0  0  0  0  0  0
    4.6913   -5.6909    0.3802 C   0  0  0  0  0  0  0  0  0  0  0  0
    8.5019   -6.4042    1.1004 H   0  0  0  0  0  0  0  0  0  0  0  0
    6.9313   -7.1432    0.8148 H   0  0  0  0  0  0  0  0  0  0  0  0
    7.1204   -5.9234    2.0820 H   0  0  0  0  0  0  0  0  0  0  0  0
    6.5563   -3.7738   -2.0935 H   0  0  0  0  0  0  0  0  0  0  0  0
    5.3608   -5.0401   -2.2986 H   0  0  0  0  0  0  0  0  0  0  0  0
    4.8484   -1.9717   -2.1384 H   0  0  0  0  0  0  0  0  0  0  0  0
    3.5147   -4.0866   -3.8043 H   0  0  0  0  0  0  0  0  0  0  0  0
    4.8945   -3.0913   -4.2125 H   0  0  0  0  0  0  0  0  0  0  0  0
    3.3273   -2.3334   -3.9385 H   0  0  0  0  0  0  0  0  0  0  0  0
    0.8509   -3.4140   -1.1296 H   0  0  0  0  0  0  0  0  0  0  0  0
    1.8303   -4.2594   -2.2709 H   0  0  0  0  0  0  0  0  0  0  0  0
    1.4046   -2.6333   -2.6066 H   0  0  0  0  0  0  0  0  0  0  0  0
    3.5425   -4.4671   -1.0002 H   0  0  0  0  0  0  0  0  0  0  0  0
    5.9811   -2.3263   -0.3601 H   0  0  0  0  0  0  0  0  0  0  0  0
    4.9486   -1.6934    0.7737 H   0  0  0  0  0  0  0  0  0  0  0  0
    6.0952   -2.4286    2.7198 H   0  0  0  0  0  0  0  0  0  0  0  0
    7.2707   -3.3258    1.7835 H   0  0  0  0  0  0  0  0  0  0  0  0
    6.2010   -4.1910    2.9176 H   0  0  0  0  0  0  0  0  0  0  0  0
    4.1001   -2.0549    3.3174 H   0  0  0  0  0  0  0  0  0  0  0  0
    3.0523   -5.1202    4.8269 H   0  0  0  0  0  0  0  0  0  0  0  0
    4.8248   -5.1080    6.5720 H   0  0  0  0  0  0  0  0  0  0  0  0
    3.9228   -3.9600    7.5184 H   0  0  0  0  0  0  0  0  0  0  0  0
    2.2191   -5.5464    7.6511 H   0  0  0  0  0  0  0  0  0  0  0  0
    1.0480   -4.5931    6.1183 H   0  0  0  0  0  0  0  0  0  0  0  0
    2.1717   -3.1379    7.6256 H   0  0  0  0  0  0  0  0  0  0  0  0
    0.9564   -3.9972    3.8253 H   0  0  0  0  0  0  0  0  0  0  0  0
   -0.5451   -2.2106    3.9345 H   0  0  0  0  0  0  0  0  0  0  0  0
    1.5450   -1.8993    2.8979 H   0  0  0  0  0  0  0  0  0  0  0  0
    2.6478   -0.3089    4.0806 H   0  0  0  0  0  0  0  0  0  0  0  0
    1.6748   -2.8000    0.7710 H   0  0  0  0  0  0  0  0  0  0  0  0
    1.9844   -0.7786    0.3079 H   0  0  0  0  0  0  0  0  0  0  0  0
    2.2756   -6.3698    1.3715 H   0  0  0  0  0  0  0  0  0  0  0  0
    1.7661   -5.8384   -0.2182 H   0  0  0  0  0  0  0  0  0  0  0  0
    1.4187   -4.8768    1.2482 H   0  0  0  0  0  0  0  0  0  0  0  0
    4.5179   -6.4642   -0.3662 H   0  0  0  0  0  0  0  0  0  0  0  0
    4.8839   -6.1855    1.3507 H   0  0  0  0  0  0  0  0  0  0  0  0
  1  2  1  0
  1 31  1  0
  1 32  1  0
  1 33  1  0
  3  2  1  1
  3 11  1  0
  3 30  1  0
  3  4  1  0
  4  5  1  0
  4 34  1  0
  4 35  1  0
  5  6  1  0
  5  7  1  0
  5 36  1  6
  6 37  1  0
  6 38  1  0
  6 39  1  0
  7 26  1  0
  7  8  1  1
  7  9  1  0
  8 40  1  0
  8 41  1  0
  8 42  1  0
  9 28  1  0
  9 10  1  0
  9 43  1  6
 10 11  1  0
 10 44  1  0
 10 45  1  0
 11 12  1  1
 11 13  1  0
 12 46  1  0
 12 47  1  0
 12 48  1  0
 13 14  1  1
 13 26  1  0
 13 28  1  0
 14 15  1  0
 15 24  1  0
 15 16  1  0
 15 49  1  6
 16 17  1  0
 17 18  1  0
 17 20  1  0
 17 50  1  6
 18 19  1  0
 18 51  1  0
 18 52  1  0
 19 53  1  0
 20 21  1  0
 20 22  1  0
 20 54  1  1
 21 55  1  0
 22 23  1  0
 22 24  1  0
 22 56  1  6
 23 57  1  0
 24 25  1  0
 24 58  1  6
 25 59  1  0
 26 27  1  0
 26 60  1  6
 27 61  1  0
 28 29  1  1
 28 30  1  0
 29 62  1  0
 29 63  1  0
 29 64  1  0
 30 65  1  0
 30 66  1  0
M  END
>  <i_m_ct_stereo_status>  (389) 
1

>  <s_m_source_file>  (389) 
/var/tmp/pbs.5076255.sched01/tmp277fsmq3/144xeprw1xa.sdf

>  <i_m_source_file_index>  (389) 
16

>  <i_lp_mmshare_version>  (389) 
48012

>  <i_f3d_flags>  (389) 
0

>  <s_epik_input>  (389) 
W0NIMl0xW0NAQEhdKFtDSDNdKUMoW0NIM10pKFtDQEBIXTJbT0hdKVtDSF0oW0NIMl0zKVtDQEBdKFtDSDNdKShbQ0gyXTQpW0NAXTIoW0NAQF0zKFtDSDNdKVtDQF0xNE9bQ0gzXSlPW0NAQEhdNU9bQ0BASF0oW0NIMl1bT0hdKVtDQEBIXShbT0hdKVtDQEBIXShbT0hdKVtDQEhdNVtPSF0=

>  <s_epik_cmdline>  (389) 
J2VwaWtfcHl0aG9uJywgJy1waHQnLCAnMi4wJywgJy1waCcsICc3LjAnLCAnLXRuJywgJzgnLCAnLW1hJywgJzIwMCcsICctaW1hZScsICc8aW5maWxlLm1hZT4nLCAnLW9tYWUnLCAnPG91dGZpbGUubWFlPic=

>  <r_lp_tautomer_probability>  (389) 
1

>  <r_epik_Ionization_Penalty>  (389) 
2.68857e-06

>  <r_epik_Ionization_Penalty_Charging>  (389) 
0

>  <r_epik_Ionization_Penalty_Neutral>  (389) 
2.68857e-06

>  <r_epik_State_Penalty>  (389) 
-0

>  <r_epik_Charging_Adjusted_Penalty>  (389) 
0

>  <i_epik_Tot_Q>  (389) 
0

>  <i_epik_Tot_abs_Q>  (389) 
0

>  <s_epik_Chemistry_Notes>  (389) 
This compound contains an acetal/aminal-like group ( X-CH(R)-Y where X, Y are N, S, or O) that may be acid/base labile, releasing an aldehyde.

>  <s_lp_Force_Field>  (389) 
OPLS3e

>  <r_lp_Energy>  (389) 
436.32

>  <b_lp_Chiralities_Consistent>  (389) 
1

>  <s_lp_Variant>  (389) 
93:0-1

>  <s_i_glide_gridfile>  (389) 
pfpi4k_grid

>  <i_i_glide_lignum>  (389) 
16

>  <i_i_glide_rotatable_bonds>  (389) 
9

>  <r_i_docking_score>  (389) 
-2.49863

>  <r_i_glide_ligand_efficiency>  (389) 
-0.0832876

>  <r_i_glide_ligand_efficiency_sa>  (389) 
-0.258794

>  <r_i_glide_ligand_efficiency_ln>  (389) 
-0.567715

>  <r_i_glide_gscore>  (389) 
-2.49863

>  <r_i_glide_lipo>  (389) 
-0.517432

>  <r_i_glide_hbond>  (389) 
0

>  <r_i_glide_metal>  (389) 
-0

>  <r_i_glide_rewards>  (389) 
-0.487388

>  <r_i_glide_evdw>  (389) 
-11.6658

>  <r_i_glide_ecoul>  (389) 
-8.2337

>  <r_i_glide_erotb>  (389) 
0.324535

>  <r_i_glide_esite>  (389) 
0

>  <r_i_glide_emodel>  (389) 
-17.0052

>  <r_i_glide_energy>  (389) 
-19.8995

>  <r_i_glide_einternal>  (389) 
9.26878

>  <r_i_glide_intrahb_reward>  (389) 
-0

>  <i_i_glide_confnum>  (389) 
4

>  <i_i_glide_posenum>  (389) 
17

>  <r_i_glide_eff_state_penalty>  (389) 
0

>  <ligand_id>  (389) 
93

>  <original_smiles>  (389) 
COC12CC(C)C3(C)C4CC1(C)C(OC1OC(CO)C(O)C(O)C1O)(C3O)C4(C)C2

>  <smiles>  (389) 
[H]OC([H])([H])C1([H])OC([H])(OC23C([H])(O[H])C4(C([H])([H])[H])C([H])(C([H])([H])[H])C([H])([H])C5(OC([H])([H])[H])C([H])([H])C2(C([H])([H])[H])C4([H])C([H])([H])C53C([H])([H])[H])C([H])(O[H])C([H])(O[H])C1([H])O[H]

$$$$
94:0:0
     RDKit          3D

 45 48  0  0  1  0  0  0  0  0999 V2000
  -11.0129   -8.9989   -7.9231 C   0  0  0  0  0  0  0  0  0  0  0  0
   -9.5797   -8.7193   -7.5357 C   0  0  0  0  0  0  0  0  0  0  0  0
   -8.4575   -9.4843   -7.6410 C   0  0  0  0  0  0  0  0  0  0  0  0
   -8.5581  -10.8493   -8.2502 C   0  0  0  0  0  0  0  0  0  0  0  0
   -9.3117  -11.1507   -9.1801 O   0  0  0  0  0  0  0  0  0  0  0  0
   -7.6385  -11.9469   -7.6923 C   0  0  0  0  0  0  0  0  0  0  0  0
   -6.2829  -11.3665   -7.2334 C   0  0  2  0  0  0  0  0  0  0  0  0
   -5.3643  -12.3692   -6.5156 C   0  0  0  0  0  0  0  0  0  0  0  0
   -4.5087  -11.5074   -5.5845 C   0  0  0  0  0  0  0  0  0  0  0  0
   -5.1715  -10.1601   -5.5069 C   0  0  0  0  0  0  0  0  0  0  0  0
   -6.5292  -10.2366   -6.2376 C   0  0  1  0  0  0  0  0  0  0  0  0
   -7.0338   -9.0608   -7.1445 C   0  0  2  0  0  0  0  0  0  0  0  0
   -6.9512   -7.6472   -6.4987 C   0  0  0  0  0  0  0  0  0  0  0  0
   -6.3504   -7.4446   -5.2256 C   0  0  0  0  0  0  0  0  0  0  0  0
   -6.3326   -6.1923   -4.6173 C   0  0  0  0  0  0  0  0  0  0  0  0
   -6.9215   -5.0935   -5.2491 C   0  0  0  0  0  0  0  0  0  0  0  0
   -6.8903   -3.7768   -4.5450 C   0  0  0  0  0  0  0  0  0  0  0  0
   -7.5203   -5.2502   -6.5233 C   0  0  0  0  0  0  0  0  0  0  0  0
   -7.4907   -6.5069   -7.1645 C   0  0  0  0  0  0  0  0  0  0  0  0
   -6.0284   -9.1712   -8.3201 C   0  0  0  0  0  0  0  0  0  0  0  0
   -5.5723  -10.6412   -8.3881 C   0  0  0  0  0  0  0  0  0  0  0  0
  -11.6604   -8.5383   -7.1749 H   0  0  0  0  0  0  0  0  0  0  0  0
  -11.2651  -10.0654   -7.9610 H   0  0  0  0  0  0  0  0  0  0  0  0
  -11.2419   -8.5247   -8.8815 H   0  0  0  0  0  0  0  0  0  0  0  0
   -9.5002   -7.7341   -7.1312 H   0  0  0  0  0  0  0  0  0  0  0  0
   -8.1496  -12.4083   -6.8484 H   0  0  0  0  0  0  0  0  0  0  0  0
   -7.4948  -12.7137   -8.4552 H   0  0  0  0  0  0  0  0  0  0  0  0
   -5.9691  -13.0525   -5.9142 H   0  0  0  0  0  0  0  0  0  0  0  0
   -4.7473  -12.9565   -7.1947 H   0  0  0  0  0  0  0  0  0  0  0  0
   -4.5151  -11.9132   -4.5777 H   0  0  0  0  0  0  0  0  0  0  0  0
   -3.4704  -11.4081   -5.9137 H   0  0  0  0  0  0  0  0  0  0  0  0
   -5.2877   -9.9272   -4.4470 H   0  0  0  0  0  0  0  0  0  0  0  0
   -4.5048   -9.3951   -5.9112 H   0  0  0  0  0  0  0  0  0  0  0  0
   -7.2983  -10.5201   -5.5210 H   0  0  0  0  0  0  0  0  0  0  0  0
   -5.9075   -8.1834   -4.6435 H   0  0  0  0  0  0  0  0  0  0  0  0
   -5.8753   -6.0936   -3.6443 H   0  0  0  0  0  0  0  0  0  0  0  0
   -7.4993   -3.0553   -5.0878 H   0  0  0  0  0  0  0  0  0  0  0  0
   -5.8518   -3.4342   -4.4646 H   0  0  0  0  0  0  0  0  0  0  0  0
   -7.3005   -3.8870   -3.5318 H   0  0  0  0  0  0  0  0  0  0  0  0
   -8.0067   -4.4037   -7.0072 H   0  0  0  0  0  0  0  0  0  0  0  0
   -7.9271   -6.6006   -8.1505 H   0  0  0  0  0  0  0  0  0  0  0  0
   -6.4495   -8.8157   -9.2612 H   0  0  0  0  0  0  0  0  0  0  0  0
   -5.1479   -8.5525   -8.1256 H   0  0  0  0  0  0  0  0  0  0  0  0
   -4.4879  -10.7011   -8.2754 H   0  0  0  0  0  0  0  0  0  0  0  0
   -5.8107  -11.0985   -9.3469 H   0  0  0  0  0  0  0  0  0  0  0  0
  1  2  1  0
  1 22  1  0
  1 23  1  0
  1 24  1  0
  2  3  2  3
  2 25  1  0
  3 12  1  0
  3  4  1  0
  4  5  2  0
  4  6  1  0
  7  6  1  6
  6 26  1  0
  6 27  1  0
  7 11  1  0
  7 21  1  0
  7  8  1  0
  8  9  1  0
  8 28  1  0
  8 29  1  0
  9 10  1  0
  9 30  1  0
  9 31  1  0
 10 11  1  0
 10 32  1  0
 10 33  1  0
 11 12  1  0
 11 34  1  1
 12 13  1  1
 12 20  1  0
 13 19  1  0
 13 14  2  0
 14 15  1  0
 14 35  1  0
 15 16  2  0
 15 36  1  0
 16 17  1  0
 16 18  1  0
 17 37  1  0
 17 38  1  0
 17 39  1  0
 18 19  2  0
 18 40  1  0
 19 41  1  0
 20 21  1  0
 20 42  1  0
 20 43  1  0
 21 44  1  0
 21 45  1  0
M  END
>  <i_m_ct_stereo_status>  (390) 
1

>  <s_m_source_file>  (390) 
/var/tmp/pbs.5076255.sched01/tmp277fsmq3/144xeprw1xa.sdf

>  <i_m_source_file_index>  (390) 
17

>  <i_lp_mmshare_version>  (390) 
48012

>  <i_f3d_flags>  (390) 
0

>  <s_epik_input>  (390) 
W0NIMl0xW0NIMl1bQ0gyXVtDQEhdKFtDQEBdMTIzKVtDQEBdKFtDSDJdW0NIMl0zKShDKD1bQ0hdXFtDSDNdKVxDKD1PKVtDSDJdMiljNFtjSF1bY0hdYyhbQ0gzXSlbY0hdW2NIXTQ=

>  <s_epik_cmdline>  (390) 
J2VwaWtfcHl0aG9uJywgJy1waHQnLCAnMi4wJywgJy1waCcsICc3LjAnLCAnLXRuJywgJzgnLCAnLW1hJywgJzIwMCcsICctaW1hZScsICc8aW5maWxlLm1hZT4nLCAnLW9tYWUnLCAnPG91dGZpbGUubWFlPic=

>  <r_lp_tautomer_probability>  (390) 
1

>  <r_epik_Ionization_Penalty>  (390) 
0

>  <r_epik_Ionization_Penalty_Charging>  (390) 
0

>  <r_epik_Ionization_Penalty_Neutral>  (390) 
0

>  <r_epik_State_Penalty>  (390) 
-0

>  <r_epik_Charging_Adjusted_Penalty>  (390) 
0

>  <i_epik_Tot_Q>  (390) 
0

>  <i_epik_Tot_abs_Q>  (390) 
0

>  <s_lp_Force_Field>  (390) 
OPLS3e

>  <r_lp_Energy>  (390) 
45.0348

>  <b_lp_Chiralities_Consistent>  (390) 
1

>  <s_lp_Variant>  (390) 
94:0-1

>  <s_i_glide_gridfile>  (390) 
pfpi4k_grid

>  <i_i_glide_lignum>  (390) 
17

>  <i_i_glide_rotatable_bonds>  (390) 
1

>  <r_i_docking_score>  (390) 
-5.38506

>  <r_i_glide_ligand_efficiency>  (390) 
-0.256432

>  <r_i_glide_ligand_efficiency_sa>  (390) 
-0.707475

>  <r_i_glide_ligand_efficiency_ln>  (390) 
-1.33145

>  <r_i_glide_gscore>  (390) 
-5.38506

>  <r_i_glide_lipo>  (390) 
-2.44799

>  <r_i_glide_hbond>  (390) 
0

>  <r_i_glide_metal>  (390) 
-0

>  <r_i_glide_rewards>  (390) 
-2.2031

>  <r_i_glide_evdw>  (390) 
-17.9064

>  <r_i_glide_ecoul>  (390) 
-0.455658

>  <r_i_glide_erotb>  (390) 
0.229687

>  <r_i_glide_esite>  (390) 
0

>  <r_i_glide_emodel>  (390) 
-17.3262

>  <r_i_glide_energy>  (390) 
-18.362

>  <r_i_glide_einternal>  (390) 
10.3326

>  <r_i_glide_intrahb_reward>  (390) 
-0

>  <i_i_glide_confnum>  (390) 
4

>  <i_i_glide_posenum>  (390) 
30

>  <r_i_glide_eff_state_penalty>  (390) 
0

>  <ligand_id>  (390) 
94

>  <original_smiles>  (390) 
CC=C1C(=O)CC23CCCC2C1(c1ccc(C)cc1)CC3

>  <smiles>  (390) 
[H]C(=C1C(=O)C([H])([H])C23C([H])([H])C([H])([H])C([H])([H])C2([H])C1(c1c([H])c([H])c(C([H])([H])[H])c([H])c1[H])C([H])([H])C3([H])[H])C([H])([H])[H]

$$$$
94:0:1
     RDKit          3D

 45 48  0  0  1  0  0  0  0  0999 V2000
  -11.0862  -10.7342   -7.5949 C   0  0  0  0  0  0  0  0  0  0  0  0
   -9.8244   -9.8939   -7.5802 C   0  0  0  0  0  0  0  0  0  0  0  0
   -8.5332  -10.3056   -7.5061 C   0  0  0  0  0  0  0  0  0  0  0  0
   -8.1848  -11.7642   -7.4452 C   0  0  0  0  0  0  0  0  0  0  0  0
   -8.8052  -12.6542   -8.0235 O   0  0  0  0  0  0  0  0  0  0  0  0
   -6.9424  -12.1731   -6.6403 C   0  0  0  0  0  0  0  0  0  0  0  0
   -5.8521  -11.0827   -6.6950 C   0  0  2  0  0  0  0  0  0  0  0  0
   -4.6512  -11.3192   -5.7683 C   0  0  0  0  0  0  0  0  0  0  0  0
   -4.1399   -9.9182   -5.4116 C   0  0  0  0  0  0  0  0  0  0  0  0
   -5.2199   -8.9155   -5.8132 C   0  0  0  0  0  0  0  0  0  0  0  0
   -6.4497   -9.7572   -6.2341 C   0  0  1  0  0  0  0  0  0  0  0  0
   -7.3162   -9.3381   -7.4478 C   0  0  2  0  0  0  0  0  0  0  0  0
   -7.7040   -7.8347   -7.4605 C   0  0  0  0  0  0  0  0  0  0  0  0
   -7.6210   -7.0574   -6.2909 C   0  0  0  0  0  0  0  0  0  0  0  0
   -7.9802   -5.7009   -6.2865 C   0  0  0  0  0  0  0  0  0  0  0  0
   -8.5001   -5.1152   -7.4454 C   0  0  0  0  0  0  0  0  0  0  0  0
   -8.9403   -3.6673   -7.3724 C   0  0  0  0  0  0  0  0  0  0  0  0
   -8.6188   -5.8724   -8.6246 C   0  0  0  0  0  0  0  0  0  0  0  0
   -8.2048   -7.2291   -8.6352 C   0  0  0  0  0  0  0  0  0  0  0  0
   -6.3682   -9.6546   -8.6201 C   0  0  0  0  0  0  0  0  0  0  0  0
   -5.4381  -10.7954   -8.1547 C   0  0  0  0  0  0  0  0  0  0  0  0
  -11.8591  -10.2290   -7.0148 H   0  0  0  0  0  0  0  0  0  0  0  0
  -10.9420  -11.7167   -7.1484 H   0  0  0  0  0  0  0  0  0  0  0  0
  -11.4666  -10.8641   -8.6081 H   0  0  0  0  0  0  0  0  0  0  0  0
  -10.0452   -8.8398   -7.6448 H   0  0  0  0  0  0  0  0  0  0  0  0
   -7.2499  -12.3536   -5.6109 H   0  0  0  0  0  0  0  0  0  0  0  0
   -6.5549  -13.1163   -7.0307 H   0  0  0  0  0  0  0  0  0  0  0  0
   -4.9660  -11.8340   -4.8570 H   0  0  0  0  0  0  0  0  0  0  0  0
   -3.8681  -11.9329   -6.2188 H   0  0  0  0  0  0  0  0  0  0  0  0
   -3.9407   -9.8207   -4.3485 H   0  0  0  0  0  0  0  0  0  0  0  0
   -3.2049   -9.7038   -5.9266 H   0  0  0  0  0  0  0  0  0  0  0  0
   -5.4246   -8.2845   -4.9498 H   0  0  0  0  0  0  0  0  0  0  0  0
   -4.8625   -8.2810   -6.6244 H   0  0  0  0  0  0  0  0  0  0  0  0
   -7.0790   -9.8962   -5.3583 H   0  0  0  0  0  0  0  0  0  0  0  0
   -7.3341   -7.4785   -5.3344 H   0  0  0  0  0  0  0  0  0  0  0  0
   -7.8970   -5.1348   -5.3708 H   0  0  0  0  0  0  0  0  0  0  0  0
   -9.4030   -3.3521   -8.2935 H   0  0  0  0  0  0  0  0  0  0  0  0
   -8.0636   -3.0566   -7.1887 H   0  0  0  0  0  0  0  0  0  0  0  0
   -9.6397   -3.5080   -6.5516 H   0  0  0  0  0  0  0  0  0  0  0  0
   -9.0569   -5.4455   -9.5222 H   0  0  0  0  0  0  0  0  0  0  0  0
   -8.3323   -7.8146   -9.5426 H   0  0  0  0  0  0  0  0  0  0  0  0
   -6.9061   -9.9019   -9.5374 H   0  0  0  0  0  0  0  0  0  0  0  0
   -5.7555   -8.7738   -8.8311 H   0  0  0  0  0  0  0  0  0  0  0  0
   -4.3967  -10.4708   -8.1865 H   0  0  0  0  0  0  0  0  0  0  0  0
   -5.5139  -11.6831   -8.7909 H   0  0  0  0  0  0  0  0  0  0  0  0
  1  2  1  0
  1 22  1  0
  1 23  1  0
  1 24  1  0
  2  3  2  3
  2 25  1  0
  3 12  1  0
  3  4  1  0
  4  5  2  0
  4  6  1  0
  7  6  1  6
  6 26  1  0
  6 27  1  0
  7 11  1  0
  7 21  1  0
  7  8  1  0
  8  9  1  0
  8 28  1  0
  8 29  1  0
  9 10  1  0
  9 30  1  0
  9 31  1  0
 10 11  1  0
 10 32  1  0
 10 33  1  0
 11 12  1  0
 11 34  1  1
 12 13  1  1
 12 20  1  0
 13 19  1  0
 13 14  2  0
 14 15  1  0
 14 35  1  0
 15 16  2  0
 15 36  1  0
 16 17  1  0
 16 18  1  0
 17 37  1  0
 17 38  1  0
 17 39  1  0
 18 19  2  0
 18 40  1  0
 19 41  1  0
 20 21  1  0
 20 42  1  0
 20 43  1  0
 21 44  1  0
 21 45  1  0
M  END
>  <i_m_ct_stereo_status>  (391) 
1

>  <s_m_source_file>  (391) 
/var/tmp/pbs.5076255.sched01/tmp277fsmq3/144xeprw1xa.sdf

>  <i_m_source_file_index>  (391) 
17

>  <i_lp_mmshare_version>  (391) 
48012

>  <i_f3d_flags>  (391) 
0

>  <s_epik_input>  (391) 
W0NIMl0xW0NIMl1bQ0gyXVtDQEhdKFtDQEBdMTIzKVtDQEBdKFtDSDJdW0NIMl0zKShDKD1bQ0hdXFtDSDNdKVxDKD1PKVtDSDJdMiljNFtjSF1bY0hdYyhbQ0gzXSlbY0hdW2NIXTQ=

>  <s_epik_cmdline>  (391) 
J2VwaWtfcHl0aG9uJywgJy1waHQnLCAnMi4wJywgJy1waCcsICc3LjAnLCAnLXRuJywgJzgnLCAnLW1hJywgJzIwMCcsICctaW1hZScsICc8aW5maWxlLm1hZT4nLCAnLW9tYWUnLCAnPG91dGZpbGUubWFlPic=

>  <r_lp_tautomer_probability>  (391) 
1

>  <r_epik_Ionization_Penalty>  (391) 
0

>  <r_epik_Ionization_Penalty_Charging>  (391) 
0

>  <r_epik_Ionization_Penalty_Neutral>  (391) 
0

>  <r_epik_State_Penalty>  (391) 
-0

>  <r_epik_Charging_Adjusted_Penalty>  (391) 
0

>  <i_epik_Tot_Q>  (391) 
0

>  <i_epik_Tot_abs_Q>  (391) 
0

>  <s_lp_Force_Field>  (391) 
OPLS3e

>  <r_lp_Energy>  (391) 
45.0348

>  <b_lp_Chiralities_Consistent>  (391) 
1

>  <s_lp_Variant>  (391) 
94:0-1

>  <s_i_glide_gridfile>  (391) 
pfpi4k_grid

>  <i_i_glide_lignum>  (391) 
17

>  <i_i_glide_rotatable_bonds>  (391) 
1

>  <r_i_docking_score>  (391) 
-5.2541

>  <r_i_glide_ligand_efficiency>  (391) 
-0.250195

>  <r_i_glide_ligand_efficiency_sa>  (391) 
-0.69027

>  <r_i_glide_ligand_efficiency_ln>  (391) 
-1.29907

>  <r_i_glide_gscore>  (391) 
-5.2541

>  <r_i_glide_lipo>  (391) 
-2.30694

>  <r_i_glide_hbond>  (391) 
0

>  <r_i_glide_metal>  (391) 
-0

>  <r_i_glide_rewards>  (391) 
-2.11493

>  <r_i_glide_evdw>  (391) 
-20.9836

>  <r_i_glide_ecoul>  (391) 
-0.0849393

>  <r_i_glide_erotb>  (391) 
0.229687

>  <r_i_glide_esite>  (391) 
0

>  <r_i_glide_emodel>  (391) 
-26.4337

>  <r_i_glide_energy>  (391) 
-21.0685

>  <r_i_glide_einternal>  (391) 
1.49898

>  <r_i_glide_intrahb_reward>  (391) 
-0

>  <i_i_glide_confnum>  (391) 
4

>  <i_i_glide_posenum>  (391) 
1

>  <r_i_glide_eff_state_penalty>  (391) 
0

>  <ligand_id>  (391) 
94

>  <original_smiles>  (391) 
CC=C1C(=O)CC23CCCC2C1(c1ccc(C)cc1)CC3

>  <smiles>  (391) 
[H]C(=C1C(=O)C([H])([H])C23C([H])([H])C([H])([H])C([H])([H])C2([H])C1(c1c([H])c([H])c(C([H])([H])[H])c([H])c1[H])C([H])([H])C3([H])[H])C([H])([H])[H]

$$$$
94:0:2
     RDKit          3D

 45 48  0  0  1  0  0  0  0  0999 V2000
  -11.9040  -10.1759   -7.7845 C   0  0  0  0  0  0  0  0  0  0  0  0
  -10.4547   -9.7202   -7.7643 C   0  0  0  0  0  0  0  0  0  0  0  0
   -9.3272  -10.4460   -7.9546 C   0  0  0  0  0  0  0  0  0  0  0  0
   -9.3987  -11.9172   -8.2376 C   0  0  0  0  0  0  0  0  0  0  0  0
  -10.2751  -12.4627   -8.8996 O   0  0  0  0  0  0  0  0  0  0  0  0
   -8.2669  -12.8071   -7.7044 C   0  0  0  0  0  0  0  0  0  0  0  0
   -6.9170  -12.0593   -7.6763 C   0  0  2  0  0  0  0  0  0  0  0  0
   -5.7797  -12.8168   -6.9708 C   0  0  0  0  0  0  0  0  0  0  0  0
   -4.8436  -11.7357   -6.4185 C   0  0  0  0  0  0  0  0  0  0  0  0
   -5.6220  -10.4231   -6.4560 C   0  0  0  0  0  0  0  0  0  0  0  0
   -7.0760  -10.7747   -6.8741 C   0  0  1  0  0  0  0  0  0  0  0  0
   -7.8867   -9.8735   -7.8529 C   0  0  2  0  0  0  0  0  0  0  0  0
   -7.8369   -8.3596   -7.5274 C   0  0  0  0  0  0  0  0  0  0  0  0
   -8.3182   -7.3937   -8.4497 C   0  0  0  0  0  0  0  0  0  0  0  0
   -8.3771   -6.0150   -8.0996 C   0  0  0  0  0  0  0  0  0  0  0  0
   -7.8857   -5.5901   -6.8487 C   0  0  0  0  0  0  0  0  0  0  0  0
   -7.9329   -4.1272   -6.4500 C   0  0  0  0  0  0  0  0  0  0  0  0
   -7.3795   -6.5296   -5.9400 C   0  0  0  0  0  0  0  0  0  0  0  0
   -7.3916   -7.8985   -6.2695 C   0  0  0  0  0  0  0  0  0  0  0  0
   -7.1462  -10.1389   -9.1825 C   0  0  0  0  0  0  0  0  0  0  0  0
   -6.5373  -11.5573   -9.0873 C   0  0  0  0  0  0  0  0  0  0  0  0
  -12.4491   -9.6276   -7.0148 H   0  0  0  0  0  0  0  0  0  0  0  0
  -12.0231  -11.2343   -7.5617 H   0  0  0  0  0  0  0  0  0  0  0  0
  -12.3721   -9.9546   -8.7445 H   0  0  0  0  0  0  0  0  0  0  0  0
  -10.3879   -8.6612   -7.5811 H   0  0  0  0  0  0  0  0  0  0  0  0
   -8.5452  -13.1263   -6.7048 H   0  0  0  0  0  0  0  0  0  0  0  0
   -8.1903  -13.7071   -8.3195 H   0  0  0  0  0  0  0  0  0  0  0  0
   -6.1859  -13.3912   -6.1355 H   0  0  0  0  0  0  0  0  0  0  0  0
   -5.2475  -13.5063   -7.6284 H   0  0  0  0  0  0  0  0  0  0  0  0
   -4.5618  -11.9678   -5.3913 H   0  0  0  0  0  0  0  0  0  0  0  0
   -3.9239  -11.6407   -6.9993 H   0  0  0  0  0  0  0  0  0  0  0  0
   -5.5463   -9.9986   -5.4547 H   0  0  0  0  0  0  0  0  0  0  0  0
   -5.1576   -9.7284   -7.1581 H   0  0  0  0  0  0  0  0  0  0  0  0
   -7.6519  -10.9556   -5.9685 H   0  0  0  0  0  0  0  0  0  0  0  0
   -8.7248   -7.7101   -9.4037 H   0  0  0  0  0  0  0  0  0  0  0  0
   -8.8252   -5.2959   -8.7835 H   0  0  0  0  0  0  0  0  0  0  0  0
   -7.4337   -3.9718   -5.4975 H   0  0  0  0  0  0  0  0  0  0  0  0
   -8.9594   -3.7825   -6.3503 H   0  0  0  0  0  0  0  0  0  0  0  0
   -7.4196   -3.5386   -7.2025 H   0  0  0  0  0  0  0  0  0  0  0  0
   -7.0344   -6.2288   -4.9612 H   0  0  0  0  0  0  0  0  0  0  0  0
   -7.1422   -8.5644   -5.4641 H   0  0  0  0  0  0  0  0  0  0  0  0
   -7.7705  -10.0190  -10.0733 H   0  0  0  0  0  0  0  0  0  0  0  0
   -6.3254   -9.4282   -9.2745 H   0  0  0  0  0  0  0  0  0  0  0  0
   -5.4515  -11.5146   -9.1925 H   0  0  0  0  0  0  0  0  0  0  0  0
   -6.9022  -12.2296   -9.8727 H   0  0  0  0  0  0  0  0  0  0  0  0
  1  2  1  0
  1 22  1  0
  1 23  1  0
  1 24  1  0
  2  3  2  3
  2 25  1  0
  3 12  1  0
  3  4  1  0
  4  5  2  0
  4  6  1  0
  7  6  1  6
  6 26  1  0
  6 27  1  0
  7 11  1  0
  7 21  1  0
  7  8  1  0
  8  9  1  0
  8 28  1  0
  8 29  1  0
  9 10  1  0
  9 30  1  0
  9 31  1  0
 10 11  1  0
 10 32  1  0
 10 33  1  0
 11 12  1  0
 11 34  1  1
 12 13  1  1
 12 20  1  0
 13 19  1  0
 13 14  2  0
 14 15  1  0
 14 35  1  0
 15 16  2  0
 15 36  1  0
 16 17  1  0
 16 18  1  0
 17 37  1  0
 17 38  1  0
 17 39  1  0
 18 19  2  0
 18 40  1  0
 19 41  1  0
 20 21  1  0
 20 42  1  0
 20 43  1  0
 21 44  1  0
 21 45  1  0
M  END
>  <i_m_ct_stereo_status>  (392) 
1

>  <s_m_source_file>  (392) 
/var/tmp/pbs.5076255.sched01/tmp277fsmq3/144xeprw1xa.sdf

>  <i_m_source_file_index>  (392) 
17

>  <i_lp_mmshare_version>  (392) 
48012

>  <i_f3d_flags>  (392) 
0

>  <s_epik_input>  (392) 
W0NIMl0xW0NIMl1bQ0gyXVtDQEhdKFtDQEBdMTIzKVtDQEBdKFtDSDJdW0NIMl0zKShDKD1bQ0hdXFtDSDNdKVxDKD1PKVtDSDJdMiljNFtjSF1bY0hdYyhbQ0gzXSlbY0hdW2NIXTQ=

>  <s_epik_cmdline>  (392) 
J2VwaWtfcHl0aG9uJywgJy1waHQnLCAnMi4wJywgJy1waCcsICc3LjAnLCAnLXRuJywgJzgnLCAnLW1hJywgJzIwMCcsICctaW1hZScsICc8aW5maWxlLm1hZT4nLCAnLW9tYWUnLCAnPG91dGZpbGUubWFlPic=

>  <r_lp_tautomer_probability>  (392) 
1

>  <r_epik_Ionization_Penalty>  (392) 
0

>  <r_epik_Ionization_Penalty_Charging>  (392) 
0

>  <r_epik_Ionization_Penalty_Neutral>  (392) 
0

>  <r_epik_State_Penalty>  (392) 
-0

>  <r_epik_Charging_Adjusted_Penalty>  (392) 
0

>  <i_epik_Tot_Q>  (392) 
0

>  <i_epik_Tot_abs_Q>  (392) 
0

>  <s_lp_Force_Field>  (392) 
OPLS3e

>  <r_lp_Energy>  (392) 
45.0348

>  <b_lp_Chiralities_Consistent>  (392) 
1

>  <s_lp_Variant>  (392) 
94:0-1

>  <s_i_glide_gridfile>  (392) 
pfpi4k_grid

>  <i_i_glide_lignum>  (392) 
17

>  <i_i_glide_rotatable_bonds>  (392) 
1

>  <r_i_docking_score>  (392) 
-4.92891

>  <r_i_glide_ligand_efficiency>  (392) 
-0.23471

>  <r_i_glide_ligand_efficiency_sa>  (392) 
-0.647547

>  <r_i_glide_ligand_efficiency_ln>  (392) 
-1.21866

>  <r_i_glide_gscore>  (392) 
-4.92891

>  <r_i_glide_lipo>  (392) 
-2.01191

>  <r_i_glide_hbond>  (392) 
0

>  <r_i_glide_metal>  (392) 
-0

>  <r_i_glide_rewards>  (392) 
-2.0984

>  <r_i_glide_evdw>  (392) 
-21.5917

>  <r_i_glide_ecoul>  (392) 
0.208642

>  <r_i_glide_erotb>  (392) 
0.229687

>  <r_i_glide_esite>  (392) 
0

>  <r_i_glide_emodel>  (392) 
-25.884

>  <r_i_glide_energy>  (392) 
-21.383

>  <r_i_glide_einternal>  (392) 
1.89116

>  <r_i_glide_intrahb_reward>  (392) 
-0

>  <i_i_glide_confnum>  (392) 
1

>  <i_i_glide_posenum>  (392) 
13

>  <r_i_glide_eff_state_penalty>  (392) 
0

>  <ligand_id>  (392) 
94

>  <original_smiles>  (392) 
CC=C1C(=O)CC23CCCC2C1(c1ccc(C)cc1)CC3

>  <smiles>  (392) 
[H]C(=C1C(=O)C([H])([H])C23C([H])([H])C([H])([H])C([H])([H])C2([H])C1(c1c([H])c([H])c(C([H])([H])[H])c([H])c1[H])C([H])([H])C3([H])[H])C([H])([H])[H]

$$$$
94:1:0
     RDKit          3D

 45 48  0  0  1  0  0  0  0  0999 V2000
  -10.6553   -5.2332   -7.0697 C   0  0  0  0  0  0  0  0  0  0  0  0
  -11.0434   -6.5019   -7.8198 C   0  0  0  0  0  0  0  0  0  0  0  0
  -10.2952   -7.5554   -8.2644 C   0  0  0  0  0  0  0  0  0  0  0  0
  -11.0807   -8.6130   -9.0032 C   0  0  0  0  0  0  0  0  0  0  0  0
  -12.1604   -8.3987   -9.5633 O   0  0  0  0  0  0  0  0  0  0  0  0
  -10.5316  -10.0494   -9.0586 C   0  0  0  0  0  0  0  0  0  0  0  0
   -8.9940  -10.0789   -8.9757 C   0  0  2  0  0  0  0  0  0  0  0  0
   -8.3853  -11.4810   -8.8100 C   0  0  0  0  0  0  0  0  0  0  0  0
   -7.0796  -11.2829   -8.0315 C   0  0  0  0  0  0  0  0  0  0  0  0
   -7.1694   -9.9029   -7.3994 C   0  0  0  0  0  0  0  0  0  0  0  0
   -8.5727   -9.3292   -7.7233 C   0  0  1  0  0  0  0  0  0  0  0  0
   -8.7414   -7.8323   -8.1335 C   0  0  2  0  0  0  0  0  0  0  0  0
   -7.9615   -6.8791   -7.1938 C   0  0  0  0  0  0  0  0  0  0  0  0
   -7.3653   -7.3069   -5.9792 C   0  0  0  0  0  0  0  0  0  0  0  0
   -6.7255   -6.4190   -5.1195 C   0  0  0  0  0  0  0  0  0  0  0  0
   -6.7434   -5.0533   -5.3922 C   0  0  0  0  0  0  0  0  0  0  0  0
   -6.0699   -4.1026   -4.4313 C   0  0  0  0  0  0  0  0  0  0  0  0
   -7.3621   -4.5892   -6.5703 C   0  0  0  0  0  0  0  0  0  0  0  0
   -7.8518   -5.5138   -7.5200 C   0  0  0  0  0  0  0  0  0  0  0  0
   -8.1354   -7.8536   -9.5681 C   0  0  0  0  0  0  0  0  0  0  0  0
   -8.3525   -9.2718  -10.1241 C   0  0  0  0  0  0  0  0  0  0  0  0
  -11.4652   -4.5261   -7.0899 H   0  0  0  0  0  0  0  0  0  0  0  0
   -9.9559   -4.6132   -7.6004 H   0  0  0  0  0  0  0  0  0  0  0  0
  -10.3673   -5.4224   -6.0356 H   0  0  0  0  0  0  0  0  0  0  0  0
  -12.1199   -6.5509   -7.9869 H   0  0  0  0  0  0  0  0  0  0  0  0
  -10.9616  -10.5896   -8.2150 H   0  0  0  0  0  0  0  0  0  0  0  0
  -10.8874  -10.5383   -9.9656 H   0  0  0  0  0  0  0  0  0  0  0  0
   -9.0581  -12.1060   -8.2183 H   0  0  0  0  0  0  0  0  0  0  0  0
   -8.2087  -11.9839   -9.7619 H   0  0  0  0  0  0  0  0  0  0  0  0
   -6.9642  -12.0389   -7.2531 H   0  0  0  0  0  0  0  0  0  0  0  0
   -6.1991  -11.3273   -8.6717 H   0  0  0  0  0  0  0  0  0  0  0  0
   -7.0095  -10.0579   -6.3344 H   0  0  0  0  0  0  0  0  0  0  0  0
   -6.3803   -9.2481   -7.7652 H   0  0  0  0  0  0  0  0  0  0  0  0
   -9.2285   -9.5731   -6.8833 H   0  0  0  0  0  0  0  0  0  0  0  0
   -7.4158   -8.3090   -5.6167 H   0  0  0  0  0  0  0  0  0  0  0  0
   -6.2540   -6.8140   -4.2306 H   0  0  0  0  0  0  0  0  0  0  0  0
   -6.3025   -3.0669   -4.6749 H   0  0  0  0  0  0  0  0  0  0  0  0
   -4.9884   -4.2479   -4.4929 H   0  0  0  0  0  0  0  0  0  0  0  0
   -6.4013   -4.3121   -3.4115 H   0  0  0  0  0  0  0  0  0  0  0  0
   -7.4038   -3.5373   -6.7955 H   0  0  0  0  0  0  0  0  0  0  0  0
   -8.2440   -5.1457   -8.4683 H   0  0  0  0  0  0  0  0  0  0  0  0
   -8.5545   -7.0846  -10.2177 H   0  0  0  0  0  0  0  0  0  0  0  0
   -7.0628   -7.6700   -9.5208 H   0  0  0  0  0  0  0  0  0  0  0  0
   -7.3901   -9.6949  -10.4020 H   0  0  0  0  0  0  0  0  0  0  0  0
   -8.9711   -9.2683  -11.0226 H   0  0  0  0  0  0  0  0  0  0  0  0
  1  2  1  0
  1 22  1  0
  1 23  1  0
  1 24  1  0
  2  3  2  3
  2 25  1  0
  3 12  1  0
  3  4  1  0
  4  5  2  0
  4  6  1  0
  7  6  1  6
  6 26  1  0
  6 27  1  0
  7 11  1  0
  7 21  1  0
  7  8  1  0
  8  9  1  0
  8 28  1  0
  8 29  1  0
  9 10  1  0
  9 30  1  0
  9 31  1  0
 10 11  1  0
 10 32  1  0
 10 33  1  0
 11 12  1  0
 11 34  1  1
 12 13  1  1
 12 20  1  0
 13 19  1  0
 13 14  2  0
 14 15  1  0
 14 35  1  0
 15 16  2  0
 15 36  1  0
 16 17  1  0
 16 18  1  0
 17 37  1  0
 17 38  1  0
 17 39  1  0
 18 19  2  0
 18 40  1  0
 19 41  1  0
 20 21  1  0
 20 42  1  0
 20 43  1  0
 21 44  1  0
 21 45  1  0
M  END
>  <i_m_ct_stereo_status>  (393) 
1

>  <s_m_source_file>  (393) 
/var/tmp/pbs.5076255.sched01/tmp277fsmq3/144xeprw1xa.sdf

>  <i_m_source_file_index>  (393) 
18

>  <i_lp_mmshare_version>  (393) 
48012

>  <i_f3d_flags>  (393) 
0

>  <s_epik_input>  (393) 
W0NIMl0xW0NIMl1bQ0gyXVtDQEhdKFtDQEBdMTIzKVtDQEBdKFtDSDJdW0NIMl0zKShDKD1bQ0hdXFtDSDNdKVxDKD1PKVtDSDJdMiljNFtjSF1bY0hdYyhbQ0gzXSlbY0hdW2NIXTQ=

>  <s_epik_cmdline>  (393) 
J2VwaWtfcHl0aG9uJywgJy1waHQnLCAnMi4wJywgJy1waCcsICc3LjAnLCAnLXRuJywgJzgnLCAnLW1hJywgJzIwMCcsICctaW1hZScsICc8aW5maWxlLm1hZT4nLCAnLW9tYWUnLCAnPG91dGZpbGUubWFlPic=

>  <r_lp_tautomer_probability>  (393) 
1

>  <r_epik_Ionization_Penalty>  (393) 
0

>  <r_epik_Ionization_Penalty_Charging>  (393) 
0

>  <r_epik_Ionization_Penalty_Neutral>  (393) 
0

>  <r_epik_State_Penalty>  (393) 
-0

>  <r_epik_Charging_Adjusted_Penalty>  (393) 
0

>  <i_epik_Tot_Q>  (393) 
0

>  <i_epik_Tot_abs_Q>  (393) 
0

>  <s_lp_Force_Field>  (393) 
OPLS3e

>  <r_lp_Energy>  (393) 
46.6362

>  <b_lp_Chiralities_Consistent>  (393) 
1

>  <s_lp_Variant>  (393) 
94:0-2

>  <s_i_glide_gridfile>  (393) 
pfpi4k_grid

>  <i_i_glide_lignum>  (393) 
18

>  <i_i_glide_rotatable_bonds>  (393) 
1

>  <r_i_docking_score>  (393) 
-4.74494

>  <r_i_glide_ligand_efficiency>  (393) 
-0.225949

>  <r_i_glide_ligand_efficiency_sa>  (393) 
-0.623377

>  <r_i_glide_ligand_efficiency_ln>  (393) 
-1.17318

>  <r_i_glide_gscore>  (393) 
-4.74494

>  <r_i_glide_lipo>  (393) 
-2.25138

>  <r_i_glide_hbond>  (393) 
0

>  <r_i_glide_metal>  (393) 
-0

>  <r_i_glide_rewards>  (393) 
-2.11816

>  <r_i_glide_evdw>  (393) 
-15.6575

>  <r_i_glide_ecoul>  (393) 
-0.0279578

>  <r_i_glide_erotb>  (393) 
0.229687

>  <r_i_glide_esite>  (393) 
-0.0100339

>  <r_i_glide_emodel>  (393) 
-14.3026

>  <r_i_glide_energy>  (393) 
-15.6855

>  <r_i_glide_einternal>  (393) 
4.55243

>  <r_i_glide_intrahb_reward>  (393) 
-0

>  <i_i_glide_confnum>  (393) 
3

>  <i_i_glide_posenum>  (393) 
1

>  <r_i_glide_eff_state_penalty>  (393) 
0

>  <ligand_id>  (393) 
94

>  <original_smiles>  (393) 
CC=C1C(=O)CC23CCCC2C1(c1ccc(C)cc1)CC3

>  <smiles>  (393) 
[H]C(=C1C(=O)C([H])([H])C23C([H])([H])C([H])([H])C([H])([H])C2([H])C1(c1c([H])c([H])c(C([H])([H])[H])c([H])c1[H])C([H])([H])C3([H])[H])C([H])([H])[H]

$$$$
95:0:0
     RDKit          3D

 58 62  0  0  1  0  0  0  0  0999 V2000
    6.2454   -0.3554    0.8338 C   0  0  0  0  0  0  0  0  0  0  0  0
    7.1658   -1.4253    1.0679 O   0  0  0  0  0  0  0  0  0  0  0  0
    7.6057   -2.1717   -0.0658 C   0  0  0  0  0  0  0  0  0  0  0  0
    6.4707   -2.7824   -0.9152 C   0  0  2  0  0  0  0  0  0  0  0  0
    5.8373   -1.6930   -1.5655 O   0  0  0  0  0  0  0  0  0  0  0  0
    4.5083   -2.0205   -1.9625 C   0  0  0  0  0  0  0  0  0  0  0  0
    3.7144   -0.7041   -1.8459 C   0  0  0  0  0  0  0  0  0  0  0  0
    4.5621   -2.4154   -3.4550 C   0  0  0  0  0  0  0  0  0  0  0  0
    4.0835   -3.2125   -1.0421 C   0  0  2  0  0  0  0  0  0  0  0  0
    2.9846   -3.0253    0.0266 C   0  0  0  0  0  0  0  0  0  0  0  0
    3.6940   -3.3144    1.3761 C   0  0  2  0  0  0  0  0  0  0  0  0
    4.9604   -2.7996    1.0058 O   0  0  0  0  0  0  0  0  0  0  0  0
    5.3230   -3.4895   -0.1817 C   0  0  2  0  0  0  0  0  0  0  0  0
    5.5586   -4.9879    0.2518 C   0  0  2  0  0  0  0  0  0  0  0  0
    4.2063   -5.6325    0.5804 C   0  0  0  0  0  0  0  0  0  0  0  0
    3.8552   -4.8260    1.8149 C   0  0  1  0  0  0  0  0  0  0  0  0
    5.1244   -5.0671    2.6889 C   0  0  1  0  0  0  0  0  0  0  0  0
    5.3214   -4.0114    3.8080 C   0  0  0  0  0  0  0  0  0  0  0  0
    4.9650   -6.4132    3.3795 C   0  0  0  0  0  0  0  0  0  0  0  0
    5.6840   -7.5453    3.1075 C   0  0  0  0  0  0  0  0  0  0  0  0
    6.7447   -7.5083    2.0936 C   0  0  0  0  0  0  0  0  0  0  0  0
    7.1342   -8.5354    1.5445 O   0  0  0  0  0  0  0  0  0  0  0  0
    7.3892   -6.1346    1.8095 C   0  0  0  0  0  0  0  0  0  0  0  0
    8.3433   -5.8424    2.9937 C   0  0  0  0  0  0  0  0  0  0  0  0
    8.2663   -6.1942    0.5424 C   0  0  0  0  0  0  0  0  0  0  0  0
    6.2994   -5.0385    1.6367 C   0  0  1  0  0  0  0  0  0  0  0  0
    5.9667    0.1322    1.7805 H   0  0  0  0  0  0  0  0  0  0  0  0
    5.3684   -0.7532    0.3409 H   0  0  0  0  0  0  0  0  0  0  0  0
    6.6659    0.4155    0.1874 H   0  0  0  0  0  0  0  0  0  0  0  0
    8.2679   -1.5680   -0.6849 H   0  0  0  0  0  0  0  0  0  0  0  0
    8.2357   -2.9775    0.2930 H   0  0  0  0  0  0  0  0  0  0  0  0
    6.8811   -3.4701   -1.6642 H   0  0  0  0  0  0  0  0  0  0  0  0
    2.6647   -0.8522   -2.0953 H   0  0  0  0  0  0  0  0  0  0  0  0
    4.1072    0.0739   -2.5088 H   0  0  0  0  0  0  0  0  0  0  0  0
    3.7701   -0.3072   -0.8356 H   0  0  0  0  0  0  0  0  0  0  0  0
    3.5689   -2.6467   -3.8468 H   0  0  0  0  0  0  0  0  0  0  0  0
    5.2086   -3.2739   -3.6015 H   0  0  0  0  0  0  0  0  0  0  0  0
    4.9638   -1.5892   -4.0383 H   0  0  0  0  0  0  0  0  0  0  0  0
    3.8505   -4.0510   -1.6853 H   0  0  0  0  0  0  0  0  0  0  0  0
    2.6234   -2.0024    0.0848 H   0  0  0  0  0  0  0  0  0  0  0  0
    2.1202   -3.6556   -0.1419 H   0  0  0  0  0  0  0  0  0  0  0  0
    3.2706   -2.7198    2.2017 H   0  0  0  0  0  0  0  0  0  0  0  0
    6.0207   -5.5320   -0.5672 H   0  0  0  0  0  0  0  0  0  0  0  0
    3.4726   -5.5795   -0.2185 H   0  0  0  0  0  0  0  0  0  0  0  0
    4.3216   -6.6882    0.7895 H   0  0  0  0  0  0  0  0  0  0  0  0
    2.9516   -5.1902    2.2958 H   0  0  0  0  0  0  0  0  0  0  0  0
    5.5365   -3.0111    3.4266 H   0  0  0  0  0  0  0  0  0  0  0  0
    6.1476   -4.2726    4.4755 H   0  0  0  0  0  0  0  0  0  0  0  0
    4.4279   -3.9386    4.4260 H   0  0  0  0  0  0  0  0  0  0  0  0
    4.1930   -6.4493    4.1308 H   0  0  0  0  0  0  0  0  0  0  0  0
    5.4935   -8.4668    3.6436 H   0  0  0  0  0  0  0  0  0  0  0  0
    8.9033   -4.9214    2.8638 H   0  0  0  0  0  0  0  0  0  0  0  0
    9.0973   -6.6254    3.1164 H   0  0  0  0  0  0  0  0  0  0  0  0
    7.8070   -5.7564    3.9352 H   0  0  0  0  0  0  0  0  0  0  0  0
    8.7174   -5.2271    0.2730 H   0  0  0  0  0  0  0  0  0  0  0  0
    7.7733   -6.6033   -0.3155 H   0  0  0  0  0  0  0  0  0  0  0  0
    9.0429   -6.9259    0.7016 H   0  0  0  0  0  0  0  0  0  0  0  0
    6.8734   -4.1183    1.7489 H   0  0  0  0  0  0  0  0  0  0  0  0
  1  2  1  0
  1 27  1  0
  1 28  1  0
  1 29  1  0
  2  3  1  0
  3  4  1  0
  3 30  1  0
  3 31  1  0
  4 13  1  0
  4  5  1  0
  4 32  1  6
  5  6  1  0
  6  7  1  0
  6  8  1  0
  6  9  1  0
  7 33  1  0
  7 34  1  0
  7 35  1  0
  8 36  1  0
  8 37  1  0
  8 38  1  0
  9 13  1  0
  9 10  1  0
  9 39  1  6
 10 11  1  0
 10 40  1  0
 10 41  1  0
 11 16  1  0
 11 12  1  0
 11 42  1  1
 13 12  1  1
 13 14  1  0
 14 26  1  0
 14 15  1  0
 14 43  1  6
 15 16  1  0
 15 44  1  0
 15 45  1  0
 16 17  1  0
 16 46  1  1
 17 26  1  0
 17 18  1  1
 17 19  1  0
 18 47  1  0
 18 48  1  0
 18 49  1  0
 19 20  2  0
 19 50  1  0
 20 21  1  0
 20 51  1  0
 21 22  2  0
 21 23  1  0
 23 24  1  0
 23 25  1  0
 23 26  1  0
 24 52  1  0
 24 53  1  0
 24 54  1  0
 25 55  1  0
 25 56  1  0
 25 57  1  0
 26 58  1  1
M  END
>  <i_m_ct_stereo_status>  (394) 
1

>  <s_m_source_file>  (394) 
/var/tmp/pbs.5076255.sched01/tmp277fsmq3/144xeprw1xa.sdf

>  <i_m_source_file_index>  (394) 
19

>  <i_lp_mmshare_version>  (394) 
48012

>  <i_f3d_flags>  (394) 
0

>  <s_epik_input>  (394) 
W0NIM11PW0NIMl1bQ0BASF0xT0MoW0NIM10pKFtDSDNdKVtDQEBIXShbQ0BAXTEyMylbQ0gyXVtDQEhdKE8yKVtDQEBIXTRbQ0BdNShbQ0gzXSlbQ0BIXShbQ0BIXTNbQ0gyXTQpQyhbQ0gzXSkoW0NIM10pQyg9TylbQ0hdPVtDSF01

>  <s_epik_cmdline>  (394) 
J2VwaWtfcHl0aG9uJywgJy1waHQnLCAnMi4wJywgJy1waCcsICc3LjAnLCAnLXRuJywgJzgnLCAnLW1hJywgJzIwMCcsICctaW1hZScsICc8aW5maWxlLm1hZT4nLCAnLW9tYWUnLCAnPG91dGZpbGUubWFlPic=

>  <r_lp_tautomer_probability>  (394) 
1

>  <r_epik_Ionization_Penalty>  (394) 
8.83664e-12

>  <r_epik_Ionization_Penalty_Charging>  (394) 
0

>  <r_epik_Ionization_Penalty_Neutral>  (394) 
8.83664e-12

>  <r_epik_State_Penalty>  (394) 
-0

>  <r_epik_Charging_Adjusted_Penalty>  (394) 
0

>  <i_epik_Tot_Q>  (394) 
0

>  <i_epik_Tot_abs_Q>  (394) 
0

>  <s_lp_Force_Field>  (394) 
OPLS3e

>  <r_lp_Energy>  (394) 
50.892

>  <b_lp_Chiralities_Consistent>  (394) 
1

>  <s_lp_Variant>  (394) 
95:0-1

>  <s_i_glide_gridfile>  (394) 
pfpi4k_grid

>  <i_i_glide_lignum>  (394) 
19

>  <i_i_glide_rotatable_bonds>  (394) 
2

>  <r_i_docking_score>  (394) 
-2.56662

>  <r_i_glide_ligand_efficiency>  (394) 
-0.098716

>  <r_i_glide_ligand_efficiency_sa>  (394) 
-0.292446

>  <r_i_glide_ligand_efficiency_ln>  (394) 
-0.602761

>  <r_i_glide_gscore>  (394) 
-2.56662

>  <r_i_glide_lipo>  (394) 
-0.473852

>  <r_i_glide_hbond>  (394) 
-0.0661122

>  <r_i_glide_metal>  (394) 
-0

>  <r_i_glide_rewards>  (394) 
-1.0235

>  <r_i_glide_evdw>  (394) 
-16.5683

>  <r_i_glide_ecoul>  (394) 
-2.14883

>  <r_i_glide_erotb>  (394) 
0.147591

>  <r_i_glide_esite>  (394) 
0

>  <r_i_glide_emodel>  (394) 
-18.2064

>  <r_i_glide_energy>  (394) 
-18.7172

>  <r_i_glide_einternal>  (394) 
3.45918

>  <r_i_glide_intrahb_reward>  (394) 
-0

>  <i_i_glide_confnum>  (394) 
4

>  <i_i_glide_posenum>  (394) 
5

>  <r_i_glide_eff_state_penalty>  (394) 
0

>  <ligand_id>  (394) 
95

>  <original_smiles>  (394) 
COCC1OC(C)(C)C2CC3OC12C1CC3C2(C)C=CC(=O)C(C)(C)C12

>  <smiles>  (394) 
[H]C1=C([H])C2(C([H])([H])[H])C3([H])C([H])([H])C([H])(C2([H])C(C([H])([H])[H])(C([H])([H])[H])C1=O)C12OC3([H])C([H])([H])C1([H])C(C([H])([H])[H])(C([H])([H])[H])OC2([H])C([H])([H])OC([H])([H])[H]

$$$$
95:0:1
     RDKit          3D

 58 62  0  0  1  0  0  0  0  0999 V2000
    8.7946   -2.6443   -0.5831 C   0  0  0  0  0  0  0  0  0  0  0  0
    8.0222   -2.1011    0.4707 O   0  0  0  0  0  0  0  0  0  0  0  0
    7.1565   -3.0314    1.1043 C   0  0  0  0  0  0  0  0  0  0  0  0
    6.1694   -3.6111    0.0849 C   0  0  2  0  0  0  0  0  0  0  0  0
    5.6464   -2.5280   -0.6663 O   0  0  0  0  0  0  0  0  0  0  0  0
    4.4423   -2.9029   -1.3101 C   0  0  0  0  0  0  0  0  0  0  0  0
    3.5932   -1.6196   -1.3607 C   0  0  0  0  0  0  0  0  0  0  0  0
    4.8283   -3.3433   -2.7410 C   0  0  0  0  0  0  0  0  0  0  0  0
    3.8983   -4.0897   -0.4545 C   0  0  2  0  0  0  0  0  0  0  0  0
    2.6007   -3.9231    0.3711 C   0  0  0  0  0  0  0  0  0  0  0  0
    3.0472   -4.1435    1.8331 C   0  0  2  0  0  0  0  0  0  0  0  0
    4.3521   -3.6109    1.7177 O   0  0  0  0  0  0  0  0  0  0  0  0
    4.9421   -4.3210    0.6373 C   0  0  2  0  0  0  0  0  0  0  0  0
    5.1421   -5.8116    1.1147 C   0  0  2  0  0  0  0  0  0  0  0  0
    3.7667   -6.4803    1.1908 C   0  0  0  0  0  0  0  0  0  0  0  0
    3.1668   -5.6394    2.3183 C   0  0  1  0  0  0  0  0  0  0  0  0
    4.2441   -5.8690    3.4288 C   0  0  1  0  0  0  0  0  0  0  0  0
    4.1909   -4.7927    4.5386 C   0  0  0  0  0  0  0  0  0  0  0  0
    3.9776   -7.2244    4.1000 C   0  0  0  0  0  0  0  0  0  0  0  0
    4.7493   -8.3217    4.0092 C   0  0  0  0  0  0  0  0  0  0  0  0
    5.9938   -8.3068    3.2385 C   0  0  0  0  0  0  0  0  0  0  0  0
    6.5207   -9.3425    2.8293 O   0  0  0  0  0  0  0  0  0  0  0  0
    6.6673   -6.9384    3.0215 C   0  0  0  0  0  0  0  0  0  0  0  0
    7.3374   -6.5480    4.3658 C   0  0  0  0  0  0  0  0  0  0  0  0
    7.8052   -7.0639    1.9762 C   0  0  0  0  0  0  0  0  0  0  0  0
    5.6044   -5.8511    2.6167 C   0  0  1  0  0  0  0  0  0  0  0  0
    9.4128   -1.8585   -0.9542 H   0  0  0  0  0  0  0  0  0  0  0  0
    8.2014   -2.9901   -1.4302 H   0  0  0  0  0  0  0  0  0  0  0  0
    9.4296   -3.4548   -0.2338 H   0  0  0  0  0  0  0  0  0  0  0  0
    7.7437   -3.8176    1.5802 H   0  0  0  0  0  0  0  0  0  0  0  0
    6.6167   -2.4959    1.8934 H   0  0  0  0  0  0  0  0  0  0  0  0
    6.6685   -4.3021   -0.5930 H   0  0  0  0  0  0  0  0  0  0  0  0
    2.6162   -1.8071   -1.8031 H   0  0  0  0  0  0  0  0  0  0  0  0
    4.0881   -0.8496   -1.9556 H   0  0  0  0  0  0  0  0  0  0  0  0
    3.4549   -1.1996   -0.3631 H   0  0  0  0  0  0  0  0  0  0  0  0
    3.9462   -3.6208   -3.3184 H   0  0  0  0  0  0  0  0  0  0  0  0
    5.5014   -4.1998   -2.7297 H   0  0  0  0  0  0  0  0  0  0  0  0
    5.3374   -2.5376   -3.2721 H   0  0  0  0  0  0  0  0  0  0  0  0
    3.8366   -4.9557   -1.1061 H   0  0  0  0  0  0  0  0  0  0  0  0
    2.1778   -2.9254    0.2826 H   0  0  0  0  0  0  0  0  0  0  0  0
    1.8196   -4.6193    0.0638 H   0  0  0  0  0  0  0  0  0  0  0  0
    2.4625   -3.5458    2.5321 H   0  0  0  0  0  0  0  0  0  0  0  0
    5.7791   -6.3546    0.4202 H   0  0  0  0  0  0  0  0  0  0  0  0
    3.1867   -6.4713    0.2696 H   0  0  0  0  0  0  0  0  0  0  0  0
    3.8423   -7.5347    1.4579 H   0  0  0  0  0  0  0  0  0  0  0  0
    2.1869   -6.0125    2.6100 H   0  0  0  0  0  0  0  0  0  0  0  0
    4.4494   -3.7972    4.1788 H   0  0  0  0  0  0  0  0  0  0  0  0
    4.8782   -5.0168    5.3519 H   0  0  0  0  0  0  0  0  0  0  0  0
    3.1925   -4.7296    4.9692 H   0  0  0  0  0  0  0  0  0  0  0  0
    3.0751   -7.2726    4.6916 H   0  0  0  0  0  0  0  0  0  0  0  0
    4.4713   -9.2363    4.5159 H   0  0  0  0  0  0  0  0  0  0  0  0
    7.8577   -5.5898    4.2970 H   0  0  0  0  0  0  0  0  0  0  0  0
    8.0803   -7.2928    4.6711 H   0  0  0  0  0  0  0  0  0  0  0  0
    6.6186   -6.4744    5.1834 H   0  0  0  0  0  0  0  0  0  0  0  0
    8.2411   -6.0975    1.7259 H   0  0  0  0  0  0  0  0  0  0  0  0
    7.4723   -7.5342    1.0492 H   0  0  0  0  0  0  0  0  0  0  0  0
    8.6143   -7.6942    2.3494 H   0  0  0  0  0  0  0  0  0  0  0  0
    6.1069   -4.9053    2.8206 H   0  0  0  0  0  0  0  0  0  0  0  0
  1  2  1  0
  1 27  1  0
  1 28  1  0
  1 29  1  0
  2  3  1  0
  3  4  1  0
  3 30  1  0
  3 31  1  0
  4 13  1  0
  4  5  1  0
  4 32  1  6
  5  6  1  0
  6  7  1  0
  6  8  1  0
  6  9  1  0
  7 33  1  0
  7 34  1  0
  7 35  1  0
  8 36  1  0
  8 37  1  0
  8 38  1  0
  9 13  1  0
  9 10  1  0
  9 39  1  6
 10 11  1  0
 10 40  1  0
 10 41  1  0
 11 16  1  0
 11 12  1  0
 11 42  1  1
 13 12  1  1
 13 14  1  0
 14 26  1  0
 14 15  1  0
 14 43  1  6
 15 16  1  0
 15 44  1  0
 15 45  1  0
 16 17  1  0
 16 46  1  1
 17 26  1  0
 17 18  1  1
 17 19  1  0
 18 47  1  0
 18 48  1  0
 18 49  1  0
 19 20  2  0
 19 50  1  0
 20 21  1  0
 20 51  1  0
 21 22  2  0
 21 23  1  0
 23 24  1  0
 23 25  1  0
 23 26  1  0
 24 52  1  0
 24 53  1  0
 24 54  1  0
 25 55  1  0
 25 56  1  0
 25 57  1  0
 26 58  1  1
M  END
>  <i_m_ct_stereo_status>  (395) 
1

>  <s_m_source_file>  (395) 
/var/tmp/pbs.5076255.sched01/tmp277fsmq3/144xeprw1xa.sdf

>  <i_m_source_file_index>  (395) 
19

>  <i_lp_mmshare_version>  (395) 
48012

>  <i_f3d_flags>  (395) 
0

>  <s_epik_input>  (395) 
W0NIM11PW0NIMl1bQ0BASF0xT0MoW0NIM10pKFtDSDNdKVtDQEBIXShbQ0BAXTEyMylbQ0gyXVtDQEhdKE8yKVtDQEBIXTRbQ0BdNShbQ0gzXSlbQ0BIXShbQ0BIXTNbQ0gyXTQpQyhbQ0gzXSkoW0NIM10pQyg9TylbQ0hdPVtDSF01

>  <s_epik_cmdline>  (395) 
J2VwaWtfcHl0aG9uJywgJy1waHQnLCAnMi4wJywgJy1waCcsICc3LjAnLCAnLXRuJywgJzgnLCAnLW1hJywgJzIwMCcsICctaW1hZScsICc8aW5maWxlLm1hZT4nLCAnLW9tYWUnLCAnPG91dGZpbGUubWFlPic=

>  <r_lp_tautomer_probability>  (395) 
1

>  <r_epik_Ionization_Penalty>  (395) 
8.83664e-12

>  <r_epik_Ionization_Penalty_Charging>  (395) 
0

>  <r_epik_Ionization_Penalty_Neutral>  (395) 
8.83664e-12

>  <r_epik_State_Penalty>  (395) 
-0

>  <r_epik_Charging_Adjusted_Penalty>  (395) 
0

>  <i_epik_Tot_Q>  (395) 
0

>  <i_epik_Tot_abs_Q>  (395) 
0

>  <s_lp_Force_Field>  (395) 
OPLS3e

>  <r_lp_Energy>  (395) 
50.892

>  <b_lp_Chiralities_Consistent>  (395) 
1

>  <s_lp_Variant>  (395) 
95:0-1

>  <s_i_glide_gridfile>  (395) 
pfpi4k_grid

>  <i_i_glide_lignum>  (395) 
19

>  <i_i_glide_rotatable_bonds>  (395) 
2

>  <r_i_docking_score>  (395) 
-2.43949

>  <r_i_glide_ligand_efficiency>  (395) 
-0.0938263

>  <r_i_glide_ligand_efficiency_sa>  (395) 
-0.27796

>  <r_i_glide_ligand_efficiency_ln>  (395) 
-0.572905

>  <r_i_glide_gscore>  (395) 
-2.43949

>  <r_i_glide_lipo>  (395) 
-0.477639

>  <r_i_glide_hbond>  (395) 
0

>  <r_i_glide_metal>  (395) 
-0

>  <r_i_glide_rewards>  (395) 
-0.956369

>  <r_i_glide_evdw>  (395) 
-17.3596

>  <r_i_glide_ecoul>  (395) 
-1.90057

>  <r_i_glide_erotb>  (395) 
0.147591

>  <r_i_glide_esite>  (395) 
0

>  <r_i_glide_emodel>  (395) 
-20.4321

>  <r_i_glide_energy>  (395) 
-19.2602

>  <r_i_glide_einternal>  (395) 
2.69092

>  <r_i_glide_intrahb_reward>  (395) 
-0

>  <i_i_glide_confnum>  (395) 
4

>  <i_i_glide_posenum>  (395) 
32

>  <r_i_glide_eff_state_penalty>  (395) 
0

>  <ligand_id>  (395) 
95

>  <original_smiles>  (395) 
COCC1OC(C)(C)C2CC3OC12C1CC3C2(C)C=CC(=O)C(C)(C)C12

>  <smiles>  (395) 
[H]C1=C([H])C2(C([H])([H])[H])C3([H])C([H])([H])C([H])(C2([H])C(C([H])([H])[H])(C([H])([H])[H])C1=O)C12OC3([H])C([H])([H])C1([H])C(C([H])([H])[H])(C([H])([H])[H])OC2([H])C([H])([H])OC([H])([H])[H]

$$$$
96:0:0
     RDKit          3D

 82 88  0  0  1  0  0  0  0  0999 V2000
    1.1593    5.8264    5.3999 C   0  0  0  0  0  0  0  0  0  0  0  0
    0.6388    4.6714    5.0198 C   0  0  0  0  0  0  0  0  0  0  0  0
   -0.8856    4.4397    5.0405 C   0  0  0  0  0  0  0  0  0  0  0  0
   -1.3888    3.0918    4.4577 C   0  0  0  0  0  0  0  0  0  0  0  0
   -1.0815    1.7707    5.2579 C   0  0  1  0  0  0  0  0  0  0  0  0
   -2.1896    1.4757    6.1341 O   0  0  0  0  0  0  0  0  0  0  0  0
   -2.9380    2.4956    6.8249 C   0  0  0  0  0  0  0  0  0  0  0  0
   -0.9717    0.5198    4.2881 C   0  0  1  0  0  0  0  0  0  0  0  0
    0.0148    0.6939    3.0988 C   0  0  0  0  0  0  0  0  0  0  0  0
    1.5479    0.6896    3.3120 C   0  0  0  0  0  0  0  0  0  0  0  0
    2.2517    1.2388    4.5773 C   0  0  1  0  0  0  0  0  0  0  0  0
    3.4178    2.1612    4.1691 C   0  0  1  0  0  0  0  0  0  0  0  0
    2.9813    3.6339    4.2557 C   0  0  0  0  0  0  0  0  0  0  0  0
    1.4535    3.5044    4.4820 C   0  0  1  0  0  0  0  0  0  0  0  0
    1.4345    2.2567    5.3600 C   0  0  1  0  0  0  0  0  0  0  0  0
    0.1970    1.7822    6.1280 C   0  0  1  0  0  0  0  0  0  0  0  0
    0.1193    2.4374    7.5311 C   0  0  0  0  0  0  0  0  0  0  0  0
    4.3344    1.4806    5.1678 C   0  0  0  0  0  0  0  0  0  0  0  0
    3.2720    0.3784    5.4209 C   0  0  2  0  0  0  0  0  0  0  0  0
    3.6552   -1.1684    5.4548 C   0  0  2  0  0  0  0  0  0  0  0  0
    4.9299   -1.1614    6.3687 C   0  0  0  0  0  0  0  0  0  0  0  0
    4.0844   -1.8291    4.0727 C   0  0  1  0  0  0  0  0  0  0  0  0
    5.0610   -1.0168    3.4107 O   0  0  0  0  0  0  0  0  0  0  0  0
    5.1421   -0.9834    1.9707 C   0  0  0  0  0  0  0  0  0  0  0  0
    3.9086   -0.4071    1.2653 C   0  0  0  0  0  0  0  0  0  0  0  0
    5.4985   -2.3231    1.3315 C   0  0  0  0  0  0  0  0  0  0  0  0
    4.6564   -3.2778    4.2153 C   0  0  0  0  0  0  0  0  0  0  0  0
    3.5717   -4.3733    4.3683 C   0  0  0  0  0  0  0  0  0  0  0  0
    3.3579   -5.1226    3.4527 O   0  0  0  0  0  0  0  0  0  0  0  0
    2.8988   -4.4194    5.5453 O   0  0  0  0  0  0  0  0  0  0  0  0
    3.1031   -3.4703    6.5703 C   0  0  0  0  0  0  0  0  0  0  0  0
    2.5941   -2.1032    6.1289 C   0  0  1  0  0  0  0  0  0  0  0  0
    1.6473   -1.3869    6.9865 O   0  0  0  0  0  0  0  0  0  0  0  0
    1.0523   -2.2540    5.9841 C   0  0  1  0  0  0  0  0  0  0  0  0
    0.3354   -1.7360    4.7952 C   0  0  0  0  0  0  0  0  0  0  0  0
    0.5960   -2.2222    3.7096 O   0  0  0  0  0  0  0  0  0  0  0  0
   -0.8591   -0.8586    4.9865 C   0  0  0  0  0  0  0  0  0  0  0  0
   -1.8644   -1.4227    5.6530 C   0  0  0  0  0  0  0  0  0  0  0  0
    2.2278    6.0243    5.3635 H   0  0  0  0  0  0  0  0  0  0  0  0
    0.5358    6.6396    5.7548 H   0  0  0  0  0  0  0  0  0  0  0  0
   -1.2662    4.6045    6.0441 H   0  0  0  0  0  0  0  0  0  0  0  0
   -1.3052    5.2296    4.4237 H   0  0  0  0  0  0  0  0  0  0  0  0
   -2.4606    3.1384    4.2764 H   0  0  0  0  0  0  0  0  0  0  0  0
   -1.0463    3.0792    3.4338 H   0  0  0  0  0  0  0  0  0  0  0  0
   -3.8049    2.0127    7.2645 H   0  0  0  0  0  0  0  0  0  0  0  0
   -3.3436    3.2782    6.1751 H   0  0  0  0  0  0  0  0  0  0  0  0
   -2.3990    2.9619    7.6395 H   0  0  0  0  0  0  0  0  0  0  0  0
   -1.9456    0.4740    3.7997 H   0  0  0  0  0  0  0  0  0  0  0  0
   -0.1878   -0.1037    2.3904 H   0  0  0  0  0  0  0  0  0  0  0  0
   -0.2356    1.5553    2.4885 H   0  0  0  0  0  0  0  0  0  0  0  0
    1.9011   -0.3079    3.1358 H   0  0  0  0  0  0  0  0  0  0  0  0
    1.8908    1.2542    2.4436 H   0  0  0  0  0  0  0  0  0  0  0  0
    3.8018    1.9162    3.1948 H   0  0  0  0  0  0  0  0  0  0  0  0
    3.4838    4.1434    5.0811 H   0  0  0  0  0  0  0  0  0  0  0  0
    3.2031    4.1774    3.3426 H   0  0  0  0  0  0  0  0  0  0  0  0
    1.0508    3.2956    3.4953 H   0  0  0  0  0  0  0  0  0  0  0  0
    2.0701    2.5554    6.1937 H   0  0  0  0  0  0  0  0  0  0  0  0
    0.4164    0.7571    6.4142 H   0  0  0  0  0  0  0  0  0  0  0  0
   -0.0505    3.5124    7.4845 H   0  0  0  0  0  0  0  0  0  0  0  0
    1.0576    2.2991    8.0819 H   0  0  0  0  0  0  0  0  0  0  0  0
   -0.6634    1.9813    8.1275 H   0  0  0  0  0  0  0  0  0  0  0  0
    5.2512    1.1501    4.6800 H   0  0  0  0  0  0  0  0  0  0  0  0
    4.5510    2.0967    6.0426 H   0  0  0  0  0  0  0  0  0  0  0  0
    2.9770    0.5923    6.4520 H   0  0  0  0  0  0  0  0  0  0  0  0
    5.4390   -2.1019    6.5300 H   0  0  0  0  0  0  0  0  0  0  0  0
    4.6967   -0.7818    7.3668 H   0  0  0  0  0  0  0  0  0  0  0  0
    5.7264   -0.5459    5.9654 H   0  0  0  0  0  0  0  0  0  0  0  0
    3.1877   -1.8782    3.4715 H   0  0  0  0  0  0  0  0  0  0  0  0
    5.9689   -0.2914    1.7743 H   0  0  0  0  0  0  0  0  0  0  0  0
    4.0371   -0.3747    0.1779 H   0  0  0  0  0  0  0  0  0  0  0  0
    3.7445    0.6141    1.5813 H   0  0  0  0  0  0  0  0  0  0  0  0
    3.0226   -1.0217    1.4497 H   0  0  0  0  0  0  0  0  0  0  0  0
    5.6824   -2.2202    0.2639 H   0  0  0  0  0  0  0  0  0  0  0  0
    4.6771   -3.0326    1.4897 H   0  0  0  0  0  0  0  0  0  0  0  0
    6.3929   -2.7349    1.7951 H   0  0  0  0  0  0  0  0  0  0  0  0
    5.1691   -3.5816    3.3235 H   0  0  0  0  0  0  0  0  0  0  0  0
    5.3944   -3.3518    5.0171 H   0  0  0  0  0  0  0  0  0  0  0  0
    2.5179   -3.8081    7.4218 H   0  0  0  0  0  0  0  0  0  0  0  0
    4.1294   -3.4702    6.9308 H   0  0  0  0  0  0  0  0  0  0  0  0
    0.6357   -3.1568    6.4007 H   0  0  0  0  0  0  0  0  0  0  0  0
   -2.8028   -0.9023    5.7516 H   0  0  0  0  0  0  0  0  0  0  0  0
   -1.7973   -2.4208    6.0649 H   0  0  0  0  0  0  0  0  0  0  0  0
  1  2  2  0
  1 39  1  0
  1 40  1  0
  2 14  1  0
  2  3  1  0
  3  4  1  0
  3 41  1  0
  3 42  1  0
  4  5  1  0
  4 43  1  0
  4 44  1  0
  5 16  1  0
  5  6  1  1
  5  8  1  0
  6  7  1  0
  7 45  1  0
  7 46  1  0
  7 47  1  0
  8 37  1  0
  8  9  1  0
  8 48  1  6
  9 10  1  0
  9 49  1  0
  9 50  1  0
 11 10  1  6
 10 51  1  0
 10 52  1  0
 11 15  1  0
 11 19  1  0
 11 12  1  0
 12 13  1  0
 12 18  1  0
 12 53  1  6
 13 14  1  0
 13 54  1  0
 13 55  1  0
 14 15  1  0
 14 56  1  6
 15 16  1  0
 15 57  1  1
 16 17  1  0
 16 58  1  1
 17 59  1  0
 17 60  1  0
 17 61  1  0
 18 19  1  0
 18 62  1  0
 18 63  1  0
 19 20  1  0
 19 64  1  1
 20 32  1  0
 20 21  1  1
 20 22  1  0
 21 65  1  0
 21 66  1  0
 21 67  1  0
 22 23  1  0
 22 27  1  0
 22 68  1  6
 23 24  1  0
 24 25  1  0
 24 26  1  0
 24 69  1  0
 25 70  1  0
 25 71  1  0
 25 72  1  0
 26 73  1  0
 26 74  1  0
 26 75  1  0
 27 28  1  0
 27 76  1  0
 27 77  1  0
 28 29  2  0
 28 30  1  0
 30 31  1  0
 31 32  1  0
 31 78  1  0
 31 79  1  0
 32 34  1  0
 32 33  1  1
 33 34  1  0
 34 35  1  0
 34 80  1  1
 35 36  2  0
 35 37  1  0
 37 38  2  0
 38 81  1  0
 38 82  1  0
M  END
>  <i_m_ct_stereo_status>  (396) 
1

>  <s_m_source_file>  (396) 
/var/tmp/pbs.5076255.sched01/tmp277fsmq3/144xeprw1xa.sdf

>  <i_m_source_file_index>  (396) 
20

>  <i_lp_mmshare_version>  (396) 
48012

>  <i_f3d_flags>  (396) 
0

>  <s_epik_input>  (396) 
W0NAQF0xMjNbQ0BIXTRbQ0gyXVtDQEhdNVtDQEhdMltDQEBIXShbQ0gzXSlbQ0BAXShPW0NIM10pKFtDSDJdW0NIMl1DNT1bQ0gyXSlbQ0BASF0oW0NIMl1bQ0gyXTEpQyg9W0NIMl0pQyg9TylbQ0BIXTZbQ0BdNyhPNilbQ0BdKFtDSDNdKShbQ0BIXTNbQ0gyXTQpW0NAQEhdKE9bQ0hdKFtDSDNdKVtDSDNdKVtDSDJdQyg9TylPW0NIMl03

>  <s_epik_cmdline>  (396) 
J2VwaWtfcHl0aG9uJywgJy1waHQnLCAnMi4wJywgJy1waCcsICc3LjAnLCAnLXRuJywgJzgnLCAnLW1hJywgJzIwMCcsICctaW1hZScsICc8aW5maWxlLm1hZT4nLCAnLW9tYWUnLCAnPG91dGZpbGUubWFlPic=

>  <r_lp_tautomer_probability>  (396) 
1

>  <r_epik_Ionization_Penalty>  (396) 
1.68479e-11

>  <r_epik_Ionization_Penalty_Charging>  (396) 
0

>  <r_epik_Ionization_Penalty_Neutral>  (396) 
1.68479e-11

>  <r_epik_State_Penalty>  (396) 
-0

>  <r_epik_Charging_Adjusted_Penalty>  (396) 
0

>  <i_epik_Tot_Q>  (396) 
0

>  <i_epik_Tot_abs_Q>  (396) 
0

>  <s_epik_Chemistry_Notes>  (396) 
This compound has an ester and may undergo hydrolysis at high or low pH.

>  <s_lp_Force_Field>  (396) 
OPLS3e

>  <r_lp_Energy>  (396) 
127.545

>  <b_lp_Chiralities_Consistent>  (396) 
1

>  <s_lp_Variant>  (396) 
96:0-1

>  <s_i_glide_gridfile>  (396) 
pfpi4k_grid

>  <i_i_glide_lignum>  (396) 
20

>  <i_i_glide_rotatable_bonds>  (396) 
3

>  <r_i_docking_score>  (396) 
-1.28705

>  <r_i_glide_ligand_efficiency>  (396) 
-0.0338698

>  <r_i_glide_ligand_efficiency_sa>  (396) 
-0.11387

>  <r_i_glide_ligand_efficiency_ln>  (396) 
-0.277527

>  <r_i_glide_gscore>  (396) 
-1.28705

>  <r_i_glide_lipo>  (396) 
-0.432249

>  <r_i_glide_hbond>  (396) 
0

>  <r_i_glide_metal>  (396) 
-0

>  <r_i_glide_rewards>  (396) 
0

>  <r_i_glide_evdw>  (396) 
-23.5386

>  <r_i_glide_ecoul>  (396) 
1.66584

>  <r_i_glide_erotb>  (396) 
0.0747483

>  <r_i_glide_esite>  (396) 
-0.00249804

>  <r_i_glide_emodel>  (396) 
-20.9897

>  <r_i_glide_energy>  (396) 
-21.8728

>  <r_i_glide_einternal>  (396) 
3.89836

>  <r_i_glide_intrahb_reward>  (396) 
-0

>  <i_i_glide_confnum>  (396) 
2

>  <i_i_glide_posenum>  (396) 
33

>  <r_i_glide_eff_state_penalty>  (396) 
0

>  <ligand_id>  (396) 
96

>  <original_smiles>  (396) 
C=C1CCC2(OC)C3CCC45C(CC1C4C2C)CC5C1(C)C(OC(C)C)CC(=O)OCC12OC2C(=O)C3=C

>  <smiles>  (396) 
[H]C([H])=C1C([H])([H])C([H])([H])C2(OC([H])([H])[H])C3([H])C(=C([H])[H])C(=O)C4([H])OC45C([H])([H])OC(=O)C([H])([H])C([H])(OC([H])(C([H])([H])[H])C([H])([H])[H])C5(C([H])([H])[H])C4([H])C([H])([H])C5([H])C([H])([H])C1([H])C([H])(C2([H])C([H])([H])[H])C54C([H])([H])C3([H])[H]

$$$$
96:0:1
     RDKit          3D

 82 88  0  0  1  0  0  0  0  0999 V2000
    1.0992    5.6640    5.0955 C   0  0  0  0  0  0  0  0  0  0  0  0
    0.5391    4.4838    4.7798 C   0  0  0  0  0  0  0  0  0  0  0  0
   -0.9474    4.2215    5.0476 C   0  0  0  0  0  0  0  0  0  0  0  0
   -1.5189    2.8779    4.5292 C   0  0  0  0  0  0  0  0  0  0  0  0
   -1.0618    1.5364    5.2330 C   0  0  1  0  0  0  0  0  0  0  0  0
   -2.0271    1.2070    6.2591 O   0  0  0  0  0  0  0  0  0  0  0  0
   -2.6078    2.2084    7.1017 C   0  0  0  0  0  0  0  0  0  0  0  0
   -1.0575    0.3156    4.2221 C   0  0  1  0  0  0  0  0  0  0  0  0
   -0.2683    0.5439    2.8965 C   0  0  0  0  0  0  0  0  0  0  0  0
    1.2761    0.5629    2.8286 C   0  0  0  0  0  0  0  0  0  0  0  0
    2.1506    1.1088    3.9922 C   0  0  1  0  0  0  0  0  0  0  0  0
    3.2153    2.0517    3.4034 C   0  0  1  0  0  0  0  0  0  0  0  0
    2.7605    3.5154    3.6041 C   0  0  0  0  0  0  0  0  0  0  0  0
    1.3002    3.3558    4.0827 C   0  0  1  0  0  0  0  0  0  0  0  0
    1.4365    2.0900    4.9278 C   0  0  1  0  0  0  0  0  0  0  0  0
    0.3451    1.5806    5.8842 C   0  0  1  0  0  0  0  0  0  0  0  0
    0.4708    2.2238    7.2951 C   0  0  0  0  0  0  0  0  0  0  0  0
    4.2790    1.3883    4.2565 C   0  0  0  0  0  0  0  0  0  0  0  0
    3.2960    0.2745    4.6817 C   0  0  2  0  0  0  0  0  0  0  0  0
    3.7305   -1.2732    4.6055 C   0  0  2  0  0  0  0  0  0  0  0  0
    5.1277   -1.2415    5.3175 C   0  0  0  0  0  0  0  0  0  0  0  0
    3.9350   -1.8714    3.1798 C   0  0  1  0  0  0  0  0  0  0  0  0
    4.7625   -1.0215    2.3755 O   0  0  0  0  0  0  0  0  0  0  0  0
    4.5465   -0.9449    0.9493 C   0  0  0  0  0  0  0  0  0  0  0  0
    4.1222   -2.2951    0.3335 C   0  0  0  0  0  0  0  0  0  0  0  0
    5.8635   -0.4932    0.2880 C   0  0  0  0  0  0  0  0  0  0  0  0
    4.5397   -3.3139    3.1504 C   0  0  0  0  0  0  0  0  0  0  0  0
    3.5331   -4.4302    3.4976 C   0  0  0  0  0  0  0  0  0  0  0  0
    3.1781   -5.2059    2.6102 O   0  0  0  0  0  0  0  0  0  0  0  0
    3.0581   -4.5450    4.7604 O   0  0  0  0  0  0  0  0  0  0  0  0
    3.4120   -3.6102    5.7638 C   0  0  0  0  0  0  0  0  0  0  0  0
    2.7865   -2.2391    5.4560 C   0  0  1  0  0  0  0  0  0  0  0  0
    1.9969   -1.5699    6.4529 O   0  0  0  0  0  0  0  0  0  0  0  0
    1.2810   -2.4105    5.5622 C   0  0  1  0  0  0  0  0  0  0  0  0
    0.3652   -1.8970    4.4985 C   0  0  0  0  0  0  0  0  0  0  0  0
    0.5624   -2.3318    3.3631 O   0  0  0  0  0  0  0  0  0  0  0  0
   -0.8107   -1.0758    4.8596 C   0  0  0  0  0  0  0  0  0  0  0  0
   -1.6965   -1.6717    5.6926 C   0  0  0  0  0  0  0  0  0  0  0  0
    2.1337    5.8818    4.8872 H   0  0  0  0  0  0  0  0  0  0  0  0
    0.5149    6.4475    5.5607 H   0  0  0  0  0  0  0  0  0  0  0  0
   -1.1750    4.3824    6.1031 H   0  0  0  0  0  0  0  0  0  0  0  0
   -1.4862    5.0089    4.5243 H   0  0  0  0  0  0  0  0  0  0  0  0
   -2.6039    2.9100    4.5236 H   0  0  0  0  0  0  0  0  0  0  0  0
   -1.3428    2.8880    3.4636 H   0  0  0  0  0  0  0  0  0  0  0  0
   -3.3997    1.7346    7.6688 H   0  0  0  0  0  0  0  0  0  0  0  0
   -3.1090    3.0006    6.5544 H   0  0  0  0  0  0  0  0  0  0  0  0
   -1.9177    2.6233    7.8359 H   0  0  0  0  0  0  0  0  0  0  0  0
   -2.0986    0.2563    3.9071 H   0  0  0  0  0  0  0  0  0  0  0  0
   -0.5538   -0.2481    2.2148 H   0  0  0  0  0  0  0  0  0  0  0  0
   -0.6369    1.4054    2.3546 H   0  0  0  0  0  0  0  0  0  0  0  0
    1.6239   -0.4026    2.5162 H   0  0  0  0  0  0  0  0  0  0  0  0
    1.4786    1.1303    1.9242 H   0  0  0  0  0  0  0  0  0  0  0  0
    3.4641    1.8216    2.3784 H   0  0  0  0  0  0  0  0  0  0  0  0
    3.3787    4.0135    4.3469 H   0  0  0  0  0  0  0  0  0  0  0  0
    2.8146    4.1079    2.6898 H   0  0  0  0  0  0  0  0  0  0  0  0
    0.7329    3.1528    3.1768 H   0  0  0  0  0  0  0  0  0  0  0  0
    2.1953    2.3932    5.6504 H   0  0  0  0  0  0  0  0  0  0  0  0
    0.6358    0.5581    6.1154 H   0  0  0  0  0  0  0  0  0  0  0  0
    0.2910    3.2949    7.2881 H   0  0  0  0  0  0  0  0  0  0  0  0
    1.4796    2.0789    7.7057 H   0  0  0  0  0  0  0  0  0  0  0  0
   -0.2469    1.7723    7.9839 H   0  0  0  0  0  0  0  0  0  0  0  0
    5.1213    1.0588    3.6479 H   0  0  0  0  0  0  0  0  0  0  0  0
    4.6126    2.0106    5.0826 H   0  0  0  0  0  0  0  0  0  0  0  0
    3.1651    0.4695    5.7474 H   0  0  0  0  0  0  0  0  0  0  0  0
    5.6644   -2.1822    5.3578 H   0  0  0  0  0  0  0  0  0  0  0  0
    5.0580   -0.8845    6.3455 H   0  0  0  0  0  0  0  0  0  0  0  0
    5.8322   -0.6048    4.7934 H   0  0  0  0  0  0  0  0  0  0  0  0
    2.9455   -1.9081    2.7473 H   0  0  0  0  0  0  0  0  0  0  0  0
    3.7913   -0.1800    0.7487 H   0  0  0  0  0  0  0  0  0  0  0  0
    3.9326   -2.2048   -0.7489 H   0  0  0  0  0  0  0  0  0  0  0  0
    3.1989   -2.6390    0.7887 H   0  0  0  0  0  0  0  0  0  0  0  0
    4.8921   -3.0212    0.5333 H   0  0  0  0  0  0  0  0  0  0  0  0
    5.7705   -0.5203   -0.7962 H   0  0  0  0  0  0  0  0  0  0  0  0
    6.6949   -1.1442    0.5556 H   0  0  0  0  0  0  0  0  0  0  0  0
    6.1594    0.5277    0.5462 H   0  0  0  0  0  0  0  0  0  0  0  0
    4.8687   -3.5565    2.1820 H   0  0  0  0  0  0  0  0  0  0  0  0
    5.4063   -3.3914    3.8077 H   0  0  0  0  0  0  0  0  0  0  0  0
    2.9746   -3.9794    6.6862 H   0  0  0  0  0  0  0  0  0  0  0  0
    4.4774   -3.5938    5.9426 H   0  0  0  0  0  0  0  0  0  0  0  0
    0.9255   -3.3515    5.9987 H   0  0  0  0  0  0  0  0  0  0  0  0
   -2.6198   -1.1894    5.9398 H   0  0  0  0  0  0  0  0  0  0  0  0
   -1.5381   -2.6715    6.0531 H   0  0  0  0  0  0  0  0  0  0  0  0
  1  2  2  0
  1 39  1  0
  1 40  1  0
  2 14  1  0
  2  3  1  0
  3  4  1  0
  3 41  1  0
  3 42  1  0
  4  5  1  0
  4 43  1  0
  4 44  1  0
  5 16  1  0
  5  6  1  1
  5  8  1  0
  6  7  1  0
  7 45  1  0
  7 46  1  0
  7 47  1  0
  8 37  1  0
  8  9  1  0
  8 48  1  6
  9 10  1  0
  9 49  1  0
  9 50  1  0
 11 10  1  6
 10 51  1  0
 10 52  1  0
 11 15  1  0
 11 19  1  0
 11 12  1  0
 12 13  1  0
 12 18  1  0
 12 53  1  6
 13 14  1  0
 13 54  1  0
 13 55  1  0
 14 15  1  0
 14 56  1  6
 15 16  1  0
 15 57  1  1
 16 17  1  0
 16 58  1  1
 17 59  1  0
 17 60  1  0
 17 61  1  0
 18 19  1  0
 18 62  1  0
 18 63  1  0
 19 20  1  0
 19 64  1  1
 20 32  1  0
 20 21  1  1
 20 22  1  0
 21 65  1  0
 21 66  1  0
 21 67  1  0
 22 23  1  0
 22 27  1  0
 22 68  1  6
 23 24  1  0
 24 25  1  0
 24 26  1  0
 24 69  1  0
 25 70  1  0
 25 71  1  0
 25 72  1  0
 26 73  1  0
 26 74  1  0
 26 75  1  0
 27 28  1  0
 27 76  1  0
 27 77  1  0
 28 29  2  0
 28 30  1  0
 30 31  1  0
 31 32  1  0
 31 78  1  0
 31 79  1  0
 32 34  1  0
 32 33  1  1
 33 34  1  0
 34 35  1  0
 34 80  1  1
 35 36  2  0
 35 37  1  0
 37 38  2  0
 38 81  1  0
 38 82  1  0
M  END
>  <i_m_ct_stereo_status>  (397) 
1

>  <s_m_source_file>  (397) 
/var/tmp/pbs.5076255.sched01/tmp277fsmq3/144xeprw1xa.sdf

>  <i_m_source_file_index>  (397) 
20

>  <i_lp_mmshare_version>  (397) 
48012

>  <i_f3d_flags>  (397) 
0

>  <s_epik_input>  (397) 
W0NAQF0xMjNbQ0BIXTRbQ0gyXVtDQEhdNVtDQEhdMltDQEBIXShbQ0gzXSlbQ0BAXShPW0NIM10pKFtDSDJdW0NIMl1DNT1bQ0gyXSlbQ0BASF0oW0NIMl1bQ0gyXTEpQyg9W0NIMl0pQyg9TylbQ0BIXTZbQ0BdNyhPNilbQ0BdKFtDSDNdKShbQ0BIXTNbQ0gyXTQpW0NAQEhdKE9bQ0hdKFtDSDNdKVtDSDNdKVtDSDJdQyg9TylPW0NIMl03

>  <s_epik_cmdline>  (397) 
J2VwaWtfcHl0aG9uJywgJy1waHQnLCAnMi4wJywgJy1waCcsICc3LjAnLCAnLXRuJywgJzgnLCAnLW1hJywgJzIwMCcsICctaW1hZScsICc8aW5maWxlLm1hZT4nLCAnLW9tYWUnLCAnPG91dGZpbGUubWFlPic=

>  <r_lp_tautomer_probability>  (397) 
1

>  <r_epik_Ionization_Penalty>  (397) 
1.68479e-11

>  <r_epik_Ionization_Penalty_Charging>  (397) 
0

>  <r_epik_Ionization_Penalty_Neutral>  (397) 
1.68479e-11

>  <r_epik_State_Penalty>  (397) 
-0

>  <r_epik_Charging_Adjusted_Penalty>  (397) 
0

>  <i_epik_Tot_Q>  (397) 
0

>  <i_epik_Tot_abs_Q>  (397) 
0

>  <s_epik_Chemistry_Notes>  (397) 
This compound has an ester and may undergo hydrolysis at high or low pH.

>  <s_lp_Force_Field>  (397) 
OPLS3e

>  <r_lp_Energy>  (397) 
127.545

>  <b_lp_Chiralities_Consistent>  (397) 
1

>  <s_lp_Variant>  (397) 
96:0-1

>  <s_i_glide_gridfile>  (397) 
pfpi4k_grid

>  <i_i_glide_lignum>  (397) 
20

>  <i_i_glide_rotatable_bonds>  (397) 
3

>  <r_i_docking_score>  (397) 
-0.992298

>  <r_i_glide_ligand_efficiency>  (397) 
-0.0261131

>  <r_i_glide_ligand_efficiency_sa>  (397) 
-0.0877916

>  <r_i_glide_ligand_efficiency_ln>  (397) 
-0.213969

>  <r_i_glide_gscore>  (397) 
-0.992298

>  <r_i_glide_lipo>  (397) 
-0.263418

>  <r_i_glide_hbond>  (397) 
0

>  <r_i_glide_metal>  (397) 
-0

>  <r_i_glide_rewards>  (397) 
-0.0234565

>  <r_i_glide_evdw>  (397) 
-22.2545

>  <r_i_glide_ecoul>  (397) 
2.21701

>  <r_i_glide_erotb>  (397) 
0.0747483

>  <r_i_glide_esite>  (397) 
0

>  <r_i_glide_emodel>  (397) 
-16.1787

>  <r_i_glide_energy>  (397) 
-20.0375

>  <r_i_glide_einternal>  (397) 
6.60697

>  <r_i_glide_intrahb_reward>  (397) 
-0

>  <i_i_glide_confnum>  (397) 
2

>  <i_i_glide_posenum>  (397) 
7

>  <r_i_glide_eff_state_penalty>  (397) 
0

>  <ligand_id>  (397) 
96

>  <original_smiles>  (397) 
C=C1CCC2(OC)C3CCC45C(CC1C4C2C)CC5C1(C)C(OC(C)C)CC(=O)OCC12OC2C(=O)C3=C

>  <smiles>  (397) 
[H]C([H])=C1C([H])([H])C([H])([H])C2(OC([H])([H])[H])C3([H])C(=C([H])[H])C(=O)C4([H])OC45C([H])([H])OC(=O)C([H])([H])C([H])(OC([H])(C([H])([H])[H])C([H])([H])[H])C5(C([H])([H])[H])C4([H])C([H])([H])C5([H])C([H])([H])C1([H])C([H])(C2([H])C([H])([H])[H])C54C([H])([H])C3([H])[H]

$$$$
97:0:0
     RDKit          3D

 15 16  0  0  1  0  0  0  0  0999 V2000
    0.6879  -10.8071    3.3663 C   0  0  0  0  0  0  0  0  0  0  0  0
    0.3244   -9.4955    2.8794 N   0  0  0  0  0  0  0  0  0  0  0  0
   -0.9844   -9.1063    2.8787 N   0  0  0  0  0  0  0  0  0  0  0  0
   -1.0638   -7.8910    2.4091 N   0  0  0  0  0  0  0  0  0  0  0  0
    0.2152   -7.4824    2.0770 C   0  0  0  0  0  0  0  0  0  0  0  0
    0.6028   -6.3151    1.5545 N   0  0  0  0  0  0  0  0  0  0  0  0
    1.9425   -6.2083    1.3626 C   0  0  0  0  0  0  0  0  0  0  0  0
    2.8668   -7.2359    1.6810 C   0  0  0  0  0  0  0  0  0  0  0  0
    2.4892   -8.4269    2.2020 N   0  0  0  0  0  0  0  0  0  0  0  0
    1.1406   -8.5008    2.3862 C   0  0  0  0  0  0  0  0  0  0  0  0
    1.7652  -10.9416    3.2966 H   0  0  0  0  0  0  0  0  0  0  0  0
    0.2167  -11.5756    2.7557 H   0  0  0  0  0  0  0  0  0  0  0  0
    0.3815  -10.9224    4.4080 H   0  0  0  0  0  0  0  0  0  0  0  0
    2.2886   -5.2736    0.9485 H   0  0  0  0  0  0  0  0  0  0  0  0
    3.9251   -7.0959    1.5018 H   0  0  0  0  0  0  0  0  0  0  0  0
  1  2  1  0
  1 11  1  0
  1 12  1  0
  1 13  1  0
  2 10  1  0
  2  3  1  0
  3  4  2  0
  4  5  1  0
  5 10  2  0
  5  6  1  0
  6  7  2  0
  7  8  1  0
  7 14  1  0
  8  9  2  0
  8 15  1  0
  9 10  1  0
M  END
>  <i_m_ct_stereo_status>  (398) 
1

>  <s_m_source_file>  (398) 
/var/tmp/pbs.5076255.sched01/tmp277fsmq3/144xeprw1xa.sdf

>  <i_m_source_file_index>  (398) 
21

>  <i_lp_mmshare_version>  (398) 
48012

>  <i_f3d_flags>  (398) 
0

>  <s_epik_input>  (398) 
bjFubihbQ0gzXSljKGMxMiluW2NIXVtjSF1uMg==

>  <s_epik_cmdline>  (398) 
J2VwaWtfcHl0aG9uJywgJy1waHQnLCAnMi4wJywgJy1waCcsICc3LjAnLCAnLXRuJywgJzgnLCAnLW1hJywgJzIwMCcsICctaW1hZScsICc8aW5maWxlLm1hZT4nLCAnLW9tYWUnLCAnPG91dGZpbGUubWFlPic=

>  <r_lp_tautomer_probability>  (398) 
1

>  <r_epik_Ionization_Penalty>  (398) 
1.15416e-12

>  <r_epik_Ionization_Penalty_Charging>  (398) 
0

>  <r_epik_Ionization_Penalty_Neutral>  (398) 
1.15416e-12

>  <r_epik_State_Penalty>  (398) 
-0

>  <r_epik_Charging_Adjusted_Penalty>  (398) 
0

>  <i_epik_Tot_Q>  (398) 
0

>  <i_epik_Tot_abs_Q>  (398) 
0

>  <s_lp_Force_Field>  (398) 
OPLS3e

>  <r_lp_Energy>  (398) 
15.7504

>  <b_lp_Chiralities_Consistent>  (398) 
1

>  <s_lp_Variant>  (398) 
97:0-1

>  <s_i_glide_gridfile>  (398) 
pfpi4k_grid

>  <i_i_glide_lignum>  (398) 
21

>  <i_i_glide_rotatable_bonds>  (398) 
0

>  <r_i_docking_score>  (398) 
-4.02579

>  <r_i_glide_ligand_efficiency>  (398) 
-0.402579

>  <r_i_glide_ligand_efficiency_sa>  (398) 
-0.867331

>  <r_i_glide_ligand_efficiency_ln>  (398) 
-1.21898

>  <r_i_glide_gscore>  (398) 
-4.02579

>  <r_i_glide_lipo>  (398) 
-0.10199

>  <r_i_glide_hbond>  (398) 
-0.16

>  <r_i_glide_metal>  (398) 
-0

>  <r_i_glide_rewards>  (398) 
-2.25

>  <r_i_glide_evdw>  (398) 
-16.2246

>  <r_i_glide_ecoul>  (398) 
-3.51498

>  <r_i_glide_erotb>  (398) 
0

>  <r_i_glide_esite>  (398) 
-0.175325

>  <r_i_glide_emodel>  (398) 
-25.4025

>  <r_i_glide_energy>  (398) 
-19.7396

>  <r_i_glide_einternal>  (398) 
0

>  <r_i_glide_intrahb_reward>  (398) 
-0

>  <i_i_glide_confnum>  (398) 
1

>  <i_i_glide_posenum>  (398) 
9

>  <r_i_glide_eff_state_penalty>  (398) 
0

>  <ligand_id>  (398) 
97

>  <original_smiles>  (398) 
Cn1nnc2nccnc21

>  <smiles>  (398) 
[H]c1nc2nnn(C([H])([H])[H])c2nc1[H]

$$$$
97:0:1
     RDKit          3D

 15 16  0  0  1  0  0  0  0  0999 V2000
    3.7269   -8.0096    1.5663 C   0  0  0  0  0  0  0  0  0  0  0  0
    2.3392   -7.6092    1.6812 N   0  0  0  0  0  0  0  0  0  0  0  0
    1.9357   -6.4012    1.1910 N   0  0  0  0  0  0  0  0  0  0  0  0
    0.6557   -6.2649    1.3992 N   0  0  0  0  0  0  0  0  0  0  0  0
    0.2111   -7.4023    2.0521 C   0  0  0  0  0  0  0  0  0  0  0  0
   -1.0242   -7.6809    2.4796 N   0  0  0  0  0  0  0  0  0  0  0  0
   -1.1420   -8.8952    3.0785 C   0  0  0  0  0  0  0  0  0  0  0  0
   -0.0508   -9.7861    3.2666 C   0  0  0  0  0  0  0  0  0  0  0  0
    1.2100   -9.5063    2.8593 N   0  0  0  0  0  0  0  0  0  0  0  0
    1.2875   -8.2930    2.2472 C   0  0  0  0  0  0  0  0  0  0  0  0
    3.8658   -8.9955    2.0112 H   0  0  0  0  0  0  0  0  0  0  0  0
    4.3666   -7.2983    2.0895 H   0  0  0  0  0  0  0  0  0  0  0  0
    4.0198   -8.0573    0.5164 H   0  0  0  0  0  0  0  0  0  0  0  0
   -2.1273   -9.1640    3.4240 H   0  0  0  0  0  0  0  0  0  0  0  0
   -0.1871  -10.7375    3.7596 H   0  0  0  0  0  0  0  0  0  0  0  0
  1  2  1  0
  1 11  1  0
  1 12  1  0
  1 13  1  0
  2 10  1  0
  2  3  1  0
  3  4  2  0
  4  5  1  0
  5 10  2  0
  5  6  1  0
  6  7  2  0
  7  8  1  0
  7 14  1  0
  8  9  2  0
  8 15  1  0
  9 10  1  0
M  END
>  <i_m_ct_stereo_status>  (399) 
1

>  <s_m_source_file>  (399) 
/var/tmp/pbs.5076255.sched01/tmp277fsmq3/144xeprw1xa.sdf

>  <i_m_source_file_index>  (399) 
21

>  <i_lp_mmshare_version>  (399) 
48012

>  <i_f3d_flags>  (399) 
0

>  <s_epik_input>  (399) 
bjFubihbQ0gzXSljKGMxMiluW2NIXVtjSF1uMg==

>  <s_epik_cmdline>  (399) 
J2VwaWtfcHl0aG9uJywgJy1waHQnLCAnMi4wJywgJy1waCcsICc3LjAnLCAnLXRuJywgJzgnLCAnLW1hJywgJzIwMCcsICctaW1hZScsICc8aW5maWxlLm1hZT4nLCAnLW9tYWUnLCAnPG91dGZpbGUubWFlPic=

>  <r_lp_tautomer_probability>  (399) 
1

>  <r_epik_Ionization_Penalty>  (399) 
1.15416e-12

>  <r_epik_Ionization_Penalty_Charging>  (399) 
0

>  <r_epik_Ionization_Penalty_Neutral>  (399) 
1.15416e-12

>  <r_epik_State_Penalty>  (399) 
-0

>  <r_epik_Charging_Adjusted_Penalty>  (399) 
0

>  <i_epik_Tot_Q>  (399) 
0

>  <i_epik_Tot_abs_Q>  (399) 
0

>  <s_lp_Force_Field>  (399) 
OPLS3e

>  <r_lp_Energy>  (399) 
15.7504

>  <b_lp_Chiralities_Consistent>  (399) 
1

>  <s_lp_Variant>  (399) 
97:0-1

>  <s_i_glide_gridfile>  (399) 
pfpi4k_grid

>  <i_i_glide_lignum>  (399) 
21

>  <i_i_glide_rotatable_bonds>  (399) 
0

>  <r_i_docking_score>  (399) 
-3.77142

>  <r_i_glide_ligand_efficiency>  (399) 
-0.377142

>  <r_i_glide_ligand_efficiency_sa>  (399) 
-0.812527

>  <r_i_glide_ligand_efficiency_ln>  (399) 
-1.14196

>  <r_i_glide_gscore>  (399) 
-3.77142

>  <r_i_glide_lipo>  (399) 
0

>  <r_i_glide_hbond>  (399) 
0

>  <r_i_glide_metal>  (399) 
-0

>  <r_i_glide_rewards>  (399) 
-2.25

>  <r_i_glide_evdw>  (399) 
-15.2647

>  <r_i_glide_ecoul>  (399) 
-3.4309

>  <r_i_glide_erotb>  (399) 
0

>  <r_i_glide_esite>  (399) 
-0.243544

>  <r_i_glide_emodel>  (399) 
-23.9989

>  <r_i_glide_energy>  (399) 
-18.6956

>  <r_i_glide_einternal>  (399) 
0

>  <r_i_glide_intrahb_reward>  (399) 
-0

>  <i_i_glide_confnum>  (399) 
2

>  <i_i_glide_posenum>  (399) 
37

>  <r_i_glide_eff_state_penalty>  (399) 
0

>  <ligand_id>  (399) 
97

>  <original_smiles>  (399) 
Cn1nnc2nccnc21

>  <smiles>  (399) 
[H]c1nc2nnn(C([H])([H])[H])c2nc1[H]

$$$$
97:0:2
     RDKit          3D

 15 16  0  0  1  0  0  0  0  0999 V2000
   -0.3794   -9.8865    2.9726 C   0  0  0  0  0  0  0  0  0  0  0  0
    0.2064   -8.6639    2.4795 N   0  0  0  0  0  0  0  0  0  0  0  0
   -0.5840   -7.5707    2.2885 N   0  0  0  0  0  0  0  0  0  0  0  0
    0.1495   -6.6021    1.8191 N   0  0  0  0  0  0  0  0  0  0  0  0
    1.4505   -7.0666    1.7100 C   0  0  0  0  0  0  0  0  0  0  0  0
    2.5333   -6.4137    1.2795 N   0  0  0  0  0  0  0  0  0  0  0  0
    3.6724   -7.1569    1.2809 C   0  0  0  0  0  0  0  0  0  0  0  0
    3.7211   -8.5163    1.6920 C   0  0  0  0  0  0  0  0  0  0  0  0
    2.6321   -9.1894    2.1340 N   0  0  0  0  0  0  0  0  0  0  0  0
    1.5133   -8.4128    2.1252 C   0  0  0  0  0  0  0  0  0  0  0  0
    0.3858  -10.6580    3.0521 H   0  0  0  0  0  0  0  0  0  0  0  0
   -1.1560  -10.2301    2.2874 H   0  0  0  0  0  0  0  0  0  0  0  0
   -0.8054   -9.7093    3.9593 H   0  0  0  0  0  0  0  0  0  0  0  0
    4.5675   -6.6597    0.9443 H   0  0  0  0  0  0  0  0  0  0  0  0
    4.6511   -9.0665    1.6710 H   0  0  0  0  0  0  0  0  0  0  0  0
  1  2  1  0
  1 11  1  0
  1 12  1  0
  1 13  1  0
  2 10  1  0
  2  3  1  0
  3  4  2  0
  4  5  1  0
  5 10  2  0
  5  6  1  0
  6  7  2  0
  7  8  1  0
  7 14  1  0
  8  9  2  0
  8 15  1  0
  9 10  1  0
M  END
>  <i_m_ct_stereo_status>  (400) 
1

>  <s_m_source_file>  (400) 
/var/tmp/pbs.5076255.sched01/tmp277fsmq3/144xeprw1xa.sdf

>  <i_m_source_file_index>  (400) 
21

>  <i_lp_mmshare_version>  (400) 
48012

>  <i_f3d_flags>  (400) 
0

>  <s_epik_input>  (400) 
bjFubihbQ0gzXSljKGMxMiluW2NIXVtjSF1uMg==

>  <s_epik_cmdline>  (400) 
J2VwaWtfcHl0aG9uJywgJy1waHQnLCAnMi4wJywgJy1waCcsICc3LjAnLCAnLXRuJywgJzgnLCAnLW1hJywgJzIwMCcsICctaW1hZScsICc8aW5maWxlLm1hZT4nLCAnLW9tYWUnLCAnPG91dGZpbGUubWFlPic=

>  <r_lp_tautomer_probability>  (400) 
1

>  <r_epik_Ionization_Penalty>  (400) 
1.15416e-12

>  <r_epik_Ionization_Penalty_Charging>  (400) 
0

>  <r_epik_Ionization_Penalty_Neutral>  (400) 
1.15416e-12

>  <r_epik_State_Penalty>  (400) 
-0

>  <r_epik_Charging_Adjusted_Penalty>  (400) 
0

>  <i_epik_Tot_Q>  (400) 
0

>  <i_epik_Tot_abs_Q>  (400) 
0

>  <s_lp_Force_Field>  (400) 
OPLS3e

>  <r_lp_Energy>  (400) 
15.7504

>  <b_lp_Chiralities_Consistent>  (400) 
1

>  <s_lp_Variant>  (400) 
97:0-1

>  <s_i_glide_gridfile>  (400) 
pfpi4k_grid

>  <i_i_glide_lignum>  (400) 
21

>  <i_i_glide_rotatable_bonds>  (400) 
0

>  <r_i_docking_score>  (400) 
-3.70056

>  <r_i_glide_ligand_efficiency>  (400) 
-0.370056

>  <r_i_glide_ligand_efficiency_sa>  (400) 
-0.797261

>  <r_i_glide_ligand_efficiency_ln>  (400) 
-1.1205

>  <r_i_glide_gscore>  (400) 
-3.70056

>  <r_i_glide_lipo>  (400) 
-0.0792463

>  <r_i_glide_hbond>  (400) 
0

>  <r_i_glide_metal>  (400) 
-0

>  <r_i_glide_rewards>  (400) 
-2.25

>  <r_i_glide_evdw>  (400) 
-15.0158

>  <r_i_glide_ecoul>  (400) 
-2.26187

>  <r_i_glide_erotb>  (400) 
0

>  <r_i_glide_esite>  (400) 
-0.281243

>  <r_i_glide_emodel>  (400) 
-22.4824

>  <r_i_glide_energy>  (400) 
-17.2777

>  <r_i_glide_einternal>  (400) 
0

>  <r_i_glide_intrahb_reward>  (400) 
-0

>  <i_i_glide_confnum>  (400) 
1

>  <i_i_glide_posenum>  (400) 
30

>  <r_i_glide_eff_state_penalty>  (400) 
0

>  <ligand_id>  (400) 
97

>  <original_smiles>  (400) 
Cn1nnc2nccnc21

>  <smiles>  (400) 
[H]c1nc2nnn(C([H])([H])[H])c2nc1[H]

$$$$
98:0:0
     RDKit          3D

 53 57  0  0  1  0  0  0  0  0999 V2000
   -1.3881   -7.9200    4.1201 C   0  0  0  0  0  0  0  0  0  0  0  0
   -0.1285   -8.1001    3.2663 C   0  0  2  0  0  0  0  0  0  0  0  0
    1.1449   -7.9716    4.1266 C   0  0  0  0  0  0  0  0  0  0  0  0
    2.4385   -8.0521    3.2817 C   0  0  0  0  0  0  0  0  0  0  0  0
    2.4629   -6.9932    2.1593 C   0  0  0  0  0  0  0  0  0  0  0  0
    1.2016   -7.1678    1.2927 C   0  0  0  0  0  0  0  0  0  0  0  0
   -0.0942   -7.0779    2.1179 C   0  0  0  0  0  0  0  0  0  0  0  0
    2.5079   -5.6707    2.7095 O   0  0  0  0  0  0  0  0  0  0  0  0
    2.4872   -4.6618    1.5805 O   0  0  0  0  0  0  0  0  0  0  0  0
    3.6762   -4.8236    0.7812 C   0  0  2  0  0  0  0  0  0  0  0  0
    5.0736   -4.5148    1.7760 C   0  0  0  0  0  0  0  0  0  0  0  0
    6.6490   -3.9880    1.1813 C   0  0  2  0  0  0  0  0  0  0  0  0
    7.6986   -5.0818    1.4654 C   0  0  0  0  0  0  0  0  0  0  0  0
    5.8513   -4.1547    0.2121 C   0  0  0  0  0  0  0  0  0  0  0  0
    4.9129   -2.5355    0.3429 C   0  0  1  0  0  0  0  0  0  0  0  0
    5.5152   -1.4579   -0.5815 C   0  0  0  0  0  0  0  0  0  0  0  0
    6.1172   -2.5040   -1.4246 C   0  0  2  0  0  0  0  0  0  0  0  0
    4.7052   -3.4381   -1.9142 C   0  0  0  0  0  0  0  0  0  0  0  0
    3.5338   -3.8626   -0.6810 C   0  0  2  0  0  0  0  0  0  0  0  0
    3.4394   -2.5583   -0.0308 C   0  0  0  0  0  0  0  0  0  0  0  0
    7.2383   -3.0096   -0.1469 C   0  0  0  0  0  0  0  0  0  0  0  0
    3.6474   -6.1732    0.2509 O   0  0  0  0  0  0  0  0  0  0  0  0
    3.6417   -7.1795    1.3815 O   0  0  0  0  0  0  0  0  0  0  0  0
   -1.4215   -6.9320    4.5754 H   0  0  0  0  0  0  0  0  0  0  0  0
   -1.4254   -8.6555    4.9214 H   0  0  0  0  0  0  0  0  0  0  0  0
   -2.2901   -8.0449    3.5263 H   0  0  0  0  0  0  0  0  0  0  0  0
   -0.1527   -9.1050    2.8380 H   0  0  0  0  0  0  0  0  0  0  0  0
    1.1326   -7.0180    4.6601 H   0  0  0  0  0  0  0  0  0  0  0  0
    1.1488   -8.7523    4.8939 H   0  0  0  0  0  0  0  0  0  0  0  0
    3.3067   -7.9528    3.9348 H   0  0  0  0  0  0  0  0  0  0  0  0
    2.4981   -9.0579    2.8544 H   0  0  0  0  0  0  0  0  0  0  0  0
    1.1545   -6.4441    0.4732 H   0  0  0  0  0  0  0  0  0  0  0  0
    1.2236   -8.1477    0.8132 H   0  0  0  0  0  0  0  0  0  0  0  0
   -0.9640   -7.2303    1.4721 H   0  0  0  0  0  0  0  0  0  0  0  0
   -0.1702   -6.0730    2.5348 H   0  0  0  0  0  0  0  0  0  0  0  0
    4.7910   -3.8144    2.5739 H   0  0  0  0  0  0  0  0  0  0  0  0
    5.2590   -5.4161    2.3748 H   0  0  0  0  0  0  0  0  0  0  0  0
    8.7044   -4.6724    1.4330 H   0  0  0  0  0  0  0  0  0  0  0  0
    7.6580   -5.9087    0.7556 H   0  0  0  0  0  0  0  0  0  0  0  0
    7.5703   -5.5039    2.4632 H   0  0  0  0  0  0  0  0  0  0  0  0
    6.2347   -4.6704   -0.7187 H   0  0  0  0  0  0  0  0  0  0  0  0
    5.6232   -5.2096   -0.0815 H   0  0  0  0  0  0  0  0  0  0  0  0
    4.9752   -2.0726    1.3318 H   0  0  0  0  0  0  0  0  0  0  0  0
    4.8356   -0.8050   -1.1399 H   0  0  0  0  0  0  0  0  0  0  0  0
    6.2353   -0.8057   -0.0879 H   0  0  0  0  0  0  0  0  0  0  0  0
    6.6502   -2.0927   -2.2823 H   0  0  0  0  0  0  0  0  0  0  0  0
    4.1756   -2.8481   -2.6668 H   0  0  0  0  0  0  0  0  0  0  0  0
    5.0102   -4.3324   -2.4559 H   0  0  0  0  0  0  0  0  0  0  0  0
    2.6041   -4.1289   -1.1482 H   0  0  0  0  0  0  0  0  0  0  0  0
    2.7625   -2.4864    0.8187 H   0  0  0  0  0  0  0  0  0  0  0  0
    3.0991   -1.8116   -0.7507 H   0  0  0  0  0  0  0  0  0  0  0  0
    7.7964   -2.1691    0.2651 H   0  0  0  0  0  0  0  0  0  0  0  0
    8.0359   -3.5565   -0.6504 H   0  0  0  0  0  0  0  0  0  0  0  0
  1  2  1  0
  1 24  1  0
  1 25  1  0
  1 26  1  0
  2  7  1  0
  2  3  1  0
  2 27  1  6
  3  4  1  0
  3 28  1  0
  3 29  1  0
  4  5  1  0
  4 30  1  0
  4 31  1  0
  5 23  1  0
  5  6  1  0
  5  8  1  0
  6  7  1  0
  6 32  1  0
  6 33  1  0
  7 34  1  0
  7 35  1  0
  8  9  1  0
 10  9  1  1
 10 19  1  0
 10 11  1  0
 10 22  1  0
 11 12  1  0
 11 36  1  0
 11 37  1  0
 12 21  1  0
 12 13  1  1
 12 14  1  0
 13 38  1  0
 13 39  1  0
 13 40  1  0
 14 15  1  0
 14 41  1  0
 14 42  1  0
 15 20  1  0
 15 16  1  0
 15 43  1  1
 16 17  1  0
 16 44  1  0
 16 45  1  0
 17 18  1  0
 17 21  1  0
 17 46  1  6
 18 19  1  0
 18 47  1  0
 18 48  1  0
 19 20  1  0
 19 49  1  6
 20 50  1  0
 20 51  1  0
 21 52  1  0
 21 53  1  0
 22 23  1  0
M  END
>  <i_m_ct_stereo_status>  (401) 
1

>  <s_m_source_file>  (401) 
/var/tmp/pbs.5076255.sched01/tmp277fsmq3/144xeprw1xa.sdf

>  <i_m_source_file_index>  (401) 
22

>  <i_lp_mmshare_version>  (401) 
48012

>  <i_f3d_flags>  (401) 
0

>  <s_epik_input>  (401) 
W0NIMl0xW0NIMl1bQ0hdKFtDSDNdKVtDSDJdW0NIMl1bQ0BdMTJPT0MzKE9PMilbQ0BASF00W0NIMl1bQ0BIXTVbQ0gyXVtDQEBIXShbQ0gyXTQpW0NIMl1bQ0BdKFtDSDJdMykoW0NIM10pW0NIMl01

>  <s_epik_cmdline>  (401) 
J2VwaWtfcHl0aG9uJywgJy1waHQnLCAnMi4wJywgJy1waCcsICc3LjAnLCAnLXRuJywgJzgnLCAnLW1hJywgJzIwMCcsICctaW1hZScsICc8aW5maWxlLm1hZT4nLCAnLW9tYWUnLCAnPG91dGZpbGUubWFlPic=

>  <r_lp_tautomer_probability>  (401) 
1

>  <r_epik_Ionization_Penalty>  (401) 
0

>  <r_epik_Ionization_Penalty_Charging>  (401) 
0

>  <r_epik_Ionization_Penalty_Neutral>  (401) 
0

>  <r_epik_State_Penalty>  (401) 
-0

>  <r_epik_Charging_Adjusted_Penalty>  (401) 
0

>  <i_epik_Tot_Q>  (401) 
0

>  <i_epik_Tot_abs_Q>  (401) 
0

>  <s_lp_Force_Field>  (401) 
OPLS3e

>  <r_lp_Energy>  (401) 
509.65

>  <b_lp_Chiralities_Consistent>  (401) 
1

>  <s_lp_Variant>  (401) 
98:0-1

>  <s_i_glide_gridfile>  (401) 
pfpi4k_grid

>  <i_i_glide_lignum>  (401) 
22

>  <i_i_glide_rotatable_bonds>  (401) 
0

>  <r_i_docking_score>  (401) 
-3.09205

>  <r_i_glide_ligand_efficiency>  (401) 
-0.134437

>  <r_i_glide_ligand_efficiency_sa>  (401) 
-0.382321

>  <r_i_glide_ligand_efficiency_ln>  (401) 
-0.747687

>  <r_i_glide_gscore>  (401) 
-3.09205

>  <r_i_glide_lipo>  (401) 
-0.439741

>  <r_i_glide_hbond>  (401) 
0

>  <r_i_glide_metal>  (401) 
-0

>  <r_i_glide_rewards>  (401) 
-1.21071

>  <r_i_glide_evdw>  (401) 
-28.8892

>  <r_i_glide_ecoul>  (401) 
0.0667212

>  <r_i_glide_erotb>  (401) 
0

>  <r_i_glide_esite>  (401) 
-0.00715672

>  <r_i_glide_emodel>  (401) 
-34.1669

>  <r_i_glide_energy>  (401) 
-28.8225

>  <r_i_glide_einternal>  (401) 
0

>  <r_i_glide_intrahb_reward>  (401) 
-0

>  <i_i_glide_confnum>  (401) 
3

>  <i_i_glide_posenum>  (401) 
1

>  <r_i_glide_eff_state_penalty>  (401) 
0

>  <ligand_id>  (401) 
98

>  <original_smiles>  (401) 
CC1CCC2(CC1)OOC1(CC3(C)CC4CC(CC1C4)C3)OO2

>  <smiles>  (401) 
[H]C([H])([H])C1([H])C([H])([H])C([H])([H])C2(OOC3(OO2)C([H])([H])C2(C([H])([H])[H])C([H])([H])C4([H])C([H])([H])C([H])(C([H])([H])C3([H])C4([H])[H])C2([H])[H])C([H])([H])C1([H])[H]

$$$$
98:0:1
     RDKit          3D

 53 57  0  0  1  0  0  0  0  0999 V2000
    0.6904  -10.2263    3.1269 C   0  0  0  0  0  0  0  0  0  0  0  0
    1.9939   -9.4212    3.1080 C   0  0  2  0  0  0  0  0  0  0  0  0
    1.7715   -8.0096    3.6805 C   0  0  0  0  0  0  0  0  0  0  0  0
    3.0414   -7.1492    3.6161 C   0  0  0  0  0  0  0  0  0  0  0  0
    3.5758   -7.0741    2.1752 C   0  0  0  0  0  0  0  0  0  0  0  0
    3.8452   -8.4719    1.6173 C   0  0  0  0  0  0  0  0  0  0  0  0
    2.5729   -9.3348    1.6841 C   0  0  0  0  0  0  0  0  0  0  0  0
    2.6371   -6.4722    1.2976 O   0  0  0  0  0  0  0  0  0  0  0  0
    2.4231   -5.0463    1.7181 O   0  0  0  0  0  0  0  0  0  0  0  0
    3.6549   -4.3371    1.6529 C   0  0  2  0  0  0  0  0  0  0  0  0
    3.3087   -2.7158    2.2624 C   0  0  0  0  0  0  0  0  0  0  0  0
    4.2563   -1.2856    1.8799 C   0  0  2  0  0  0  0  0  0  0  0  0
    4.9143   -0.7481    3.1716 C   0  0  0  0  0  0  0  0  0  0  0  0
    4.7763   -2.2979    1.3204 C   0  0  0  0  0  0  0  0  0  0  0  0
    3.6105   -2.4285   -0.1418 C   0  0  1  0  0  0  0  0  0  0  0  0
    4.1723   -1.7083   -1.3724 C   0  0  0  0  0  0  0  0  0  0  0  0
    5.5274   -1.8291   -0.8326 C   0  0  2  0  0  0  0  0  0  0  0  0
    5.7022   -3.5701   -0.6481 C   0  0  0  0  0  0  0  0  0  0  0  0
    4.3845   -4.4353    0.0915 C   0  0  2  0  0  0  0  0  0  0  0  0
    3.2871   -3.8235   -0.6524 C   0  0  0  0  0  0  0  0  0  0  0  0
    5.1877   -0.7286    0.5188 C   0  0  0  0  0  0  0  0  0  0  0  0
    4.5120   -4.9694    2.6015 O   0  0  0  0  0  0  0  0  0  0  0  0
    4.7938   -6.3642    2.1596 O   0  0  0  0  0  0  0  0  0  0  0  0
   -0.0679   -9.7598    2.4978 H   0  0  0  0  0  0  0  0  0  0  0  0
    0.2866  -10.2979    4.1367 H   0  0  0  0  0  0  0  0  0  0  0  0
    0.8472  -11.2398    2.7603 H   0  0  0  0  0  0  0  0  0  0  0  0
    2.7197   -9.9374    3.7393 H   0  0  0  0  0  0  0  0  0  0  0  0
    0.9795   -7.5102    3.1214 H   0  0  0  0  0  0  0  0  0  0  0  0
    1.4332   -8.0766    4.7144 H   0  0  0  0  0  0  0  0  0  0  0  0
    2.8338   -6.1576    4.0227 H   0  0  0  0  0  0  0  0  0  0  0  0
    3.8096   -7.5816    4.2595 H   0  0  0  0  0  0  0  0  0  0  0  0
    4.2043   -8.4175    0.5843 H   0  0  0  0  0  0  0  0  0  0  0  0
    4.6385   -8.9586    2.1879 H   0  0  0  0  0  0  0  0  0  0  0  0
    2.8011  -10.3309    1.3154 H   0  0  0  0  0  0  0  0  0  0  0  0
    1.8229   -8.9283    1.0067 H   0  0  0  0  0  0  0  0  0  0  0  0
    2.2572   -2.4818    2.0624 H   0  0  0  0  0  0  0  0  0  0  0  0
    3.2745   -2.8061    3.3488 H   0  0  0  0  0  0  0  0  0  0  0  0
    5.2110    0.2902    3.0437 H   0  0  0  0  0  0  0  0  0  0  0  0
    5.8070   -1.3042    3.4619 H   0  0  0  0  0  0  0  0  0  0  0  0
    4.2265   -0.7707    4.0189 H   0  0  0  0  0  0  0  0  0  0  0  0
    5.9048   -2.4144    1.3402 H   0  0  0  0  0  0  0  0  0  0  0  0
    5.3358   -2.9939    1.9800 H   0  0  0  0  0  0  0  0  0  0  0  0
    2.6482   -1.9391    0.0231 H   0  0  0  0  0  0  0  0  0  0  0  0
    4.0616   -2.1788   -2.3523 H   0  0  0  0  0  0  0  0  0  0  0  0
    3.8218   -0.6832   -1.4794 H   0  0  0  0  0  0  0  0  0  0  0  0
    6.2667   -1.4260   -1.5144 H   0  0  0  0  0  0  0  0  0  0  0  0
    5.8446   -3.9916   -1.6475 H   0  0  0  0  0  0  0  0  0  0  0  0
    6.6289   -3.8157   -0.1287 H   0  0  0  0  0  0  0  0  0  0  0  0
    4.4719   -5.4758   -0.1783 H   0  0  0  0  0  0  0  0  0  0  0  0
    2.2833   -4.1718   -0.4153 H   0  0  0  0  0  0  0  0  0  0  0  0
    3.4138   -3.9945   -1.7231 H   0  0  0  0  0  0  0  0  0  0  0  0
    4.7412    0.1981    0.1763 H   0  0  0  0  0  0  0  0  0  0  0  0
    6.1569   -0.3771    0.8801 H   0  0  0  0  0  0  0  0  0  0  0  0
  1  2  1  0
  1 24  1  0
  1 25  1  0
  1 26  1  0
  2  7  1  0
  2  3  1  0
  2 27  1  1
  3  4  1  0
  3 28  1  0
  3 29  1  0
  4  5  1  0
  4 30  1  0
  4 31  1  0
  5 23  1  0
  5  6  1  0
  5  8  1  0
  6  7  1  0
  6 32  1  0
  6 33  1  0
  7 34  1  0
  7 35  1  0
  8  9  1  0
 10  9  1  6
 10 19  1  0
 10 11  1  0
 10 22  1  0
 11 12  1  0
 11 36  1  0
 11 37  1  0
 12 21  1  0
 12 13  1  6
 12 14  1  0
 13 38  1  0
 13 39  1  0
 13 40  1  0
 14 15  1  0
 14 41  1  0
 14 42  1  0
 15 20  1  0
 15 16  1  0
 15 43  1  1
 16 17  1  0
 16 44  1  0
 16 45  1  0
 17 18  1  0
 17 21  1  0
 17 46  1  6
 18 19  1  0
 18 47  1  0
 18 48  1  0
 19 20  1  0
 19 49  1  6
 20 50  1  0
 20 51  1  0
 21 52  1  0
 21 53  1  0
 22 23  1  0
M  END
>  <i_m_ct_stereo_status>  (402) 
1

>  <s_m_source_file>  (402) 
/var/tmp/pbs.5076255.sched01/tmp277fsmq3/144xeprw1xa.sdf

>  <i_m_source_file_index>  (402) 
22

>  <i_lp_mmshare_version>  (402) 
48012

>  <i_f3d_flags>  (402) 
0

>  <s_epik_input>  (402) 
W0NIMl0xW0NIMl1bQ0hdKFtDSDNdKVtDSDJdW0NIMl1bQ0BdMTJPT0MzKE9PMilbQ0BASF00W0NIMl1bQ0BIXTVbQ0gyXVtDQEBIXShbQ0gyXTQpW0NIMl1bQ0BdKFtDSDJdMykoW0NIM10pW0NIMl01

>  <s_epik_cmdline>  (402) 
J2VwaWtfcHl0aG9uJywgJy1waHQnLCAnMi4wJywgJy1waCcsICc3LjAnLCAnLXRuJywgJzgnLCAnLW1hJywgJzIwMCcsICctaW1hZScsICc8aW5maWxlLm1hZT4nLCAnLW9tYWUnLCAnPG91dGZpbGUubWFlPic=

>  <r_lp_tautomer_probability>  (402) 
1

>  <r_epik_Ionization_Penalty>  (402) 
0

>  <r_epik_Ionization_Penalty_Charging>  (402) 
0

>  <r_epik_Ionization_Penalty_Neutral>  (402) 
0

>  <r_epik_State_Penalty>  (402) 
-0

>  <r_epik_Charging_Adjusted_Penalty>  (402) 
0

>  <i_epik_Tot_Q>  (402) 
0

>  <i_epik_Tot_abs_Q>  (402) 
0

>  <s_lp_Force_Field>  (402) 
OPLS3e

>  <r_lp_Energy>  (402) 
509.65

>  <b_lp_Chiralities_Consistent>  (402) 
1

>  <s_lp_Variant>  (402) 
98:0-1

>  <s_i_glide_gridfile>  (402) 
pfpi4k_grid

>  <i_i_glide_lignum>  (402) 
22

>  <i_i_glide_rotatable_bonds>  (402) 
0

>  <r_i_docking_score>  (402) 
-3.07536

>  <r_i_glide_ligand_efficiency>  (402) 
-0.133711

>  <r_i_glide_ligand_efficiency_sa>  (402) 
-0.380257

>  <r_i_glide_ligand_efficiency_ln>  (402) 
-0.74365

>  <r_i_glide_gscore>  (402) 
-3.07536

>  <r_i_glide_lipo>  (402) 
-0.41903

>  <r_i_glide_hbond>  (402) 
0

>  <r_i_glide_metal>  (402) 
-0

>  <r_i_glide_rewards>  (402) 
-1.24051

>  <r_i_glide_evdw>  (402) 
-26.103

>  <r_i_glide_ecoul>  (402) 
-0.737806

>  <r_i_glide_erotb>  (402) 
0

>  <r_i_glide_esite>  (402) 
0

>  <r_i_glide_emodel>  (402) 
-32.2383

>  <r_i_glide_energy>  (402) 
-26.8408

>  <r_i_glide_einternal>  (402) 
0

>  <r_i_glide_intrahb_reward>  (402) 
-0

>  <i_i_glide_confnum>  (402) 
4

>  <i_i_glide_posenum>  (402) 
13

>  <r_i_glide_eff_state_penalty>  (402) 
0

>  <ligand_id>  (402) 
98

>  <original_smiles>  (402) 
CC1CCC2(CC1)OOC1(CC3(C)CC4CC(CC1C4)C3)OO2

>  <smiles>  (402) 
[H]C([H])([H])C1([H])C([H])([H])C([H])([H])C2(OOC3(OO2)C([H])([H])C2(C([H])([H])[H])C([H])([H])C4([H])C([H])([H])C([H])(C([H])([H])C3([H])C4([H])[H])C2([H])[H])C([H])([H])C1([H])[H]

$$$$
98:0:2
     RDKit          3D

 53 57  0  0  1  0  0  0  0  0999 V2000
    5.0957   -2.0882   -1.5985 C   0  0  0  0  0  0  0  0  0  0  0  0
    4.8630   -2.5800   -0.1665 C   0  0  2  0  0  0  0  0  0  0  0  0
    5.1873   -4.0807   -0.0461 C   0  0  0  0  0  0  0  0  0  0  0  0
    4.9077   -4.6250    1.3587 C   0  0  0  0  0  0  0  0  0  0  0  0
    3.4457   -4.3529    1.7686 C   0  0  0  0  0  0  0  0  0  0  0  0
    3.1307   -2.8481    1.6916 C   0  0  0  0  0  0  0  0  0  0  0  0
    3.4166   -2.3026    0.2833 C   0  0  0  0  0  0  0  0  0  0  0  0
    2.5236   -4.9871    0.9033 O   0  0  0  0  0  0  0  0  0  0  0  0
    2.6995   -6.4812    1.0160 O   0  0  0  0  0  0  0  0  0  0  0  0
    2.4464   -6.8724    2.3508 C   0  0  2  0  0  0  0  0  0  0  0  0
    2.7754   -8.6252    2.4036 C   0  0  0  0  0  0  0  0  0  0  0  0
    2.0959   -9.7275    3.5816 C   0  0  2  0  0  0  0  0  0  0  0  0
    3.2312  -10.3123    4.4520 C   0  0  0  0  0  0  0  0  0  0  0  0
    1.6858   -8.5470    3.8374 C   0  0  0  0  0  0  0  0  0  0  0  0
    0.3449   -8.4365    2.5425 C   0  0  1  0  0  0  0  0  0  0  0  0
   -1.0249   -8.8094    3.1204 C   0  0  0  0  0  0  0  0  0  0  0  0
   -0.5402   -8.4954    4.4668 C   0  0  2  0  0  0  0  0  0  0  0  0
   -0.0683   -6.8098    4.3034 C   0  0  0  0  0  0  0  0  0  0  0  0
    0.8903   -6.3863    2.9092 C   0  0  2  0  0  0  0  0  0  0  0  0
    0.1028   -7.0770    1.8899 C   0  0  0  0  0  0  0  0  0  0  0  0
    0.6069   -9.8434    4.4791 C   0  0  0  0  0  0  0  0  0  0  0  0
    3.4412   -6.2481    3.1583 O   0  0  0  0  0  0  0  0  0  0  0  0
    3.2388   -4.7619    3.0991 O   0  0  0  0  0  0  0  0  0  0  0  0
    4.4361   -2.6052   -2.2969 H   0  0  0  0  0  0  0  0  0  0  0  0
    6.1220   -2.2731   -1.9145 H   0  0  0  0  0  0  0  0  0  0  0  0
    4.9001   -1.0195   -1.6853 H   0  0  0  0  0  0  0  0  0  0  0  0
    5.5344   -2.0302    0.4951 H   0  0  0  0  0  0  0  0  0  0  0  0
    4.5916   -4.6442   -0.7663 H   0  0  0  0  0  0  0  0  0  0  0  0
    6.2317   -4.2601   -0.2970 H   0  0  0  0  0  0  0  0  0  0  0  0
    5.1388   -5.6930    1.3955 H   0  0  0  0  0  0  0  0  0  0  0  0
    5.5719   -4.1502    2.0811 H   0  0  0  0  0  0  0  0  0  0  0  0
    2.0864   -2.6663    1.9618 H   0  0  0  0  0  0  0  0  0  0  0  0
    3.7337   -2.3108    2.4221 H   0  0  0  0  0  0  0  0  0  0  0  0
    3.2136   -1.2319    0.2612 H   0  0  0  0  0  0  0  0  0  0  0  0
    2.7183   -2.7530   -0.4232 H   0  0  0  0  0  0  0  0  0  0  0  0
    2.5973   -9.0405    1.4117 H   0  0  0  0  0  0  0  0  0  0  0  0
    3.8575   -8.7154    2.4530 H   0  0  0  0  0  0  0  0  0  0  0  0
    2.9034  -11.2268    4.9452 H   0  0  0  0  0  0  0  0  0  0  0  0
    3.5674   -9.6325    5.2367 H   0  0  0  0  0  0  0  0  0  0  0  0
    4.1048  -10.5785    3.8554 H   0  0  0  0  0  0  0  0  0  0  0  0
    1.6730   -8.2002    4.9112 H   0  0  0  0  0  0  0  0  0  0  0  0
    2.4368   -7.8645    4.2998 H   0  0  0  0  0  0  0  0  0  0  0  0
    0.4752   -9.1415    1.7173 H   0  0  0  0  0  0  0  0  0  0  0  0
   -1.8994   -8.2258    2.8312 H   0  0  0  0  0  0  0  0  0  0  0  0
   -1.2892   -9.8563    2.9827 H   0  0  0  0  0  0  0  0  0  0  0  0
   -1.3235   -8.6319    5.2201 H   0  0  0  0  0  0  0  0  0  0  0  0
   -0.9818   -6.2118    4.2750 H   0  0  0  0  0  0  0  0  0  0  0  0
    0.4397   -6.4587    5.2039 H   0  0  0  0  0  0  0  0  0  0  0  0
    0.8079   -5.3080    2.7645 H   0  0  0  0  0  0  0  0  0  0  0  0
    0.4608   -7.0106    0.8624 H   0  0  0  0  0  0  0  0  0  0  0  0
   -0.9243   -6.7159    1.8762 H   0  0  0  0  0  0  0  0  0  0  0  0
    0.1292  -10.7886    4.2204 H   0  0  0  0  0  0  0  0  0  0  0  0
    0.8485  -10.0297    5.5322 H   0  0  0  0  0  0  0  0  0  0  0  0
  1  2  1  0
  1 24  1  0
  1 25  1  0
  1 26  1  0
  2  7  1  0
  2  3  1  0
  2 27  1  1
  3  4  1  0
  3 28  1  0
  3 29  1  0
  4  5  1  0
  4 30  1  0
  4 31  1  0
  5 23  1  0
  5  6  1  0
  5  8  1  0
  6  7  1  0
  6 32  1  0
  6 33  1  0
  7 34  1  0
  7 35  1  0
  8  9  1  0
 10  9  1  6
 10 19  1  0
 10 11  1  0
 10 22  1  0
 11 12  1  0
 11 36  1  0
 11 37  1  0
 12 21  1  0
 12 13  1  6
 12 14  1  0
 13 38  1  0
 13 39  1  0
 13 40  1  0
 14 15  1  0
 14 41  1  0
 14 42  1  0
 15 20  1  0
 15 16  1  0
 15 43  1  6
 16 17  1  0
 16 44  1  0
 16 45  1  0
 17 18  1  0
 17 21  1  0
 17 46  1  1
 18 19  1  0
 18 47  1  0
 18 48  1  0
 19 20  1  0
 19 49  1  6
 20 50  1  0
 20 51  1  0
 21 52  1  0
 21 53  1  0
 22 23  1  0
M  END
>  <i_m_ct_stereo_status>  (403) 
1

>  <s_m_source_file>  (403) 
/var/tmp/pbs.5076255.sched01/tmp277fsmq3/144xeprw1xa.sdf

>  <i_m_source_file_index>  (403) 
22

>  <i_lp_mmshare_version>  (403) 
48012

>  <i_f3d_flags>  (403) 
0

>  <s_epik_input>  (403) 
W0NIMl0xW0NIMl1bQ0hdKFtDSDNdKVtDSDJdW0NIMl1bQ0BdMTJPT0MzKE9PMilbQ0BASF00W0NIMl1bQ0BIXTVbQ0gyXVtDQEBIXShbQ0gyXTQpW0NIMl1bQ0BdKFtDSDJdMykoW0NIM10pW0NIMl01

>  <s_epik_cmdline>  (403) 
J2VwaWtfcHl0aG9uJywgJy1waHQnLCAnMi4wJywgJy1waCcsICc3LjAnLCAnLXRuJywgJzgnLCAnLW1hJywgJzIwMCcsICctaW1hZScsICc8aW5maWxlLm1hZT4nLCAnLW9tYWUnLCAnPG91dGZpbGUubWFlPic=

>  <r_lp_tautomer_probability>  (403) 
1

>  <r_epik_Ionization_Penalty>  (403) 
0

>  <r_epik_Ionization_Penalty_Charging>  (403) 
0

>  <r_epik_Ionization_Penalty_Neutral>  (403) 
0

>  <r_epik_State_Penalty>  (403) 
-0

>  <r_epik_Charging_Adjusted_Penalty>  (403) 
0

>  <i_epik_Tot_Q>  (403) 
0

>  <i_epik_Tot_abs_Q>  (403) 
0

>  <s_lp_Force_Field>  (403) 
OPLS3e

>  <r_lp_Energy>  (403) 
509.65

>  <b_lp_Chiralities_Consistent>  (403) 
1

>  <s_lp_Variant>  (403) 
98:0-1

>  <s_i_glide_gridfile>  (403) 
pfpi4k_grid

>  <i_i_glide_lignum>  (403) 
22

>  <i_i_glide_rotatable_bonds>  (403) 
0

>  <r_i_docking_score>  (403) 
-2.70759

>  <r_i_glide_ligand_efficiency>  (403) 
-0.117721

>  <r_i_glide_ligand_efficiency_sa>  (403) 
-0.334784

>  <r_i_glide_ligand_efficiency_ln>  (403) 
-0.654719

>  <r_i_glide_gscore>  (403) 
-2.70759

>  <r_i_glide_lipo>  (403) 
-0.0908651

>  <r_i_glide_hbond>  (403) 
0

>  <r_i_glide_metal>  (403) 
-0

>  <r_i_glide_rewards>  (403) 
-1.21569

>  <r_i_glide_evdw>  (403) 
-26.7209

>  <r_i_glide_ecoul>  (403) 
-0.382859

>  <r_i_glide_erotb>  (403) 
0

>  <r_i_glide_esite>  (403) 
-0.00756351

>  <r_i_glide_emodel>  (403) 
-31.8539

>  <r_i_glide_energy>  (403) 
-27.1037

>  <r_i_glide_einternal>  (403) 
0

>  <r_i_glide_intrahb_reward>  (403) 
-0

>  <i_i_glide_confnum>  (403) 
1

>  <i_i_glide_posenum>  (403) 
21

>  <r_i_glide_eff_state_penalty>  (403) 
0

>  <ligand_id>  (403) 
98

>  <original_smiles>  (403) 
CC1CCC2(CC1)OOC1(CC3(C)CC4CC(CC1C4)C3)OO2

>  <smiles>  (403) 
[H]C([H])([H])C1([H])C([H])([H])C([H])([H])C2(OOC3(OO2)C([H])([H])C2(C([H])([H])[H])C([H])([H])C4([H])C([H])([H])C([H])(C([H])([H])C3([H])C4([H])[H])C2([H])[H])C([H])([H])C1([H])[H]

$$$$
98:1:0
     RDKit          3D

 53 57  0  0  1  0  0  0  0  0999 V2000
   -0.8730   -9.1671    2.8786 C   0  0  0  0  0  0  0  0  0  0  0  0
    0.1865   -8.6021    3.8394 C   0  0  2  0  0  0  0  0  0  0  0  0
    0.1382   -7.0661    3.9002 C   0  0  0  0  0  0  0  0  0  0  0  0
    0.6249   -6.4254    2.5850 C   0  0  0  0  0  0  0  0  0  0  0  0
    2.0656   -6.8815    2.2026 C   0  0  0  0  0  0  0  0  0  0  0  0
    2.1040   -8.4381    2.1517 C   0  0  0  0  0  0  0  0  0  0  0  0
    1.6078   -9.0711    3.4671 C   0  0  0  0  0  0  0  0  0  0  0  0
    2.4227   -6.3793    0.9221 O   0  0  0  0  0  0  0  0  0  0  0  0
    2.3025   -4.8686    0.9684 O   0  0  0  0  0  0  0  0  0  0  0  0
    3.2202   -4.3251    1.9352 C   0  0  1  0  0  0  0  0  0  0  0  0
    4.9148   -4.7753    1.6064 C   0  0  0  0  0  0  0  0  0  0  0  0
    5.9376   -3.6592    0.7841 C   0  0  2  0  0  0  0  0  0  0  0  0
    7.3342   -4.2931    0.5933 C   0  0  0  0  0  0  0  0  0  0  0  0
    6.1585   -1.9186    0.9251 C   0  0  0  0  0  0  0  0  0  0  0  0
    4.7613   -0.8974    0.6553 C   0  0  1  0  0  0  0  0  0  0  0  0
    4.2233   -1.4829   -0.5732 C   0  0  0  0  0  0  0  0  0  0  0  0
    4.0479   -2.8268    0.1417 C   0  0  2  0  0  0  0  0  0  0  0  0
    4.0140   -2.6341    1.9998 C   0  0  0  0  0  0  0  0  0  0  0  0
    2.7416   -2.6438    2.1209 C   0  0  1  0  0  0  0  0  0  0  0  0
    3.2285   -1.0636    1.5298 C   0  0  0  0  0  0  0  0  0  0  0  0
    5.1467   -3.7106   -0.4485 C   0  0  0  0  0  0  0  0  0  0  0  0
    2.8941   -4.8910    3.2182 O   0  0  0  0  0  0  0  0  0  0  0  0
    3.0054   -6.4010    3.1563 O   0  0  0  0  0  0  0  0  0  0  0  0
   -0.7061   -8.8540    1.8520 H   0  0  0  0  0  0  0  0  0  0  0  0
   -1.8749   -8.8468    3.1587 H   0  0  0  0  0  0  0  0  0  0  0  0
   -0.8562  -10.2584    2.8806 H   0  0  0  0  0  0  0  0  0  0  0  0
   -0.0414   -8.9907    4.8325 H   0  0  0  0  0  0  0  0  0  0  0  0
   -0.8788   -6.7399    4.1418 H   0  0  0  0  0  0  0  0  0  0  0  0
    0.7665   -6.7105    4.7231 H   0  0  0  0  0  0  0  0  0  0  0  0
   -0.0655   -6.6887    1.7882 H   0  0  0  0  0  0  0  0  0  0  0  0
    0.5503   -5.3396    2.6713 H   0  0  0  0  0  0  0  0  0  0  0  0
    1.4782   -8.7832    1.3321 H   0  0  0  0  0  0  0  0  0  0  0  0
    3.1101   -8.7828    1.9147 H   0  0  0  0  0  0  0  0  0  0  0  0
    2.3046   -8.8151    4.2719 H   0  0  0  0  0  0  0  0  0  0  0  0
    1.6314  -10.1598    3.3920 H   0  0  0  0  0  0  0  0  0  0  0  0
    5.4071   -4.9631    2.5600 H   0  0  0  0  0  0  0  0  0  0  0  0
    4.9549   -5.7605    1.1389 H   0  0  0  0  0  0  0  0  0  0  0  0
    7.9066   -3.7746   -0.1744 H   0  0  0  0  0  0  0  0  0  0  0  0
    7.2529   -5.3371    0.2939 H   0  0  0  0  0  0  0  0  0  0  0  0
    7.9066   -4.2546    1.5171 H   0  0  0  0  0  0  0  0  0  0  0  0
    6.6139   -1.6813    1.8872 H   0  0  0  0  0  0  0  0  0  0  0  0
    6.9224   -1.6115    0.1976 H   0  0  0  0  0  0  0  0  0  0  0  0
    5.0324    0.1535    0.5128 H   0  0  0  0  0  0  0  0  0  0  0  0
    3.2840   -1.0263   -0.8973 H   0  0  0  0  0  0  0  0  0  0  0  0
    4.9123   -1.4161   -1.4134 H   0  0  0  0  0  0  0  0  0  0  0  0
    3.1008   -3.1551   -0.2978 H   0  0  0  0  0  0  0  0  0  0  0  0
    4.5990   -3.0457    2.8577 H   0  0  0  0  0  0  0  0  0  0  0  0
    4.6203   -1.9702    2.6781 H   0  0  0  0  0  0  0  0  0  0  0  0
    2.4172   -2.5068    3.1570 H   0  0  0  0  0  0  0  0  0  0  0  0
    3.2766   -0.3756    2.3793 H   0  0  0  0  0  0  0  0  0  0  0  0
    2.3941   -0.6249    0.9715 H   0  0  0  0  0  0  0  0  0  0  0  0
    5.6757   -3.3186   -1.3136 H   0  0  0  0  0  0  0  0  0  0  0  0
    4.7754   -4.6959   -0.7283 H   0  0  0  0  0  0  0  0  0  0  0  0
  1  2  1  0
  1 24  1  0
  1 25  1  0
  1 26  1  0
  2  7  1  0
  2  3  1  0
  2 27  1  1
  3  4  1  0
  3 28  1  0
  3 29  1  0
  4  5  1  0
  4 30  1  0
  4 31  1  0
  5 23  1  0
  5  6  1  0
  5  8  1  0
  6  7  1  0
  6 32  1  0
  6 33  1  0
  7 34  1  0
  7 35  1  0
  8  9  1  0
 10  9  1  6
 10 19  1  0
 10 11  1  0
 10 22  1  0
 11 12  1  0
 11 36  1  0
 11 37  1  0
 12 21  1  0
 12 13  1  6
 12 14  1  0
 13 38  1  0
 13 39  1  0
 13 40  1  0
 14 15  1  0
 14 41  1  0
 14 42  1  0
 15 20  1  0
 15 16  1  0
 15 43  1  6
 16 17  1  0
 16 44  1  0
 16 45  1  0
 17 18  1  0
 17 21  1  0
 17 46  1  6
 18 19  1  0
 18 47  1  0
 18 48  1  0
 19 20  1  0
 19 49  1  1
 20 50  1  0
 20 51  1  0
 21 52  1  0
 21 53  1  0
 22 23  1  0
M  END
>  <i_m_ct_stereo_status>  (404) 
1

>  <s_m_source_file>  (404) 
/var/tmp/pbs.5076255.sched01/tmp277fsmq3/144xeprw1xa.sdf

>  <i_m_source_file_index>  (404) 
23

>  <i_lp_mmshare_version>  (404) 
48012

>  <i_f3d_flags>  (404) 
0

>  <s_epik_input>  (404) 
W0NIMl0xW0NIMl1bQ0hdKFtDSDNdKVtDSDJdW0NIMl1bQ0BdMTJPT0MzKE9PMilbQ0BASF00W0NIMl1bQ0BIXTVbQ0gyXVtDQEBIXShbQ0gyXTQpW0NIMl1bQ0BdKFtDSDJdMykoW0NIM10pW0NIMl01

>  <s_epik_cmdline>  (404) 
J2VwaWtfcHl0aG9uJywgJy1waHQnLCAnMi4wJywgJy1waCcsICc3LjAnLCAnLXRuJywgJzgnLCAnLW1hJywgJzIwMCcsICctaW1hZScsICc8aW5maWxlLm1hZT4nLCAnLW9tYWUnLCAnPG91dGZpbGUubWFlPic=

>  <r_lp_tautomer_probability>  (404) 
1

>  <r_epik_Ionization_Penalty>  (404) 
0

>  <r_epik_Ionization_Penalty_Charging>  (404) 
0

>  <r_epik_Ionization_Penalty_Neutral>  (404) 
0

>  <r_epik_State_Penalty>  (404) 
-0

>  <r_epik_Charging_Adjusted_Penalty>  (404) 
0

>  <i_epik_Tot_Q>  (404) 
0

>  <i_epik_Tot_abs_Q>  (404) 
0

>  <s_lp_Force_Field>  (404) 
OPLS3e

>  <r_lp_Energy>  (404) 
508.995

>  <b_lp_Chiralities_Consistent>  (404) 
1

>  <s_lp_Variant>  (404) 
98:0-2

>  <s_i_glide_gridfile>  (404) 
pfpi4k_grid

>  <i_i_glide_lignum>  (404) 
23

>  <i_i_glide_rotatable_bonds>  (404) 
0

>  <r_i_docking_score>  (404) 
-3.17233

>  <r_i_glide_ligand_efficiency>  (404) 
-0.137927

>  <r_i_glide_ligand_efficiency_sa>  (404) 
-0.392247

>  <r_i_glide_ligand_efficiency_ln>  (404) 
-0.767098

>  <r_i_glide_gscore>  (404) 
-3.17233

>  <r_i_glide_lipo>  (404) 
-0.518855

>  <r_i_glide_hbond>  (404) 
-0.00687787

>  <r_i_glide_metal>  (404) 
-0

>  <r_i_glide_rewards>  (404) 
-1.21212

>  <r_i_glide_evdw>  (404) 
-26.899

>  <r_i_glide_ecoul>  (404) 
-0.499414

>  <r_i_glide_erotb>  (404) 
0

>  <r_i_glide_esite>  (404) 
-0.0146147

>  <r_i_glide_emodel>  (404) 
-32.6736

>  <r_i_glide_energy>  (404) 
-27.3984

>  <r_i_glide_einternal>  (404) 
0

>  <r_i_glide_intrahb_reward>  (404) 
-0

>  <i_i_glide_confnum>  (404) 
2

>  <i_i_glide_posenum>  (404) 
1

>  <r_i_glide_eff_state_penalty>  (404) 
0

>  <ligand_id>  (404) 
98

>  <original_smiles>  (404) 
CC1CCC2(CC1)OOC1(CC3(C)CC4CC(CC1C4)C3)OO2

>  <smiles>  (404) 
[H]C([H])([H])C1([H])C([H])([H])C([H])([H])C2(OOC3(OO2)C([H])([H])C2(C([H])([H])[H])C([H])([H])C4([H])C([H])([H])C([H])(C([H])([H])C3([H])C4([H])[H])C2([H])[H])C([H])([H])C1([H])[H]

$$$$
98:1:1
     RDKit          3D

 53 57  0  0  1  0  0  0  0  0999 V2000
   -1.7516   -7.8198    3.3680 C   0  0  0  0  0  0  0  0  0  0  0  0
   -0.2223   -7.7335    3.4035 C   0  0  2  0  0  0  0  0  0  0  0  0
    0.2478   -6.6072    4.3402 C   0  0  0  0  0  0  0  0  0  0  0  0
    1.7782   -6.4657    4.3431 C   0  0  0  0  0  0  0  0  0  0  0  0
    2.3550   -6.2877    2.9203 C   0  0  0  0  0  0  0  0  0  0  0  0
    1.8785   -7.4189    1.9882 C   0  0  0  0  0  0  0  0  0  0  0  0
    0.3478   -7.5300    1.9909 C   0  0  0  0  0  0  0  0  0  0  0  0
    1.9186   -5.0241    2.4378 O   0  0  0  0  0  0  0  0  0  0  0  0
    2.5711   -4.7770    1.1010 O   0  0  0  0  0  0  0  0  0  0  0  0
    3.9861   -4.7218    1.3078 C   0  0  1  0  0  0  0  0  0  0  0  0
    4.7133   -4.5254   -0.2966 C   0  0  0  0  0  0  0  0  0  0  0  0
    5.2076   -2.9590   -0.8001 C   0  0  2  0  0  0  0  0  0  0  0  0
    5.7620   -3.0494   -2.2322 C   0  0  0  0  0  0  0  0  0  0  0  0
    6.0541   -1.6740    0.0392 C   0  0  0  0  0  0  0  0  0  0  0  0
    5.3145   -1.0071    1.4883 C   0  0  1  0  0  0  0  0  0  0  0  0
    3.9330   -0.8235    1.0436 C   0  0  0  0  0  0  0  0  0  0  0  0
    3.8207   -2.3226    0.7495 C   0  0  2  0  0  0  0  0  0  0  0  0
    5.1035   -3.3138    1.6769 C   0  0  0  0  0  0  0  0  0  0  0  0
    4.3593   -3.6466    2.6487 C   0  0  1  0  0  0  0  0  0  0  0  0
    4.8407   -1.9802    2.8909 C   0  0  0  0  0  0  0  0  0  0  0  0
    3.8412   -2.4203   -0.7729 C   0  0  0  0  0  0  0  0  0  0  0  0
    4.4172   -6.0259    1.7174 O   0  0  0  0  0  0  0  0  0  0  0  0
    3.7700   -6.3339    3.0540 O   0  0  0  0  0  0  0  0  0  0  0  0
   -2.1872   -6.9066    2.9684 H   0  0  0  0  0  0  0  0  0  0  0  0
   -2.1589   -7.9753    4.3657 H   0  0  0  0  0  0  0  0  0  0  0  0
   -2.0853   -8.6471    2.7428 H   0  0  0  0  0  0  0  0  0  0  0  0
    0.1522   -8.6823    3.7942 H   0  0  0  0  0  0  0  0  0  0  0  0
   -0.1972   -5.6581    4.0399 H   0  0  0  0  0  0  0  0  0  0  0  0
   -0.0923   -6.8042    5.3552 H   0  0  0  0  0  0  0  0  0  0  0  0
    2.0811   -5.6291    4.9787 H   0  0  0  0  0  0  0  0  0  0  0  0
    2.2219   -7.3593    4.7796 H   0  0  0  0  0  0  0  0  0  0  0  0
    2.2414   -7.2584    0.9717 H   0  0  0  0  0  0  0  0  0  0  0  0
    2.3266   -8.3520    2.3289 H   0  0  0  0  0  0  0  0  0  0  0  0
    0.0623   -8.3622    1.3566 H   0  0  0  0  0  0  0  0  0  0  0  0
   -0.0845   -6.6382    1.5370 H   0  0  0  0  0  0  0  0  0  0  0  0
    5.5885   -5.1697   -0.3517 H   0  0  0  0  0  0  0  0  0  0  0  0
    4.0555   -4.9905   -1.0287 H   0  0  0  0  0  0  0  0  0  0  0  0
    5.8040   -2.0656   -2.6979 H   0  0  0  0  0  0  0  0  0  0  0  0
    5.1433   -3.6812   -2.8708 H   0  0  0  0  0  0  0  0  0  0  0  0
    6.7728   -3.4562   -2.2396 H   0  0  0  0  0  0  0  0  0  0  0  0
    7.0754   -1.9920    0.2540 H   0  0  0  0  0  0  0  0  0  0  0  0
    6.1690   -0.8423   -0.6570 H   0  0  0  0  0  0  0  0  0  0  0  0
    5.7734   -0.0649    1.7931 H   0  0  0  0  0  0  0  0  0  0  0  0
    3.2578   -0.4718    1.8268 H   0  0  0  0  0  0  0  0  0  0  0  0
    3.8455   -0.1261    0.2124 H   0  0  0  0  0  0  0  0  0  0  0  0
    2.7891   -2.5136    1.0607 H   0  0  0  0  0  0  0  0  0  0  0  0
    5.9384   -4.0047    1.4058 H   0  0  0  0  0  0  0  0  0  0  0  0
    6.1887   -3.0896    1.8877 H   0  0  0  0  0  0  0  0  0  0  0  0
    4.8950   -4.2099    3.4154 H   0  0  0  0  0  0  0  0  0  0  0  0
    5.6836   -1.9650    3.5959 H   0  0  0  0  0  0  0  0  0  0  0  0
    4.0723   -1.4804    3.4947 H   0  0  0  0  0  0  0  0  0  0  0  0
    3.7463   -1.4828   -1.3246 H   0  0  0  0  0  0  0  0  0  0  0  0
    3.0640   -3.0794   -1.1659 H   0  0  0  0  0  0  0  0  0  0  0  0
  1  2  1  0
  1 24  1  0
  1 25  1  0
  1 26  1  0
  2  7  1  0
  2  3  1  0
  2 27  1  1
  3  4  1  0
  3 28  1  0
  3 29  1  0
  4  5  1  0
  4 30  1  0
  4 31  1  0
  5 23  1  0
  5  6  1  0
  5  8  1  0
  6  7  1  0
  6 32  1  0
  6 33  1  0
  7 34  1  0
  7 35  1  0
  8  9  1  0
 10  9  1  6
 10 19  1  0
 10 11  1  0
 10 22  1  0
 11 12  1  0
 11 36  1  0
 11 37  1  0
 12 21  1  0
 12 13  1  6
 12 14  1  0
 13 38  1  0
 13 39  1  0
 13 40  1  0
 14 15  1  0
 14 41  1  0
 14 42  1  0
 15 20  1  0
 15 16  1  0
 15 43  1  1
 16 17  1  0
 16 44  1  0
 16 45  1  0
 17 18  1  0
 17 21  1  0
 17 46  1  1
 18 19  1  0
 18 47  1  0
 18 48  1  0
 19 20  1  0
 19 49  1  1
 20 50  1  0
 20 51  1  0
 21 52  1  0
 21 53  1  0
 22 23  1  0
M  END
>  <i_m_ct_stereo_status>  (405) 
1

>  <s_m_source_file>  (405) 
/var/tmp/pbs.5076255.sched01/tmp277fsmq3/144xeprw1xa.sdf

>  <i_m_source_file_index>  (405) 
23

>  <i_lp_mmshare_version>  (405) 
48012

>  <i_f3d_flags>  (405) 
0

>  <s_epik_input>  (405) 
W0NIMl0xW0NIMl1bQ0hdKFtDSDNdKVtDSDJdW0NIMl1bQ0BdMTJPT0MzKE9PMilbQ0BASF00W0NIMl1bQ0BIXTVbQ0gyXVtDQEBIXShbQ0gyXTQpW0NIMl1bQ0BdKFtDSDJdMykoW0NIM10pW0NIMl01

>  <s_epik_cmdline>  (405) 
J2VwaWtfcHl0aG9uJywgJy1waHQnLCAnMi4wJywgJy1waCcsICc3LjAnLCAnLXRuJywgJzgnLCAnLW1hJywgJzIwMCcsICctaW1hZScsICc8aW5maWxlLm1hZT4nLCAnLW9tYWUnLCAnPG91dGZpbGUubWFlPic=

>  <r_lp_tautomer_probability>  (405) 
1

>  <r_epik_Ionization_Penalty>  (405) 
0

>  <r_epik_Ionization_Penalty_Charging>  (405) 
0

>  <r_epik_Ionization_Penalty_Neutral>  (405) 
0

>  <r_epik_State_Penalty>  (405) 
-0

>  <r_epik_Charging_Adjusted_Penalty>  (405) 
0

>  <i_epik_Tot_Q>  (405) 
0

>  <i_epik_Tot_abs_Q>  (405) 
0

>  <s_lp_Force_Field>  (405) 
OPLS3e

>  <r_lp_Energy>  (405) 
508.995

>  <b_lp_Chiralities_Consistent>  (405) 
1

>  <s_lp_Variant>  (405) 
98:0-2

>  <s_i_glide_gridfile>  (405) 
pfpi4k_grid

>  <i_i_glide_lignum>  (405) 
23

>  <i_i_glide_rotatable_bonds>  (405) 
0

>  <r_i_docking_score>  (405) 
-2.97498

>  <r_i_glide_ligand_efficiency>  (405) 
-0.129347

>  <r_i_glide_ligand_efficiency_sa>  (405) 
-0.367845

>  <r_i_glide_ligand_efficiency_ln>  (405) 
-0.719377

>  <r_i_glide_gscore>  (405) 
-2.97498

>  <r_i_glide_lipo>  (405) 
-0.405982

>  <r_i_glide_hbond>  (405) 
0

>  <r_i_glide_metal>  (405) 
-0

>  <r_i_glide_rewards>  (405) 
-1.23514

>  <r_i_glide_evdw>  (405) 
-27.13

>  <r_i_glide_ecoul>  (405) 
0.182591

>  <r_i_glide_erotb>  (405) 
0

>  <r_i_glide_esite>  (405) 
-0.00474491

>  <r_i_glide_emodel>  (405) 
-31.9667

>  <r_i_glide_energy>  (405) 
-26.9474

>  <r_i_glide_einternal>  (405) 
0

>  <r_i_glide_intrahb_reward>  (405) 
-0

>  <i_i_glide_confnum>  (405) 
1

>  <i_i_glide_posenum>  (405) 
10

>  <r_i_glide_eff_state_penalty>  (405) 
0

>  <ligand_id>  (405) 
98

>  <original_smiles>  (405) 
CC1CCC2(CC1)OOC1(CC3(C)CC4CC(CC1C4)C3)OO2

>  <smiles>  (405) 
[H]C([H])([H])C1([H])C([H])([H])C([H])([H])C2(OOC3(OO2)C([H])([H])C2(C([H])([H])[H])C([H])([H])C4([H])C([H])([H])C([H])(C([H])([H])C3([H])C4([H])[H])C2([H])[H])C([H])([H])C1([H])[H]

$$$$
98:1:2
     RDKit          3D

 53 57  0  0  1  0  0  0  0  0999 V2000
    5.4917   -2.8216   -1.5990 C   0  0  0  0  0  0  0  0  0  0  0  0
    5.2647   -2.6157   -0.0928 C   0  0  2  0  0  0  0  0  0  0  0  0
    6.0927   -3.6112    0.7414 C   0  0  0  0  0  0  0  0  0  0  0  0
    5.5759   -5.0496    0.5749 C   0  0  0  0  0  0  0  0  0  0  0  0
    4.0717   -5.1337    0.9221 C   0  0  0  0  0  0  0  0  0  0  0  0
    3.2368   -4.1337    0.0939 C   0  0  0  0  0  0  0  0  0  0  0  0
    3.7719   -2.7079    0.2726 C   0  0  0  0  0  0  0  0  0  0  0  0
    3.6499   -6.4678    0.6509 O   0  0  0  0  0  0  0  0  0  0  0  0
    2.2171   -6.6192    1.1088 O   0  0  0  0  0  0  0  0  0  0  0  0
    2.1770   -6.3893    2.5240 C   0  0  1  0  0  0  0  0  0  0  0  0
    0.4821   -6.4724    2.9946 C   0  0  0  0  0  0  0  0  0  0  0  0
   -0.1175   -7.9197    3.6971 C   0  0  2  0  0  0  0  0  0  0  0  0
   -1.6225   -7.7492    3.9790 C   0  0  0  0  0  0  0  0  0  0  0  0
    0.5479   -9.0041    4.9039 C   0  0  0  0  0  0  0  0  0  0  0  0
    2.0872   -9.7764    4.5557 C   0  0  1  0  0  0  0  0  0  0  0  0
    1.8747  -10.2307    3.1802 C   0  0  0  0  0  0  0  0  0  0  0  0
    1.6278   -8.7867    2.7342 C   0  0  2  0  0  0  0  0  0  0  0  0
    2.3494   -7.5531    3.9396 C   0  0  0  0  0  0  0  0  0  0  0  0
    3.4337   -7.3532    3.3141 C   0  0  1  0  0  0  0  0  0  0  0  0
    3.5679   -8.8898    4.1411 C   0  0  0  0  0  0  0  0  0  0  0  0
    0.1217   -8.7139    2.4870 C   0  0  0  0  0  0  0  0  0  0  0  0
    2.5369   -5.0204    2.7667 O   0  0  0  0  0  0  0  0  0  0  0  0
    3.9629   -4.8303    2.3145 O   0  0  0  0  0  0  0  0  0  0  0  0
    5.1590   -3.8050   -1.9296 H   0  0  0  0  0  0  0  0  0  0  0  0
    6.5475   -2.7453   -1.8553 H   0  0  0  0  0  0  0  0  0  0  0  0
    4.9346   -2.0881   -2.1809 H   0  0  0  0  0  0  0  0  0  0  0  0
    5.6045   -1.6123    0.1550 H   0  0  0  0  0  0  0  0  0  0  0  0
    7.1425   -3.5637    0.4566 H   0  0  0  0  0  0  0  0  0  0  0  0
    6.0555   -3.3347    1.7985 H   0  0  0  0  0  0  0  0  0  0  0  0
    5.7181   -5.3903   -0.4470 H   0  0  0  0  0  0  0  0  0  0  0  0
    6.1474   -5.7429    1.1982 H   0  0  0  0  0  0  0  0  0  0  0  0
    3.2710   -4.4319   -0.9504 H   0  0  0  0  0  0  0  0  0  0  0  0
    2.1816   -4.1782    0.3736 H   0  0  0  0  0  0  0  0  0  0  0  0
    3.6215   -2.3970    1.3102 H   0  0  0  0  0  0  0  0  0  0  0  0
    3.1840   -2.0239   -0.3381 H   0  0  0  0  0  0  0  0  0  0  0  0
    0.2949   -5.6760    3.7108 H   0  0  0  0  0  0  0  0  0  0  0  0
   -0.1175   -6.1682    2.1427 H   0  0  0  0  0  0  0  0  0  0  0  0
   -2.1010   -8.7136    4.1425 H   0  0  0  0  0  0  0  0  0  0  0  0
   -2.1430   -7.2677    3.1522 H   0  0  0  0  0  0  0  0  0  0  0  0
   -1.7810   -7.1502    4.8737 H   0  0  0  0  0  0  0  0  0  0  0  0
    0.5947   -8.4925    5.8658 H   0  0  0  0  0  0  0  0  0  0  0  0
   -0.1747   -9.8089    5.0680 H   0  0  0  0  0  0  0  0  0  0  0  0
    2.2985  -10.6093    5.2333 H   0  0  0  0  0  0  0  0  0  0  0  0
    2.7551  -10.6920    2.7260 H   0  0  0  0  0  0  0  0  0  0  0  0
    1.0600  -10.9478    3.0960 H   0  0  0  0  0  0  0  0  0  0  0  0
    2.1069   -8.7889    1.7511 H   0  0  0  0  0  0  0  0  0  0  0  0
    1.9514   -6.7150    4.5686 H   0  0  0  0  0  0  0  0  0  0  0  0
    2.3690   -7.5564    5.0668 H   0  0  0  0  0  0  0  0  0  0  0  0
    4.1091   -6.6825    3.8498 H   0  0  0  0  0  0  0  0  0  0  0  0
    4.1209   -8.7279    5.0760 H   0  0  0  0  0  0  0  0  0  0  0  0
    4.2802   -9.5177    3.5923 H   0  0  0  0  0  0  0  0  0  0  0  0
   -0.4194   -9.6594    2.4908 H   0  0  0  0  0  0  0  0  0  0  0  0
   -0.1262   -8.2256    1.5436 H   0  0  0  0  0  0  0  0  0  0  0  0
  1  2  1  0
  1 24  1  0
  1 25  1  0
  1 26  1  0
  2  7  1  0
  2  3  1  0
  2 27  1  1
  3  4  1  0
  3 28  1  0
  3 29  1  0
  4  5  1  0
  4 30  1  0
  4 31  1  0
  5 23  1  0
  5  6  1  0
  5  8  1  0
  6  7  1  0
  6 32  1  0
  6 33  1  0
  7 34  1  0
  7 35  1  0
  8  9  1  0
 10  9  1  6
 10 19  1  0
 10 11  1  0
 10 22  1  0
 11 12  1  0
 11 36  1  0
 11 37  1  0
 12 21  1  0
 12 13  1  1
 12 14  1  0
 13 38  1  0
 13 39  1  0
 13 40  1  0
 14 15  1  0
 14 41  1  0
 14 42  1  0
 15 20  1  0
 15 16  1  0
 15 43  1  1
 16 17  1  0
 16 44  1  0
 16 45  1  0
 17 18  1  0
 17 21  1  0
 17 46  1  6
 18 19  1  0
 18 47  1  0
 18 48  1  0
 19 20  1  0
 19 49  1  1
 20 50  1  0
 20 51  1  0
 21 52  1  0
 21 53  1  0
 22 23  1  0
M  END
>  <i_m_ct_stereo_status>  (406) 
1

>  <s_m_source_file>  (406) 
/var/tmp/pbs.5076255.sched01/tmp277fsmq3/144xeprw1xa.sdf

>  <i_m_source_file_index>  (406) 
23

>  <i_lp_mmshare_version>  (406) 
48012

>  <i_f3d_flags>  (406) 
0

>  <s_epik_input>  (406) 
W0NIMl0xW0NIMl1bQ0hdKFtDSDNdKVtDSDJdW0NIMl1bQ0BdMTJPT0MzKE9PMilbQ0BASF00W0NIMl1bQ0BIXTVbQ0gyXVtDQEBIXShbQ0gyXTQpW0NIMl1bQ0BdKFtDSDJdMykoW0NIM10pW0NIMl01

>  <s_epik_cmdline>  (406) 
J2VwaWtfcHl0aG9uJywgJy1waHQnLCAnMi4wJywgJy1waCcsICc3LjAnLCAnLXRuJywgJzgnLCAnLW1hJywgJzIwMCcsICctaW1hZScsICc8aW5maWxlLm1hZT4nLCAnLW9tYWUnLCAnPG91dGZpbGUubWFlPic=

>  <r_lp_tautomer_probability>  (406) 
1

>  <r_epik_Ionization_Penalty>  (406) 
0

>  <r_epik_Ionization_Penalty_Charging>  (406) 
0

>  <r_epik_Ionization_Penalty_Neutral>  (406) 
0

>  <r_epik_State_Penalty>  (406) 
-0

>  <r_epik_Charging_Adjusted_Penalty>  (406) 
0

>  <i_epik_Tot_Q>  (406) 
0

>  <i_epik_Tot_abs_Q>  (406) 
0

>  <s_lp_Force_Field>  (406) 
OPLS3e

>  <r_lp_Energy>  (406) 
508.995

>  <b_lp_Chiralities_Consistent>  (406) 
1

>  <s_lp_Variant>  (406) 
98:0-2

>  <s_i_glide_gridfile>  (406) 
pfpi4k_grid

>  <i_i_glide_lignum>  (406) 
23

>  <i_i_glide_rotatable_bonds>  (406) 
0

>  <r_i_docking_score>  (406) 
-2.87767

>  <r_i_glide_ligand_efficiency>  (406) 
-0.125116

>  <r_i_glide_ligand_efficiency_sa>  (406) 
-0.355814

>  <r_i_glide_ligand_efficiency_ln>  (406) 
-0.695847

>  <r_i_glide_gscore>  (406) 
-2.87767

>  <r_i_glide_lipo>  (406) 
-0.254523

>  <r_i_glide_hbond>  (406) 
0

>  <r_i_glide_metal>  (406) 
-0

>  <r_i_glide_rewards>  (406) 
-1.25015

>  <r_i_glide_evdw>  (406) 
-26.0082

>  <r_i_glide_ecoul>  (406) 
-0.419916

>  <r_i_glide_erotb>  (406) 
0

>  <r_i_glide_esite>  (406) 
-0.00959805

>  <r_i_glide_emodel>  (406) 
-31.0751

>  <r_i_glide_energy>  (406) 
-26.4281

>  <r_i_glide_einternal>  (406) 
0

>  <r_i_glide_intrahb_reward>  (406) 
-0

>  <i_i_glide_confnum>  (406) 
3

>  <i_i_glide_posenum>  (406) 
11

>  <r_i_glide_eff_state_penalty>  (406) 
0

>  <ligand_id>  (406) 
98

>  <original_smiles>  (406) 
CC1CCC2(CC1)OOC1(CC3(C)CC4CC(CC1C4)C3)OO2

>  <smiles>  (406) 
[H]C([H])([H])C1([H])C([H])([H])C([H])([H])C2(OOC3(OO2)C([H])([H])C2(C([H])([H])[H])C([H])([H])C4([H])C([H])([H])C([H])(C([H])([H])C3([H])C4([H])[H])C2([H])[H])C([H])([H])C1([H])[H]

$$$$
99:0:0
     RDKit          3D

 20 22  0  0  1  0  0  0  0  0999 V2000
    4.4279   -4.1160   -0.2928 C   0  0  0  0  0  0  0  0  0  0  0  0
    3.2036   -3.5454   -0.4953 C   0  0  0  0  0  0  0  0  0  0  0  0
    2.2191   -4.3342    0.0170 O   0  0  0  0  0  0  0  0  0  0  0  0
    2.8250   -5.4274    0.5667 C   0  0  0  0  0  0  0  0  0  0  0  0
    1.9690   -6.4334    1.1934 C   0  0  0  0  0  0  0  0  0  0  0  0
    0.6147   -6.2632    1.2764 N   0  0  0  0  0  0  0  0  0  0  0  0
    0.2362   -7.3875    1.8907 C   0  0  0  0  0  0  0  0  0  0  0  0
   -0.9879   -7.7811    2.2811 N   0  0  0  0  0  0  0  0  0  0  0  0
   -1.0685   -8.9682    2.8803 C   0  0  0  0  0  0  0  0  0  0  0  0
    0.0435   -9.8018    3.1499 C   0  0  0  0  0  0  0  0  0  0  0  0
    1.2957   -9.3852    2.7619 C   0  0  0  0  0  0  0  0  0  0  0  0
    1.3778   -8.1784    2.1361 N   0  0  0  0  0  0  0  0  0  0  0  0
    2.4921   -7.5492    1.6824 N   0  0  0  0  0  0  0  0  0  0  0  0
    4.1816   -5.3372    0.3973 C   0  0  0  0  0  0  0  0  0  0  0  0
    5.3773   -3.7074   -0.6046 H   0  0  0  0  0  0  0  0  0  0  0  0
    2.8662   -2.6319   -0.9656 H   0  0  0  0  0  0  0  0  0  0  0  0
   -2.0602   -9.2971    3.1811 H   0  0  0  0  0  0  0  0  0  0  0  0
   -0.0923  -10.7509    3.6619 H   0  0  0  0  0  0  0  0  0  0  0  0
    2.2114   -9.9445    2.9258 H   0  0  0  0  0  0  0  0  0  0  0  0
    4.9021   -6.0702    0.7293 H   0  0  0  0  0  0  0  0  0  0  0  0
  1 14  1  0
  1  2  2  0
  1 15  1  0
  2  3  1  0
  2 16  1  0
  3  4  1  0
  4  5  1  0
  4 14  2  0
  5 13  2  0
  5  6  1  0
  6  7  2  0
  7 12  1  0
  7  8  1  0
  8  9  2  0
  9 10  1  0
  9 17  1  0
 10 11  2  0
 10 18  1  0
 11 12  1  0
 11 19  1  0
 12 13  1  0
 14 20  1  0
M  END
>  <i_m_ct_stereo_status>  (407) 
1

>  <s_m_source_file>  (407) 
/var/tmp/pbs.5076255.sched01/tmp277fsmq3/144xeprw1xa.sdf

>  <i_m_source_file_index>  (407) 
24

>  <i_lp_mmshare_version>  (407) 
48012

>  <i_f3d_flags>  (407) 
0

>  <s_epik_input>  (407) 
W2NIXTFbY0hdW2NIXW9jMS1jKG4yKW5uKGMyMylbY0hdW2NIXVtjSF1uMw==

>  <s_epik_cmdline>  (407) 
J2VwaWtfcHl0aG9uJywgJy1waHQnLCAnMi4wJywgJy1waCcsICc3LjAnLCAnLXRuJywgJzgnLCAnLW1hJywgJzIwMCcsICctaW1hZScsICc8aW5maWxlLm1hZT4nLCAnLW9tYWUnLCAnPG91dGZpbGUubWFlPic=

>  <r_lp_tautomer_probability>  (407) 
1

>  <r_epik_Ionization_Penalty>  (407) 
6.88699e-08

>  <r_epik_Ionization_Penalty_Charging>  (407) 
0

>  <r_epik_Ionization_Penalty_Neutral>  (407) 
6.88699e-08

>  <r_epik_State_Penalty>  (407) 
-0

>  <r_epik_Charging_Adjusted_Penalty>  (407) 
0

>  <i_epik_Tot_Q>  (407) 
0

>  <i_epik_Tot_abs_Q>  (407) 
0

>  <s_lp_Force_Field>  (407) 
OPLS3e

>  <r_lp_Energy>  (407) 
16.7136

>  <b_lp_Chiralities_Consistent>  (407) 
1

>  <s_lp_Variant>  (407) 
99:0-1

>  <s_i_glide_gridfile>  (407) 
pfpi4k_grid

>  <i_i_glide_lignum>  (407) 
24

>  <i_i_glide_rotatable_bonds>  (407) 
1

>  <r_i_docking_score>  (407) 
-3.96841

>  <r_i_glide_ligand_efficiency>  (407) 
-0.283458

>  <r_i_glide_ligand_efficiency_sa>  (407) 
-0.683173

>  <r_i_glide_ligand_efficiency_ln>  (407) 
-1.0905

>  <r_i_glide_gscore>  (407) 
-3.96841

>  <r_i_glide_lipo>  (407) 
-0.114675

>  <r_i_glide_hbond>  (407) 
-0.161261

>  <r_i_glide_metal>  (407) 
-0

>  <r_i_glide_rewards>  (407) 
-2.13975

>  <r_i_glide_evdw>  (407) 
-19.4506

>  <r_i_glide_ecoul>  (407) 
-6.03428

>  <r_i_glide_erotb>  (407) 
0.459866

>  <r_i_glide_esite>  (407) 
-0.134914

>  <r_i_glide_emodel>  (407) 
-33.2172

>  <r_i_glide_energy>  (407) 
-25.4849

>  <r_i_glide_einternal>  (407) 
0.0157811

>  <r_i_glide_intrahb_reward>  (407) 
-0

>  <i_i_glide_confnum>  (407) 
1

>  <i_i_glide_posenum>  (407) 
1

>  <r_i_glide_eff_state_penalty>  (407) 
0

>  <ligand_id>  (407) 
99

>  <original_smiles>  (407) 
c1coc(-c2nc3ncccn3n2)c1

>  <smiles>  (407) 
[H]c1nc2nc(-c3oc([H])c([H])c3[H])nn2c([H])c1[H]

$$$$
99:0:1
     RDKit          3D

 20 22  0  0  1  0  0  0  0  0999 V2000
    3.2413   -0.9126   -4.0669 C   0  0  0  0  0  0  0  0  0  0  0  0
    4.0578   -0.3332   -3.1413 C   0  0  0  0  0  0  0  0  0  0  0  0
    4.2023   -1.1283   -2.0526 O   0  0  0  0  0  0  0  0  0  0  0  0
    3.4081   -2.2204   -2.2549 C   0  0  0  0  0  0  0  0  0  0  0  0
    3.3710   -3.2070   -1.1789 C   0  0  0  0  0  0  0  0  0  0  0  0
    2.2168   -3.8519   -0.8622 N   0  0  0  0  0  0  0  0  0  0  0  0
    2.6186   -4.6712    0.1091 C   0  0  0  0  0  0  0  0  0  0  0  0
    1.9148   -5.5678    0.8304 N   0  0  0  0  0  0  0  0  0  0  0  0
    2.5887   -6.2415    1.7580 C   0  0  0  0  0  0  0  0  0  0  0  0
    3.9693   -6.0725    2.0234 C   0  0  0  0  0  0  0  0  0  0  0  0
    4.6805   -5.1588    1.2787 C   0  0  0  0  0  0  0  0  0  0  0  0
    3.9962   -4.4661    0.3325 N   0  0  0  0  0  0  0  0  0  0  0  0
    4.4704   -3.5047   -0.4968 N   0  0  0  0  0  0  0  0  0  0  0  0
    2.8105   -2.1423   -3.4872 C   0  0  0  0  0  0  0  0  0  0  0  0
    2.9809   -0.4839   -5.0231 H   0  0  0  0  0  0  0  0  0  0  0  0
    4.5928    0.6022   -3.0945 H   0  0  0  0  0  0  0  0  0  0  0  0
    2.0184   -6.9593    2.3425 H   0  0  0  0  0  0  0  0  0  0  0  0
    4.4657   -6.6453    2.7956 H   0  0  0  0  0  0  0  0  0  0  0  0
    5.7381   -4.9464    1.4047 H   0  0  0  0  0  0  0  0  0  0  0  0
    2.1387   -2.8786   -3.9076 H   0  0  0  0  0  0  0  0  0  0  0  0
  1 14  1  0
  1  2  2  0
  1 15  1  0
  2  3  1  0
  2 16  1  0
  3  4  1  0
  4  5  1  0
  4 14  2  0
  5 13  2  0
  5  6  1  0
  6  7  2  0
  7 12  1  0
  7  8  1  0
  8  9  2  0
  9 10  1  0
  9 17  1  0
 10 11  2  0
 10 18  1  0
 11 12  1  0
 11 19  1  0
 12 13  1  0
 14 20  1  0
M  END
>  <i_m_ct_stereo_status>  (408) 
1

>  <s_m_source_file>  (408) 
/var/tmp/pbs.5076255.sched01/tmp277fsmq3/144xeprw1xa.sdf

>  <i_m_source_file_index>  (408) 
24

>  <i_lp_mmshare_version>  (408) 
48012

>  <i_f3d_flags>  (408) 
0

>  <s_epik_input>  (408) 
W2NIXTFbY0hdW2NIXW9jMS1jKG4yKW5uKGMyMylbY0hdW2NIXVtjSF1uMw==

>  <s_epik_cmdline>  (408) 
J2VwaWtfcHl0aG9uJywgJy1waHQnLCAnMi4wJywgJy1waCcsICc3LjAnLCAnLXRuJywgJzgnLCAnLW1hJywgJzIwMCcsICctaW1hZScsICc8aW5maWxlLm1hZT4nLCAnLW9tYWUnLCAnPG91dGZpbGUubWFlPic=

>  <r_lp_tautomer_probability>  (408) 
1

>  <r_epik_Ionization_Penalty>  (408) 
6.88699e-08

>  <r_epik_Ionization_Penalty_Charging>  (408) 
0

>  <r_epik_Ionization_Penalty_Neutral>  (408) 
6.88699e-08

>  <r_epik_State_Penalty>  (408) 
-0

>  <r_epik_Charging_Adjusted_Penalty>  (408) 
0

>  <i_epik_Tot_Q>  (408) 
0

>  <i_epik_Tot_abs_Q>  (408) 
0

>  <s_lp_Force_Field>  (408) 
OPLS3e

>  <r_lp_Energy>  (408) 
16.7136

>  <b_lp_Chiralities_Consistent>  (408) 
1

>  <s_lp_Variant>  (408) 
99:0-1

>  <s_i_glide_gridfile>  (408) 
pfpi4k_grid

>  <i_i_glide_lignum>  (408) 
24

>  <i_i_glide_rotatable_bonds>  (408) 
1

>  <r_i_docking_score>  (408) 
-3.78421

>  <r_i_glide_ligand_efficiency>  (408) 
-0.270301

>  <r_i_glide_ligand_efficiency_sa>  (408) 
-0.651463

>  <r_i_glide_ligand_efficiency_ln>  (408) 
-1.03989

>  <r_i_glide_gscore>  (408) 
-3.78421

>  <r_i_glide_lipo>  (408) 
-0.639416

>  <r_i_glide_hbond>  (408) 
-0.0688183

>  <r_i_glide_metal>  (408) 
-0

>  <r_i_glide_rewards>  (408) 
-2.20809

>  <r_i_glide_evdw>  (408) 
-19.4115

>  <r_i_glide_ecoul>  (408) 
-2.06392

>  <r_i_glide_erotb>  (408) 
0.459866

>  <r_i_glide_esite>  (408) 
-0.0475836

>  <r_i_glide_emodel>  (408) 
-27.317

>  <r_i_glide_energy>  (408) 
-21.4754

>  <r_i_glide_einternal>  (408) 
2.57756

>  <r_i_glide_intrahb_reward>  (408) 
-0

>  <i_i_glide_confnum>  (408) 
4

>  <i_i_glide_posenum>  (408) 
4

>  <r_i_glide_eff_state_penalty>  (408) 
0

>  <ligand_id>  (408) 
99

>  <original_smiles>  (408) 
c1coc(-c2nc3ncccn3n2)c1

>  <smiles>  (408) 
[H]c1nc2nc(-c3oc([H])c([H])c3[H])nn2c([H])c1[H]

$$$$
99:0:2
     RDKit          3D

 20 22  0  0  1  0  0  0  0  0999 V2000
   -0.3176   -9.4785    3.1448 C   0  0  0  0  0  0  0  0  0  0  0  0
   -1.1673   -8.5350    2.6428 C   0  0  0  0  0  0  0  0  0  0  0  0
   -0.4672   -7.5387    2.0293 O   0  0  0  0  0  0  0  0  0  0  0  0
    0.8594   -7.8672    2.1351 C   0  0  0  0  0  0  0  0  0  0  0  0
    1.8341   -6.9622    1.5382 C   0  0  0  0  0  0  0  0  0  0  0  0
    1.4352   -5.8616    0.8439 N   0  0  0  0  0  0  0  0  0  0  0  0
    2.6026   -5.3154    0.4987 C   0  0  0  0  0  0  0  0  0  0  0  0
    2.8537   -4.1804   -0.1774 N   0  0  0  0  0  0  0  0  0  0  0  0
    4.1324   -3.8873   -0.3928 C   0  0  0  0  0  0  0  0  0  0  0  0
    5.2213   -4.6732    0.0624 C   0  0  0  0  0  0  0  0  0  0  0  0
    4.9519   -5.8237    0.7720 C   0  0  0  0  0  0  0  0  0  0  0  0
    3.6442   -6.1315    0.9854 N   0  0  0  0  0  0  0  0  0  0  0  0
    3.1355   -7.1895    1.6641 N   0  0  0  0  0  0  0  0  0  0  0  0
    0.9948   -9.0468    2.8148 C   0  0  0  0  0  0  0  0  0  0  0  0
   -0.5949  -10.3731    3.6790 H   0  0  0  0  0  0  0  0  0  0  0  0
   -2.2430   -8.4300    2.6385 H   0  0  0  0  0  0  0  0  0  0  0  0
    4.3256   -2.9833   -0.9608 H   0  0  0  0  0  0  0  0  0  0  0  0
    6.2445   -4.3849   -0.1440 H   0  0  0  0  0  0  0  0  0  0  0  0
    5.7033   -6.4963    1.1690 H   0  0  0  0  0  0  0  0  0  0  0  0
    1.9302   -9.5423    3.0380 H   0  0  0  0  0  0  0  0  0  0  0  0
  1 14  1  0
  1  2  2  0
  1 15  1  0
  2  3  1  0
  2 16  1  0
  3  4  1  0
  4  5  1  0
  4 14  2  0
  5 13  2  0
  5  6  1  0
  6  7  2  0
  7 12  1  0
  7  8  1  0
  8  9  2  0
  9 10  1  0
  9 17  1  0
 10 11  2  0
 10 18  1  0
 11 12  1  0
 11 19  1  0
 12 13  1  0
 14 20  1  0
M  END
>  <i_m_ct_stereo_status>  (409) 
1

>  <s_m_source_file>  (409) 
/var/tmp/pbs.5076255.sched01/tmp277fsmq3/144xeprw1xa.sdf

>  <i_m_source_file_index>  (409) 
24

>  <i_lp_mmshare_version>  (409) 
48012

>  <i_f3d_flags>  (409) 
0

>  <s_epik_input>  (409) 
W2NIXTFbY0hdW2NIXW9jMS1jKG4yKW5uKGMyMylbY0hdW2NIXVtjSF1uMw==

>  <s_epik_cmdline>  (409) 
J2VwaWtfcHl0aG9uJywgJy1waHQnLCAnMi4wJywgJy1waCcsICc3LjAnLCAnLXRuJywgJzgnLCAnLW1hJywgJzIwMCcsICctaW1hZScsICc8aW5maWxlLm1hZT4nLCAnLW9tYWUnLCAnPG91dGZpbGUubWFlPic=

>  <r_lp_tautomer_probability>  (409) 
1

>  <r_epik_Ionization_Penalty>  (409) 
6.88699e-08

>  <r_epik_Ionization_Penalty_Charging>  (409) 
0

>  <r_epik_Ionization_Penalty_Neutral>  (409) 
6.88699e-08

>  <r_epik_State_Penalty>  (409) 
-0

>  <r_epik_Charging_Adjusted_Penalty>  (409) 
0

>  <i_epik_Tot_Q>  (409) 
0

>  <i_epik_Tot_abs_Q>  (409) 
0

>  <s_lp_Force_Field>  (409) 
OPLS3e

>  <r_lp_Energy>  (409) 
16.7136

>  <b_lp_Chiralities_Consistent>  (409) 
1

>  <s_lp_Variant>  (409) 
99:0-1

>  <s_i_glide_gridfile>  (409) 
pfpi4k_grid

>  <i_i_glide_lignum>  (409) 
24

>  <i_i_glide_rotatable_bonds>  (409) 
1

>  <r_i_docking_score>  (409) 
-3.51029

>  <r_i_glide_ligand_efficiency>  (409) 
-0.250735

>  <r_i_glide_ligand_efficiency_sa>  (409) 
-0.604308

>  <r_i_glide_ligand_efficiency_ln>  (409) 
-0.964616

>  <r_i_glide_gscore>  (409) 
-3.51029

>  <r_i_glide_lipo>  (409) 
-0.153976

>  <r_i_glide_hbond>  (409) 
-0.154328

>  <r_i_glide_metal>  (409) 
-0

>  <r_i_glide_rewards>  (409) 
-2.20024

>  <r_i_glide_evdw>  (409) 
-18.6276

>  <r_i_glide_ecoul>  (409) 
-3.03135

>  <r_i_glide_erotb>  (409) 
0.459866

>  <r_i_glide_esite>  (409) 
-0.0755367

>  <r_i_glide_emodel>  (409) 
-28.5001

>  <r_i_glide_energy>  (409) 
-21.659

>  <r_i_glide_einternal>  (409) 
0.00946043

>  <r_i_glide_intrahb_reward>  (409) 
-0

>  <i_i_glide_confnum>  (409) 
1

>  <i_i_glide_posenum>  (409) 
7

>  <r_i_glide_eff_state_penalty>  (409) 
0

>  <ligand_id>  (409) 
99

>  <original_smiles>  (409) 
c1coc(-c2nc3ncccn3n2)c1

>  <smiles>  (409) 
[H]c1nc2nc(-c3oc([H])c([H])c3[H])nn2c([H])c1[H]

$$$$
100:0:0
     RDKit          3D

 62 67  0  0  1  0  0  0  0  0999 V2000
    0.7160  -10.2561    5.7116 C   0  0  0  0  0  0  0  0  0  0  0  0
    0.6981  -11.2767    4.5634 C   0  0  0  0  0  0  0  0  0  0  0  0
    1.9541  -11.2376    3.6826 C   0  0  0  0  0  0  0  0  0  0  0  0
    2.2171   -9.8659    3.0502 C   0  0  0  0  0  0  0  0  0  0  0  0
    3.4804   -9.8674    2.1773 C   0  0  0  0  0  0  0  0  0  0  0  0
    3.9734   -8.4528    1.9282 C   0  0  0  0  0  0  0  0  0  0  0  0
    5.2655   -8.3520    1.0856 C   0  0  0  0  0  0  0  0  0  0  0  0
    6.0032   -6.9895    1.2338 C   0  0  0  0  0  0  0  0  0  0  0  0
    5.4031   -5.8651    0.4421 N   0  0  1  0  0  0  0  0  0  0  0  0
    3.9289   -5.8747    0.3188 C   0  0  0  0  0  0  0  0  0  0  0  0
    3.4396   -4.4534    0.0713 C   0  0  0  0  0  0  0  0  0  0  0  0
    4.6878   -3.5628    0.1937 C   0  0  2  0  0  0  0  0  0  0  0  0
    4.4921   -2.4949    1.2221 C   0  0  0  0  0  0  0  0  0  0  0  0
    5.0020   -2.8098    2.4747 C   0  0  0  0  0  0  0  0  0  0  0  0
    4.8279   -1.8962    3.5253 C   0  0  0  0  0  0  0  0  0  0  0  0
    4.1576   -0.6807    3.2402 C   0  0  0  0  0  0  0  0  0  0  0  0
    3.6610   -0.4044    1.9375 C   0  0  0  0  0  0  0  0  0  0  0  0
    2.9999    0.7693    1.6993 O   0  0  0  0  0  0  0  0  0  0  0  0
    3.8419   -1.3059    0.8742 C   0  0  0  0  0  0  0  0  0  0  0  0
    3.4246   -1.0725   -0.4079 O   0  0  0  0  0  0  0  0  0  0  0  0
    4.2415   -1.6317   -1.4522 C   0  0  2  0  0  0  0  0  0  0  0  0
    3.4221   -1.9769   -2.6648 C   0  0  1  0  0  0  0  0  0  0  0  0
    4.1361   -1.9785   -3.9062 O   0  0  0  0  0  0  0  0  0  0  0  0
    3.9288   -3.2461   -3.2664 C   0  0  1  0  0  0  0  0  0  0  0  0
    5.0506   -3.7875   -2.4055 C   0  0  0  0  0  0  0  0  0  0  0  0
    5.0995   -2.8945   -1.1395 C   0  0  2  0  0  0  0  0  0  0  0  0
    5.6071   -4.1933    2.3766 C   0  0  0  0  0  0  0  0  0  0  0  0
    5.7388   -4.4824    0.8512 C   0  0  1  0  0  0  0  0  0  0  0  0
   -0.1843  -10.3461    6.3189 H   0  0  0  0  0  0  0  0  0  0  0  0
    0.7461   -9.2312    5.3465 H   0  0  0  0  0  0  0  0  0  0  0  0
    1.5801  -10.4096    6.3595 H   0  0  0  0  0  0  0  0  0  0  0  0
    0.5999  -12.2792    4.9791 H   0  0  0  0  0  0  0  0  0  0  0  0
   -0.1859  -11.1146    3.9484 H   0  0  0  0  0  0  0  0  0  0  0  0
    2.8221  -11.5287    4.2747 H   0  0  0  0  0  0  0  0  0  0  0  0
    1.8663  -11.9817    2.8895 H   0  0  0  0  0  0  0  0  0  0  0  0
    1.3427   -9.5467    2.4738 H   0  0  0  0  0  0  0  0  0  0  0  0
    2.3456   -9.1184    3.8321 H   0  0  0  0  0  0  0  0  0  0  0  0
    4.2694  -10.4868    2.6227 H   0  0  0  0  0  0  0  0  0  0  0  0
    3.2148  -10.2594    1.2001 H   0  0  0  0  0  0  0  0  0  0  0  0
    3.1478   -7.9878    1.4081 H   0  0  0  0  0  0  0  0  0  0  0  0
    4.1099   -7.9309    2.8792 H   0  0  0  0  0  0  0  0  0  0  0  0
    5.9623   -9.1424    1.3734 H   0  0  0  0  0  0  0  0  0  0  0  0
    5.0162   -8.5498    0.0438 H   0  0  0  0  0  0  0  0  0  0  0  0
    6.0955   -6.7585    2.2989 H   0  0  0  0  0  0  0  0  0  0  0  0
    7.0381   -7.0973    0.9012 H   0  0  0  0  0  0  0  0  0  0  0  0
    3.6339   -6.5926   -0.4361 H   0  0  0  0  0  0  0  0  0  0  0  0
    3.5017   -6.1499    1.2659 H   0  0  0  0  0  0  0  0  0  0  0  0
    2.8807   -4.3533   -0.8595 H   0  0  0  0  0  0  0  0  0  0  0  0
    2.7347   -4.2477    0.8735 H   0  0  0  0  0  0  0  0  0  0  0  0
    5.1763   -2.1101    4.5265 H   0  0  0  0  0  0  0  0  0  0  0  0
    3.9982    0.0442    4.0155 H   0  0  0  0  0  0  0  0  0  0  0  0
    2.5377    0.7695    0.8729 H   0  0  0  0  0  0  0  0  0  0  0  0
    4.9039   -0.8242   -1.7442 H   0  0  0  0  0  0  0  0  0  0  0  0
    2.3738   -1.6837   -2.7144 H   0  0  0  0  0  0  0  0  0  0  0  0
    3.3016   -3.9277   -3.8297 H   0  0  0  0  0  0  0  0  0  0  0  0
    4.9073   -4.8491   -2.1893 H   0  0  0  0  0  0  0  0  0  0  0  0
    5.9748   -3.7018   -2.9702 H   0  0  0  0  0  0  0  0  0  0  0  0
    6.1212   -2.5512   -0.9958 H   0  0  0  0  0  0  0  0  0  0  0  0
    6.5829   -4.2868    2.8463 H   0  0  0  0  0  0  0  0  0  0  0  0
    4.9358   -4.8879    2.8844 H   0  0  0  0  0  0  0  0  0  0  0  0
    6.7486   -4.2262    0.5203 H   0  0  0  0  0  0  0  0  0  0  0  0
    5.7675   -5.9739   -0.5047 H   0  0  0  0  0  0  0  0  0  0  0  0
  1  2  1  0
  1 29  1  0
  1 30  1  0
  1 31  1  0
  2  3  1  0
  2 32  1  0
  2 33  1  0
  3  4  1  0
  3 34  1  0
  3 35  1  0
  4  5  1  0
  4 36  1  0
  4 37  1  0
  5  6  1  0
  5 38  1  0
  5 39  1  0
  6  7  1  0
  6 40  1  0
  6 41  1  0
  7  8  1  0
  7 42  1  0
  7 43  1  0
  8  9  1  0
  8 44  1  0
  8 45  1  0
  9 28  1  0
  9 10  1  0
  9 62  1  6
 10 11  1  0
 10 46  1  0
 10 47  1  0
 12 11  1  6
 11 48  1  0
 11 49  1  0
 12 26  1  0
 12 28  1  0
 12 13  1  0
 13 19  1  0
 13 14  2  0
 14 15  1  0
 14 27  1  0
 15 16  2  0
 15 50  1  0
 16 17  1  0
 16 51  1  0
 17 18  1  0
 17 19  2  0
 18 52  1  0
 19 20  1  0
 20 21  1  0
 21 26  1  0
 21 22  1  0
 21 53  1  6
 22 24  1  0
 22 23  1  0
 22 54  1  6
 23 24  1  0
 24 25  1  0
 24 55  1  6
 25 26  1  0
 25 56  1  0
 25 57  1  0
 26 58  1  1
 27 28  1  0
 27 59  1  0
 27 60  1  0
 28 61  1  6
M  CHG  1   9   1
M  END
>  <i_m_ct_stereo_status>  (410) 
1

>  <s_m_source_file>  (410) 
/var/tmp/pbs.5076255.sched01/tmp277fsmq3/144xeprw1xa.sdf

>  <i_m_source_file_index>  (410) 
25

>  <i_lp_mmshare_version>  (410) 
48012

>  <i_f3d_flags>  (410) 
0

>  <s_epik_input>  (410) 
W0NIM11bQ0gyXVtDSDJdW0NIMl1bQ0gyXVtDSDJdW0NIMl1bQ0gyXU4oW0NIMl1bQ0gyXTEpW0NAQEhdMltDSDJdYyhjM1tDQF0xMjQpW2NIXVtjSF1jKFtPSF0pYzNPW0NAQEhdNVtDQEBIXTZbQ0BASF0oTzYpW0NIMl1bQ0BIXTQ1

>  <s_epik_cmdline>  (410) 
J2VwaWtfcHl0aG9uJywgJy1waHQnLCAnMi4wJywgJy1waCcsICc3LjAnLCAnLXRuJywgJzgnLCAnLW1hJywgJzIwMCcsICctaW1hZScsICc8aW5maWxlLm1hZT4nLCAnLW9tYWUnLCAnPG91dGZpbGUubWFlPic=

>  <r_lp_tautomer_probability>  (410) 
1

>  <r_epik_Ionization_Penalty>  (410) 
0.00678453

>  <r_epik_Ionization_Penalty_Charging>  (410) 
0.00320539

>  <r_epik_Ionization_Penalty_Neutral>  (410) 
0.00357914

>  <r_epik_State_Penalty>  (410) 
-0

>  <r_epik_Charging_Adjusted_Penalty>  (410) 
0.00320539

>  <i_epik_Tot_Q>  (410) 
1

>  <i_epik_Tot_abs_Q>  (410) 
1

>  <s_lp_Force_Field>  (410) 
OPLS3e

>  <r_lp_Energy>  (410) 
58.2102

>  <b_lp_Chiralities_Consistent>  (410) 
1

>  <s_lp_Variant>  (410) 
100:0-1

>  <s_i_glide_gridfile>  (410) 
pfpi4k_grid

>  <i_i_glide_lignum>  (410) 
25

>  <i_i_glide_rotatable_bonds>  (410) 
8

>  <r_i_docking_score>  (410) 
-2.60381

>  <r_i_glide_ligand_efficiency>  (410) 
-0.0929932

>  <r_i_glide_ligand_efficiency_sa>  (410) 
-0.282382

>  <r_i_glide_ligand_efficiency_ln>  (410) 
-0.601036

>  <r_i_glide_gscore>  (410) 
-2.60381

>  <r_i_glide_lipo>  (410) 
-0.711619

>  <r_i_glide_hbond>  (410) 
-0.12472

>  <r_i_glide_metal>  (410) 
-0

>  <r_i_glide_rewards>  (410) 
-0.787284

>  <r_i_glide_evdw>  (410) 
-27.541

>  <r_i_glide_ecoul>  (410) 
-2.61408

>  <r_i_glide_erotb>  (410) 
0.788975

>  <r_i_glide_esite>  (410) 
0

>  <r_i_glide_emodel>  (410) 
-28.9691

>  <r_i_glide_energy>  (410) 
-30.155

>  <r_i_glide_einternal>  (410) 
8.51842

>  <r_i_glide_intrahb_reward>  (410) 
-0

>  <i_i_glide_confnum>  (410) 
4

>  <i_i_glide_posenum>  (410) 
2

>  <r_i_glide_eff_state_penalty>  (410) 
0

>  <ligand_id>  (410) 
100

>  <original_smiles>  (410) 
CCCCCCCCN1CCC23c4c(ccc(O)c4OC4C5OC5CC42)CC13

>  <smiles>  (410) 
[H]Oc1c([H])c([H])c2c3c1OC1([H])C4([H])OC4([H])C([H])([H])C1([H])C31C([H])([H])C([H])([H])[N+]([H])(C([H])([H])C([H])([H])C([H])([H])C([H])([H])C([H])([H])C([H])([H])C([H])([H])C([H])([H])[H])C1([H])C2([H])[H]

$$$$
100:0:1
     RDKit          3D

 62 67  0  0  1  0  0  0  0  0999 V2000
    4.5374   -3.8622   -3.5754 C   0  0  0  0  0  0  0  0  0  0  0  0
    3.6322   -2.6231   -3.5163 C   0  0  0  0  0  0  0  0  0  0  0  0
    4.1812   -1.5274   -2.5872 C   0  0  0  0  0  0  0  0  0  0  0  0
    4.0305   -1.8600   -1.0918 C   0  0  0  0  0  0  0  0  0  0  0  0
    4.7588   -0.8635   -0.1821 C   0  0  0  0  0  0  0  0  0  0  0  0
    4.3502   -0.9411    1.3034 C   0  0  0  0  0  0  0  0  0  0  0  0
    2.9514   -0.3437    1.5864 C   0  0  0  0  0  0  0  0  0  0  0  0
    2.7665    0.1681    3.0339 C   0  0  0  0  0  0  0  0  0  0  0  0
    1.4168    0.7357    3.2711 N   0  0  1  0  0  0  0  0  0  0  0  0
    0.3243   -0.2443    3.3612 C   0  0  0  0  0  0  0  0  0  0  0  0
   -0.7829    0.3721    4.2395 C   0  0  0  0  0  0  0  0  0  0  0  0
   -0.2442    1.7414    4.7270 C   0  0  2  0  0  0  0  0  0  0  0  0
   -0.3105    1.8660    6.2192 C   0  0  0  0  0  0  0  0  0  0  0  0
    0.8818    1.5205    6.8540 C   0  0  0  0  0  0  0  0  0  0  0  0
    0.9176    1.5621    8.2557 C   0  0  0  0  0  0  0  0  0  0  0  0
   -0.2511    1.9697    8.9457 C   0  0  0  0  0  0  0  0  0  0  0  0
   -1.4340    2.3411    8.2441 C   0  0  0  0  0  0  0  0  0  0  0  0
   -2.5314    2.7448    8.9397 O   0  0  0  0  0  0  0  0  0  0  0  0
   -1.4874    2.3100    6.8264 C   0  0  0  0  0  0  0  0  0  0  0  0
   -2.5789    2.6819    6.0825 O   0  0  0  0  0  0  0  0  0  0  0  0
   -2.2821    3.3333    4.8443 C   0  0  2  0  0  0  0  0  0  0  0  0
   -3.3436    3.0790    3.8350 C   0  0  1  0  0  0  0  0  0  0  0  0
   -3.4772    4.0233    2.7620 O   0  0  0  0  0  0  0  0  0  0  0  0
   -2.7923    2.7950    2.4899 C   0  0  1  0  0  0  0  0  0  0  0  0
   -1.3212    2.8369    2.6189 C   0  0  0  0  0  0  0  0  0  0  0  0
   -0.9619    2.9597    4.1181 C   0  0  2  0  0  0  0  0  0  0  0  0
    1.8643    1.1370    5.7660 C   0  0  0  0  0  0  0  0  0  0  0  0
    1.2565    1.6365    4.4285 C   0  0  1  0  0  0  0  0  0  0  0  0
    4.1256   -4.6189   -4.2436 H   0  0  0  0  0  0  0  0  0  0  0  0
    4.6355   -4.3290   -2.5956 H   0  0  0  0  0  0  0  0  0  0  0  0
    5.5403   -3.6163   -3.9208 H   0  0  0  0  0  0  0  0  0  0  0  0
    3.5252   -2.2217   -4.5242 H   0  0  0  0  0  0  0  0  0  0  0  0
    2.6253   -2.9073   -3.2046 H   0  0  0  0  0  0  0  0  0  0  0  0
    5.2256   -1.3355   -2.8300 H   0  0  0  0  0  0  0  0  0  0  0  0
    3.6485   -0.5957   -2.7919 H   0  0  0  0  0  0  0  0  0  0  0  0
    2.9687   -1.8791   -0.8542 H   0  0  0  0  0  0  0  0  0  0  0  0
    4.4118   -2.8580   -0.8730 H   0  0  0  0  0  0  0  0  0  0  0  0
    5.8300   -1.0468   -0.2671 H   0  0  0  0  0  0  0  0  0  0  0  0
    4.6014    0.1475   -0.5394 H   0  0  0  0  0  0  0  0  0  0  0  0
    4.4000   -1.9755    1.6591 H   0  0  0  0  0  0  0  0  0  0  0  0
    5.1015   -0.3951    1.8765 H   0  0  0  0  0  0  0  0  0  0  0  0
    2.7670    0.4851    0.8989 H   0  0  0  0  0  0  0  0  0  0  0  0
    2.1999   -1.0997    1.3436 H   0  0  0  0  0  0  0  0  0  0  0  0
    2.9855   -0.6306    3.7432 H   0  0  0  0  0  0  0  0  0  0  0  0
    3.5093    0.9439    3.2132 H   0  0  0  0  0  0  0  0  0  0  0  0
   -0.0309   -0.4967    2.3662 H   0  0  0  0  0  0  0  0  0  0  0  0
    0.6680   -1.1682    3.8265 H   0  0  0  0  0  0  0  0  0  0  0  0
   -1.7277    0.4526    3.6995 H   0  0  0  0  0  0  0  0  0  0  0  0
   -0.9687   -0.2844    5.0915 H   0  0  0  0  0  0  0  0  0  0  0  0
    1.8147    1.2752    8.7938 H   0  0  0  0  0  0  0  0  0  0  0  0
   -0.2452    2.0034   10.0200 H   0  0  0  0  0  0  0  0  0  0  0  0
   -2.4083    2.8032    9.8745 H   0  0  0  0  0  0  0  0  0  0  0  0
   -2.3140    4.4065    5.0340 H   0  0  0  0  0  0  0  0  0  0  0  0
   -4.2101    2.5745    4.1508 H   0  0  0  0  0  0  0  0  0  0  0  0
   -3.2771    2.1907    1.7236 H   0  0  0  0  0  0  0  0  0  0  0  0
   -0.8237    2.0514    2.0485 H   0  0  0  0  0  0  0  0  0  0  0  0
   -1.1191    3.8013    2.2149 H   0  0  0  0  0  0  0  0  0  0  0  0
   -0.3158    3.8253    4.2555 H   0  0  0  0  0  0  0  0  0  0  0  0
    2.8375    1.5882    5.9511 H   0  0  0  0  0  0  0  0  0  0  0  0
    1.9739    0.0503    5.7917 H   0  0  0  0  0  0  0  0  0  0  0  0
    1.6699    2.6198    4.2011 H   0  0  0  0  0  0  0  0  0  0  0  0
    1.1964    1.3077    2.4566 H   0  0  0  0  0  0  0  0  0  0  0  0
  1  2  1  0
  1 29  1  0
  1 30  1  0
  1 31  1  0
  2  3  1  0
  2 32  1  0
  2 33  1  0
  3  4  1  0
  3 34  1  0
  3 35  1  0
  4  5  1  0
  4 36  1  0
  4 37  1  0
  5  6  1  0
  5 38  1  0
  5 39  1  0
  6  7  1  0
  6 40  1  0
  6 41  1  0
  7  8  1  0
  7 42  1  0
  7 43  1  0
  8  9  1  0
  8 44  1  0
  8 45  1  0
  9 28  1  0
  9 10  1  0
  9 62  1  6
 10 11  1  0
 10 46  1  0
 10 47  1  0
 12 11  1  1
 11 48  1  0
 11 49  1  0
 12 26  1  0
 12 28  1  0
 12 13  1  0
 13 19  1  0
 13 14  2  0
 14 15  1  0
 14 27  1  0
 15 16  2  0
 15 50  1  0
 16 17  1  0
 16 51  1  0
 17 18  1  0
 17 19  2  0
 18 52  1  0
 19 20  1  0
 20 21  1  0
 21 26  1  0
 21 22  1  0
 21 53  1  1
 22 24  1  0
 22 23  1  0
 22 54  1  1
 23 24  1  0
 24 25  1  0
 24 55  1  6
 25 26  1  0
 25 56  1  0
 25 57  1  0
 26 58  1  6
 27 28  1  0
 27 59  1  0
 27 60  1  0
 28 61  1  6
M  CHG  1   9   1
M  END
>  <i_m_ct_stereo_status>  (411) 
1

>  <s_m_source_file>  (411) 
/var/tmp/pbs.5076255.sched01/tmp277fsmq3/144xeprw1xa.sdf

>  <i_m_source_file_index>  (411) 
25

>  <i_lp_mmshare_version>  (411) 
48012

>  <i_f3d_flags>  (411) 
0

>  <s_epik_input>  (411) 
W0NIM11bQ0gyXVtDSDJdW0NIMl1bQ0gyXVtDSDJdW0NIMl1bQ0gyXU4oW0NIMl1bQ0gyXTEpW0NAQEhdMltDSDJdYyhjM1tDQF0xMjQpW2NIXVtjSF1jKFtPSF0pYzNPW0NAQEhdNVtDQEBIXTZbQ0BASF0oTzYpW0NIMl1bQ0BIXTQ1

>  <s_epik_cmdline>  (411) 
J2VwaWtfcHl0aG9uJywgJy1waHQnLCAnMi4wJywgJy1waCcsICc3LjAnLCAnLXRuJywgJzgnLCAnLW1hJywgJzIwMCcsICctaW1hZScsICc8aW5maWxlLm1hZT4nLCAnLW9tYWUnLCAnPG91dGZpbGUubWFlPic=

>  <r_lp_tautomer_probability>  (411) 
1

>  <r_epik_Ionization_Penalty>  (411) 
0.00678453

>  <r_epik_Ionization_Penalty_Charging>  (411) 
0.00320539

>  <r_epik_Ionization_Penalty_Neutral>  (411) 
0.00357914

>  <r_epik_State_Penalty>  (411) 
-0

>  <r_epik_Charging_Adjusted_Penalty>  (411) 
0.00320539

>  <i_epik_Tot_Q>  (411) 
1

>  <i_epik_Tot_abs_Q>  (411) 
1

>  <s_lp_Force_Field>  (411) 
OPLS3e

>  <r_lp_Energy>  (411) 
58.2102

>  <b_lp_Chiralities_Consistent>  (411) 
1

>  <s_lp_Variant>  (411) 
100:0-1

>  <s_i_glide_gridfile>  (411) 
pfpi4k_grid

>  <i_i_glide_lignum>  (411) 
25

>  <i_i_glide_rotatable_bonds>  (411) 
8

>  <r_i_docking_score>  (411) 
-2.35311

>  <r_i_glide_ligand_efficiency>  (411) 
-0.0840395

>  <r_i_glide_ligand_efficiency_sa>  (411) 
-0.255194

>  <r_i_glide_ligand_efficiency_ln>  (411) 
-0.543166

>  <r_i_glide_gscore>  (411) 
-2.35311

>  <r_i_glide_lipo>  (411) 
-0.309749

>  <r_i_glide_hbond>  (411) 
0

>  <r_i_glide_metal>  (411) 
-0

>  <r_i_glide_rewards>  (411) 
-0.787284

>  <r_i_glide_evdw>  (411) 
-20.6747

>  <r_i_glide_ecoul>  (411) 
-6.65492

>  <r_i_glide_erotb>  (411) 
0.788975

>  <r_i_glide_esite>  (411) 
-0.0130779

>  <r_i_glide_emodel>  (411) 
-29.1472

>  <r_i_glide_energy>  (411) 
-27.3296

>  <r_i_glide_einternal>  (411) 
4.21598

>  <r_i_glide_intrahb_reward>  (411) 
-0

>  <i_i_glide_confnum>  (411) 
3

>  <i_i_glide_posenum>  (411) 
6

>  <r_i_glide_eff_state_penalty>  (411) 
0

>  <ligand_id>  (411) 
100

>  <original_smiles>  (411) 
CCCCCCCCN1CCC23c4c(ccc(O)c4OC4C5OC5CC42)CC13

>  <smiles>  (411) 
[H]Oc1c([H])c([H])c2c3c1OC1([H])C4([H])OC4([H])C([H])([H])C1([H])C31C([H])([H])C([H])([H])[N+]([H])(C([H])([H])C([H])([H])C([H])([H])C([H])([H])C([H])([H])C([H])([H])C([H])([H])C([H])([H])[H])C1([H])C2([H])[H]

$$$$
100:0:2
     RDKit          3D

 62 67  0  0  1  0  0  0  0  0999 V2000
   -3.3908    3.0816    9.0472 C   0  0  0  0  0  0  0  0  0  0  0  0
   -2.6811    2.4728    7.8305 C   0  0  0  0  0  0  0  0  0  0  0  0
   -2.1435    3.5382    6.8664 C   0  0  0  0  0  0  0  0  0  0  0  0
   -1.3951    2.9332    5.6745 C   0  0  0  0  0  0  0  0  0  0  0  0
   -0.6164    3.9711    4.8405 C   0  0  0  0  0  0  0  0  0  0  0  0
    0.2330    3.3807    3.6918 C   0  0  0  0  0  0  0  0  0  0  0  0
    1.1500    2.2121    4.1129 C   0  0  0  0  0  0  0  0  0  0  0  0
    1.9717    1.6033    2.9546 C   0  0  0  0  0  0  0  0  0  0  0  0
    2.4195    0.2112    3.2670 N   0  0  1  0  0  0  0  0  0  0  0  0
    1.3478   -0.8166    3.3045 C   0  0  0  0  0  0  0  0  0  0  0  0
    1.9981   -2.1641    2.9443 C   0  0  0  0  0  0  0  0  0  0  0  0
    3.4817   -1.8718    2.6193 C   0  0  2  0  0  0  0  0  0  0  0  0
    3.8658   -2.4013    1.2684 C   0  0  0  0  0  0  0  0  0  0  0  0
    3.7819   -1.4596    0.2503 C   0  0  0  0  0  0  0  0  0  0  0  0
    4.0515   -1.8605   -1.0672 C   0  0  0  0  0  0  0  0  0  0  0  0
    4.4389   -3.2059   -1.2819 C   0  0  0  0  0  0  0  0  0  0  0  0
    4.5512   -4.1197   -0.1993 C   0  0  0  0  0  0  0  0  0  0  0  0
    4.9469   -5.4043   -0.4307 O   0  0  0  0  0  0  0  0  0  0  0  0
    4.2696   -3.7311    1.1279 C   0  0  0  0  0  0  0  0  0  0  0  0
    4.3590   -4.5655    2.2128 O   0  0  0  0  0  0  0  0  0  0  0  0
    4.8072   -3.9521    3.4243 C   0  0  2  0  0  0  0  0  0  0  0  0
    4.2541   -4.6624    4.6263 C   0  0  1  0  0  0  0  0  0  0  0  0
    5.0194   -4.5352    5.8300 O   0  0  0  0  0  0  0  0  0  0  0  0
    3.8894   -3.6650    5.6785 C   0  0  1  0  0  0  0  0  0  0  0  0
    4.1375   -2.2729    5.1497 C   0  0  0  0  0  0  0  0  0  0  0  0
    4.5022   -2.4343    3.6496 C   0  0  2  0  0  0  0  0  0  0  0  0
    3.3041   -0.1677    0.8814 C   0  0  0  0  0  0  0  0  0  0  0  0
    3.4909   -0.3507    2.4075 C   0  0  1  0  0  0  0  0  0  0  0  0
   -3.7520    2.3048    9.7202 H   0  0  0  0  0  0  0  0  0  0  0  0
   -4.2481    3.6860    8.7519 H   0  0  0  0  0  0  0  0  0  0  0  0
   -2.7163    3.7162    9.6232 H   0  0  0  0  0  0  0  0  0  0  0  0
   -1.8583    1.8506    8.1828 H   0  0  0  0  0  0  0  0  0  0  0  0
   -3.3654    1.8159    7.2923 H   0  0  0  0  0  0  0  0  0  0  0  0
   -2.9800    4.1345    6.4982 H   0  0  0  0  0  0  0  0  0  0  0  0
   -1.4768    4.2090    7.4124 H   0  0  0  0  0  0  0  0  0  0  0  0
   -0.7052    2.2103    6.0999 H   0  0  0  0  0  0  0  0  0  0  0  0
   -2.0852    2.3811    5.0330 H   0  0  0  0  0  0  0  0  0  0  0  0
   -1.3246    4.6770    4.4097 H   0  0  0  0  0  0  0  0  0  0  0  0
    0.0251    4.5593    5.4967 H   0  0  0  0  0  0  0  0  0  0  0  0
   -0.4261    3.0504    2.8869 H   0  0  0  0  0  0  0  0  0  0  0  0
    0.8392    4.1797    3.2616 H   0  0  0  0  0  0  0  0  0  0  0  0
    1.8157    2.5314    4.9183 H   0  0  0  0  0  0  0  0  0  0  0  0
    0.5244    1.4234    4.5226 H   0  0  0  0  0  0  0  0  0  0  0  0
    1.3868    1.6124    2.0330 H   0  0  0  0  0  0  0  0  0  0  0  0
    2.8460    2.2351    2.7792 H   0  0  0  0  0  0  0  0  0  0  0  0
    0.8702   -0.8472    4.2855 H   0  0  0  0  0  0  0  0  0  0  0  0
    0.5728   -0.5772    2.5753 H   0  0  0  0  0  0  0  0  0  0  0  0
    1.8717   -2.8958    3.7409 H   0  0  0  0  0  0  0  0  0  0  0  0
    1.4816   -2.5655    2.0718 H   0  0  0  0  0  0  0  0  0  0  0  0
    3.9444   -1.1683   -1.8937 H   0  0  0  0  0  0  0  0  0  0  0  0
    4.6474   -3.5456   -2.2827 H   0  0  0  0  0  0  0  0  0  0  0  0
    4.8399   -5.6736   -1.3322 H   0  0  0  0  0  0  0  0  0  0  0  0
    5.8854   -4.1047    3.4588 H   0  0  0  0  0  0  0  0  0  0  0  0
    3.7123   -5.5985    4.4967 H   0  0  0  0  0  0  0  0  0  0  0  0
    3.0890   -3.8316    6.3953 H   0  0  0  0  0  0  0  0  0  0  0  0
    3.2740   -1.6315    5.3233 H   0  0  0  0  0  0  0  0  0  0  0  0
    4.9754   -1.8514    5.7044 H   0  0  0  0  0  0  0  0  0  0  0  0
    5.4392   -1.9098    3.4674 H   0  0  0  0  0  0  0  0  0  0  0  0
    3.8825    0.6799    0.5176 H   0  0  0  0  0  0  0  0  0  0  0  0
    2.2547   -0.0178    0.6133 H   0  0  0  0  0  0  0  0  0  0  0  0
    4.4526    0.0726    2.7015 H   0  0  0  0  0  0  0  0  0  0  0  0
    2.8085    0.2368    4.1990 H   0  0  0  0  0  0  0  0  0  0  0  0
  1  2  1  0
  1 29  1  0
  1 30  1  0
  1 31  1  0
  2  3  1  0
  2 32  1  0
  2 33  1  0
  3  4  1  0
  3 34  1  0
  3 35  1  0
  4  5  1  0
  4 36  1  0
  4 37  1  0
  5  6  1  0
  5 38  1  0
  5 39  1  0
  6  7  1  0
  6 40  1  0
  6 41  1  0
  7  8  1  0
  7 42  1  0
  7 43  1  0
  8  9  1  0
  8 44  1  0
  8 45  1  0
  9 28  1  0
  9 10  1  0
  9 62  1  1
 10 11  1  0
 10 46  1  0
 10 47  1  0
 12 11  1  1
 11 48  1  0
 11 49  1  0
 12 26  1  0
 12 28  1  0
 12 13  1  0
 13 19  1  0
 13 14  2  0
 14 15  1  0
 14 27  1  0
 15 16  2  0
 15 50  1  0
 16 17  1  0
 16 51  1  0
 17 18  1  0
 17 19  2  0
 18 52  1  0
 19 20  1  0
 20 21  1  0
 21 26  1  0
 21 22  1  0
 21 53  1  1
 22 24  1  0
 22 23  1  0
 22 54  1  6
 23 24  1  0
 24 25  1  0
 24 55  1  1
 25 26  1  0
 25 56  1  0
 25 57  1  0
 26 58  1  1
 27 28  1  0
 27 59  1  0
 27 60  1  0
 28 61  1  1
M  CHG  1   9   1
M  END
>  <i_m_ct_stereo_status>  (412) 
1

>  <s_m_source_file>  (412) 
/var/tmp/pbs.5076255.sched01/tmp277fsmq3/144xeprw1xa.sdf

>  <i_m_source_file_index>  (412) 
25

>  <i_lp_mmshare_version>  (412) 
48012

>  <i_f3d_flags>  (412) 
0

>  <s_epik_input>  (412) 
W0NIM11bQ0gyXVtDSDJdW0NIMl1bQ0gyXVtDSDJdW0NIMl1bQ0gyXU4oW0NIMl1bQ0gyXTEpW0NAQEhdMltDSDJdYyhjM1tDQF0xMjQpW2NIXVtjSF1jKFtPSF0pYzNPW0NAQEhdNVtDQEBIXTZbQ0BASF0oTzYpW0NIMl1bQ0BIXTQ1

>  <s_epik_cmdline>  (412) 
J2VwaWtfcHl0aG9uJywgJy1waHQnLCAnMi4wJywgJy1waCcsICc3LjAnLCAnLXRuJywgJzgnLCAnLW1hJywgJzIwMCcsICctaW1hZScsICc8aW5maWxlLm1hZT4nLCAnLW9tYWUnLCAnPG91dGZpbGUubWFlPic=

>  <r_lp_tautomer_probability>  (412) 
1

>  <r_epik_Ionization_Penalty>  (412) 
0.00678453

>  <r_epik_Ionization_Penalty_Charging>  (412) 
0.00320539

>  <r_epik_Ionization_Penalty_Neutral>  (412) 
0.00357914

>  <r_epik_State_Penalty>  (412) 
-0

>  <r_epik_Charging_Adjusted_Penalty>  (412) 
0.00320539

>  <i_epik_Tot_Q>  (412) 
1

>  <i_epik_Tot_abs_Q>  (412) 
1

>  <s_lp_Force_Field>  (412) 
OPLS3e

>  <r_lp_Energy>  (412) 
58.2102

>  <b_lp_Chiralities_Consistent>  (412) 
1

>  <s_lp_Variant>  (412) 
100:0-1

>  <s_i_glide_gridfile>  (412) 
pfpi4k_grid

>  <i_i_glide_lignum>  (412) 
25

>  <i_i_glide_rotatable_bonds>  (412) 
8

>  <r_i_docking_score>  (412) 
-2.07807

>  <r_i_glide_ligand_efficiency>  (412) 
-0.0742168

>  <r_i_glide_ligand_efficiency_sa>  (412) 
-0.225366

>  <r_i_glide_ligand_efficiency_ln>  (412) 
-0.479679

>  <r_i_glide_gscore>  (412) 
-2.07807

>  <r_i_glide_lipo>  (412) 
-0.248259

>  <r_i_glide_hbond>  (412) 
0

>  <r_i_glide_metal>  (412) 
-0

>  <r_i_glide_rewards>  (412) 
-0.787284

>  <r_i_glide_evdw>  (412) 
-21.8893

>  <r_i_glide_ecoul>  (412) 
-4.89186

>  <r_i_glide_erotb>  (412) 
0.788975

>  <r_i_glide_esite>  (412) 
-0.00325888

>  <r_i_glide_emodel>  (412) 
-28.7499

>  <r_i_glide_energy>  (412) 
-26.7811

>  <r_i_glide_einternal>  (412) 
3.21736

>  <r_i_glide_intrahb_reward>  (412) 
-0

>  <i_i_glide_confnum>  (412) 
3

>  <i_i_glide_posenum>  (412) 
3

>  <r_i_glide_eff_state_penalty>  (412) 
0

>  <ligand_id>  (412) 
100

>  <original_smiles>  (412) 
CCCCCCCCN1CCC23c4c(ccc(O)c4OC4C5OC5CC42)CC13

>  <smiles>  (412) 
[H]Oc1c([H])c([H])c2c3c1OC1([H])C4([H])OC4([H])C([H])([H])C1([H])C31C([H])([H])C([H])([H])[N+]([H])(C([H])([H])C([H])([H])C([H])([H])C([H])([H])C([H])([H])C([H])([H])C([H])([H])C([H])([H])[H])C1([H])C2([H])[H]

$$$$
102:0:0
     RDKit          3D

 63 68  0  0  1  0  0  0  0  0999 V2000
    3.8941   -1.3544   -2.5590 C   0  0  0  0  0  0  0  0  0  0  0  0
    4.1623   -2.0909   -1.2295 C   0  0  1  0  0  0  0  0  0  0  0  0
    4.0198   -1.0511   -0.0645 C   0  0  0  0  0  0  0  0  0  0  0  0
    3.9573   -1.5196    1.4124 C   0  0  0  0  0  0  0  0  0  0  0  0
    5.1299   -2.3877    1.9357 C   0  0  1  0  0  0  0  0  0  0  0  0
    4.8921   -2.9889    3.3297 C   0  0  0  0  0  0  0  0  0  0  0  0
    3.7226   -3.9712    3.4722 C   0  0  0  0  0  0  0  0  0  0  0  0
    3.9984   -5.4479    3.0901 C   0  0  2  0  0  0  0  0  0  0  0  0
    4.7650   -5.6932    1.7398 C   0  0  1  0  0  0  0  0  0  0  0  0
    4.5396   -7.1231    1.1828 C   0  0  0  0  0  0  0  0  0  0  0  0
    4.3919   -8.1841    2.2791 C   0  0  0  0  0  0  0  0  0  0  0  0
    3.2963   -7.8984    3.3356 C   0  0  2  0  0  0  0  0  0  0  0  0
    2.1558   -8.9487    3.3576 C   0  0  0  0  0  0  0  0  0  0  0  0
    1.0655   -8.6709    2.3224 C   0  0  1  0  0  0  0  0  0  0  0  0
    0.0075   -9.5867    2.4770 O   0  0  0  0  0  0  0  0  0  0  0  0
    0.5071   -7.2466    2.4492 C   0  0  0  0  0  0  0  0  0  0  0  0
    1.6311   -6.2084    2.3520 C   0  0  0  0  0  0  0  0  0  0  0  0
    2.7841   -6.4161    3.3700 C   0  0  2  0  0  0  0  0  0  0  0  0
    2.2091   -6.1535    4.7881 C   0  0  0  0  0  0  0  0  0  0  0  0
    4.7519   -4.6027    0.6031 C   0  0  1  0  0  0  0  0  0  0  0  0
    3.3341   -4.2754    0.0552 C   0  0  0  0  0  0  0  0  0  0  0  0
    3.2000   -3.2931   -1.1347 C   0  0  0  0  0  0  0  0  0  0  0  0
    5.6402   -3.3580    0.8813 C   0  0  2  0  0  0  0  0  0  0  0  0
    6.9579   -3.8621    1.1599 O   0  0  0  0  0  0  0  0  0  0  0  0
    7.3256   -3.5941   -0.2828 O   0  0  0  0  0  0  0  0  0  0  0  0
    6.2673   -2.6352   -0.2971 C   0  0  1  0  0  0  0  0  0  0  0  0
    5.4745   -2.6137   -1.4489 O   0  0  0  0  0  0  0  0  0  0  0  0
    2.8869   -0.9342   -2.5885 H   0  0  0  0  0  0  0  0  0  0  0  0
    3.9960   -2.0254   -3.4170 H   0  0  0  0  0  0  0  0  0  0  0  0
    4.6001   -0.5326   -2.7021 H   0  0  0  0  0  0  0  0  0  0  0  0
    4.7753   -0.2690   -0.1763 H   0  0  0  0  0  0  0  0  0  0  0  0
    3.0642   -0.5639   -0.2218 H   0  0  0  0  0  0  0  0  0  0  0  0
    3.8851   -0.6292    2.0412 H   0  0  0  0  0  0  0  0  0  0  0  0
    2.9992   -2.0073    1.5622 H   0  0  0  0  0  0  0  0  0  0  0  0
    5.9286   -1.6663    2.1011 H   0  0  0  0  0  0  0  0  0  0  0  0
    5.8137   -3.4460    3.7037 H   0  0  0  0  0  0  0  0  0  0  0  0
    4.6988   -2.1530    4.0020 H   0  0  0  0  0  0  0  0  0  0  0  0
    3.5065   -3.9528    4.5375 H   0  0  0  0  0  0  0  0  0  0  0  0
    2.8141   -3.5969    3.0089 H   0  0  0  0  0  0  0  0  0  0  0  0
    4.7255   -5.7538    3.8441 H   0  0  0  0  0  0  0  0  0  0  0  0
    5.8115   -5.7396    2.0472 H   0  0  0  0  0  0  0  0  0  0  0  0
    3.6863   -7.1764    0.5054 H   0  0  0  0  0  0  0  0  0  0  0  0
    5.3881   -7.3958    0.5613 H   0  0  0  0  0  0  0  0  0  0  0  0
    4.2316   -9.1535    1.8106 H   0  0  0  0  0  0  0  0  0  0  0  0
    5.3552   -8.2701    2.7932 H   0  0  0  0  0  0  0  0  0  0  0  0
    3.8146   -8.0636    4.2736 H   0  0  0  0  0  0  0  0  0  0  0  0
    2.5533   -9.9550    3.2144 H   0  0  0  0  0  0  0  0  0  0  0  0
    1.6997   -8.9741    4.3486 H   0  0  0  0  0  0  0  0  0  0  0  0
    1.4918   -8.8094    1.3228 H   0  0  0  0  0  0  0  0  0  0  0  0
   -0.2713   -9.8463    1.6136 H   0  0  0  0  0  0  0  0  0  0  0  0
   -0.2168   -7.0735    1.6494 H   0  0  0  0  0  0  0  0  0  0  0  0
   -0.0383   -7.1361    3.3869 H   0  0  0  0  0  0  0  0  0  0  0  0
    2.0027   -6.2739    1.3399 H   0  0  0  0  0  0  0  0  0  0  0  0
    1.2175   -5.2048    2.4529 H   0  0  0  0  0  0  0  0  0  0  0  0
    1.4859   -6.9047    5.0998 H   0  0  0  0  0  0  0  0  0  0  0  0
    1.6799   -5.2015    4.8377 H   0  0  0  0  0  0  0  0  0  0  0  0
    2.9891   -6.1384    5.5506 H   0  0  0  0  0  0  0  0  0  0  0  0
    5.2264   -5.1012   -0.2436 H   0  0  0  0  0  0  0  0  0  0  0  0
    2.8874   -5.2031   -0.3018 H   0  0  0  0  0  0  0  0  0  0  0  0
    2.6764   -3.9538    0.8567 H   0  0  0  0  0  0  0  0  0  0  0  0
    2.1768   -2.9239   -1.1564 H   0  0  0  0  0  0  0  0  0  0  0  0
    3.3096   -3.8544   -2.0633 H   0  0  0  0  0  0  0  0  0  0  0  0
    6.6389   -1.6513   -0.0296 H   0  0  0  0  0  0  0  0  0  0  0  0
  2  1  1  6
  1 28  1  0
  1 29  1  0
  1 30  1  0
  2 22  1  0
  2 27  1  0
  2  3  1  0
  3  4  1  0
  3 31  1  0
  3 32  1  0
  4  5  1  0
  4 33  1  0
  4 34  1  0
  5 23  1  0
  5  6  1  0
  5 35  1  1
  6  7  1  0
  6 36  1  0
  6 37  1  0
  7  8  1  0
  7 38  1  0
  7 39  1  0
  8 18  1  0
  8  9  1  0
  8 40  1  1
  9 10  1  0
  9 20  1  0
  9 41  1  1
 10 11  1  0
 10 42  1  0
 10 43  1  0
 11 12  1  0
 11 44  1  0
 11 45  1  0
 12 18  1  0
 12 13  1  0
 12 46  1  1
 13 14  1  0
 13 47  1  0
 13 48  1  0
 14 15  1  0
 14 16  1  0
 14 49  1  6
 15 50  1  0
 16 17  1  0
 16 51  1  0
 16 52  1  0
 17 18  1  0
 17 53  1  0
 17 54  1  0
 18 19  1  1
 19 55  1  0
 19 56  1  0
 19 57  1  0
 20 21  1  0
 20 23  1  0
 20 58  1  6
 21 22  1  0
 21 59  1  0
 21 60  1  0
 22 61  1  0
 22 62  1  0
 23 26  1  0
 23 24  1  1
 24 25  1  0
 25 26  1  0
 26 27  1  0
 26 63  1  1
M  END
>  <i_m_ct_stereo_status>  (413) 
1

>  <s_m_source_file>  (413) 
/var/tmp/pbs.5076255.sched01/tmp277fsmq3/144xeprw1xa.sdf

>  <i_m_source_file_index>  (413) 
27

>  <i_lp_mmshare_version>  (413) 
48012

>  <i_f3d_flags>  (413) 
0

>  <s_epik_input>  (413) 
W0NAQF0xMjNbQ0BIXTRbQ0gyXVtDSDJdW0NAQF0oW0NIM10pKE9bQ0BASF0zT08yKVtDSDJdW0NIMl1bQ0BASF0xW0NASF01W0NAQEhdKFtDSDJdW0NIMl00KVtDQF02KFtDSDNdKVtDQEhdKFtDSDJdW0NIMl01KVtDSDJdW0NAQEhdKFtPSF0pW0NIMl1bQ0gyXTY=

>  <s_epik_cmdline>  (413) 
J2VwaWtfcHl0aG9uJywgJy1waHQnLCAnMi4wJywgJy1waCcsICc3LjAnLCAnLXRuJywgJzgnLCAnLW1hJywgJzIwMCcsICctaW1hZScsICc8aW5maWxlLm1hZT4nLCAnLW9tYWUnLCAnPG91dGZpbGUubWFlPic=

>  <r_lp_tautomer_probability>  (413) 
1

>  <r_epik_Ionization_Penalty>  (413) 
3.07373e-06

>  <r_epik_Ionization_Penalty_Charging>  (413) 
0

>  <r_epik_Ionization_Penalty_Neutral>  (413) 
3.07373e-06

>  <r_epik_State_Penalty>  (413) 
-0

>  <r_epik_Charging_Adjusted_Penalty>  (413) 
0

>  <i_epik_Tot_Q>  (413) 
0

>  <i_epik_Tot_abs_Q>  (413) 
0

>  <s_epik_Chemistry_Notes>  (413) 
This compound contains an acetal/aminal-like group ( X-CH(R)-Y where X, Y are N, S, or O) that may be acid/base labile, releasing an aldehyde.

>  <s_lp_Force_Field>  (413) 
OPLS3e

>  <r_lp_Energy>  (413) 
75.921

>  <b_lp_Chiralities_Consistent>  (413) 
1

>  <s_lp_Variant>  (413) 
102:0-1

>  <s_i_glide_gridfile>  (413) 
pfpi4k_grid

>  <i_i_glide_lignum>  (413) 
27

>  <i_i_glide_rotatable_bonds>  (413) 
1

>  <r_i_docking_score>  (413) 
-3.59542

>  <r_i_glide_ligand_efficiency>  (413) 
-0.133164

>  <r_i_glide_ligand_efficiency_sa>  (413) 
-0.399491

>  <r_i_glide_ligand_efficiency_ln>  (413) 
-0.836954

>  <r_i_glide_gscore>  (413) 
-3.59542

>  <r_i_glide_lipo>  (413) 
-0.407351

>  <r_i_glide_hbond>  (413) 
-0.32

>  <r_i_glide_metal>  (413) 
-0

>  <r_i_glide_rewards>  (413) 
-0.841844

>  <r_i_glide_evdw>  (413) 
-29.6621

>  <r_i_glide_ecoul>  (413) 
-3.61496

>  <r_i_glide_erotb>  (413) 
0

>  <r_i_glide_esite>  (413) 
-0.000876707

>  <r_i_glide_emodel>  (413) 
-39.5508

>  <r_i_glide_energy>  (413) 
-33.277

>  <r_i_glide_einternal>  (413) 
1.0822

>  <r_i_glide_intrahb_reward>  (413) 
-0

>  <i_i_glide_confnum>  (413) 
1

>  <i_i_glide_posenum>  (413) 
14

>  <r_i_glide_eff_state_penalty>  (413) 
0

>  <ligand_id>  (413) 
102

>  <original_smiles>  (413) 
CC12CCC3CCC4C(CCC5CC(O)CCC54C)C(CC1)C31OOC1O2

>  <smiles>  (413) 
[H]OC1([H])C([H])([H])C([H])([H])C2(C([H])([H])[H])C([H])(C([H])([H])C([H])([H])C3([H])C4([H])C([H])([H])C([H])([H])C5(C([H])([H])[H])OC6([H])OOC64C([H])(C([H])([H])C([H])([H])C32[H])C([H])([H])C5([H])[H])C1([H])[H]

$$$$
102:0:1
     RDKit          3D

 63 68  0  0  1  0  0  0  0  0999 V2000
    4.5877   -1.0805   -2.2437 C   0  0  0  0  0  0  0  0  0  0  0  0
    4.6699   -1.9093   -0.9461 C   0  0  1  0  0  0  0  0  0  0  0  0
    4.6069   -0.9088    0.2642 C   0  0  0  0  0  0  0  0  0  0  0  0
    4.3923   -1.4436    1.7061 C   0  0  0  0  0  0  0  0  0  0  0  0
    5.3963   -2.5004    2.2378 C   0  0  1  0  0  0  0  0  0  0  0  0
    4.9989   -3.1302    3.5838 C   0  0  0  0  0  0  0  0  0  0  0  0
    3.7005   -3.9411    3.6158 C   0  0  0  0  0  0  0  0  0  0  0  0
    3.7938   -5.4235    3.1655 C   0  0  2  0  0  0  0  0  0  0  0  0
    4.5921   -5.7081    1.8415 C   0  0  1  0  0  0  0  0  0  0  0  0
    4.2076   -7.0623    1.1919 C   0  0  0  0  0  0  0  0  0  0  0  0
    3.8466   -8.1466    2.2173 C   0  0  0  0  0  0  0  0  0  0  0  0
    2.7461   -7.7611    3.2384 C   0  0  2  0  0  0  0  0  0  0  0  0
    1.4654   -8.6346    3.1414 C   0  0  0  0  0  0  0  0  0  0  0  0
    0.4897   -8.1324    2.0757 C   0  0  1  0  0  0  0  0  0  0  0  0
   -0.7177   -8.8606    2.0833 O   0  0  0  0  0  0  0  0  0  0  0  0
    0.1339   -6.6657    2.2648 C   0  0  0  0  0  0  0  0  0  0  0  0
    1.4001   -5.8035    2.2748 C   0  0  0  0  0  0  0  0  0  0  0  0
    2.4466   -6.2250    3.3334 C   0  0  2  0  0  0  0  0  0  0  0  0
    1.8286   -5.9485    4.7312 C   0  0  0  0  0  0  0  0  0  0  0  0
    4.7943   -4.5739    0.7635 C   0  0  1  0  0  0  0  0  0  0  0  0
    3.4729   -4.0200    0.1642 C   0  0  0  0  0  0  0  0  0  0  0  0
    3.5520   -2.9772   -0.9754 C   0  0  0  0  0  0  0  0  0  0  0  0
    5.8332   -3.4859    1.1575 C   0  0  2  0  0  0  0  0  0  0  0  0
    7.0453   -4.1973    1.4636 O   0  0  0  0  0  0  0  0  0  0  0  0
    7.5397   -3.8996    0.0675 O   0  0  0  0  0  0  0  0  0  0  0  0
    6.6296   -2.7987    0.0597 C   0  0  1  0  0  0  0  0  0  0  0  0
    5.9139   -2.5953   -1.1294 O   0  0  0  0  0  0  0  0  0  0  0  0
    3.6533   -0.5209   -2.3050 H   0  0  0  0  0  0  0  0  0  0  0  0
    4.6479   -1.7157   -3.1304 H   0  0  0  0  0  0  0  0  0  0  0  0
    5.4081   -0.3625   -2.3016 H   0  0  0  0  0  0  0  0  0  0  0  0
    5.4828   -0.2581    0.2413 H   0  0  0  0  0  0  0  0  0  0  0  0
    3.7631   -0.2488    0.0784 H   0  0  0  0  0  0  0  0  0  0  0  0
    4.4145   -0.5893    2.3864 H   0  0  0  0  0  0  0  0  0  0  0  0
    3.3695   -1.7955    1.7826 H   0  0  0  0  0  0  0  0  0  0  0  0
    6.2779   -1.9077    2.4801 H   0  0  0  0  0  0  0  0  0  0  0  0
    5.8139   -3.7388    3.9762 H   0  0  0  0  0  0  0  0  0  0  0  0
    4.8910   -2.3107    4.2954 H   0  0  0  0  0  0  0  0  0  0  0  0
    3.4288   -3.9448    4.6693 H   0  0  0  0  0  0  0  0  0  0  0  0
    2.8820   -3.4212    3.1279 H   0  0  0  0  0  0  0  0  0  0  0  0
    4.4326   -5.8656    3.9350 H   0  0  0  0  0  0  0  0  0  0  0  0
    5.6013   -5.9189    2.1987 H   0  0  0  0  0  0  0  0  0  0  0  0
    3.3962   -6.9562    0.4796 H   0  0  0  0  0  0  0  0  0  0  0  0
    5.0436   -7.4222    0.5949 H   0  0  0  0  0  0  0  0  0  0  0  0
    3.5820   -9.0633    1.6885 H   0  0  0  0  0  0  0  0  0  0  0  0
    4.7555   -8.3932    2.7722 H   0  0  0  0  0  0  0  0  0  0  0  0
    3.1833   -8.0464    4.1927 H   0  0  0  0  0  0  0  0  0  0  0  0
    1.7252   -9.6780    2.9540 H   0  0  0  0  0  0  0  0  0  0  0  0
    0.9564   -8.6478    4.1052 H   0  0  0  0  0  0  0  0  0  0  0  0
    0.9531   -8.2428    1.0941 H   0  0  0  0  0  0  0  0  0  0  0  0
   -0.6084   -9.5969    1.4935 H   0  0  0  0  0  0  0  0  0  0  0  0
   -0.5075   -6.3573    1.4365 H   0  0  0  0  0  0  0  0  0  0  0  0
   -0.4432   -6.5280    3.1806 H   0  0  0  0  0  0  0  0  0  0  0  0
    1.8115   -5.8681    1.2764 H   0  0  0  0  0  0  0  0  0  0  0  0
    1.1295   -4.7581    2.4200 H   0  0  0  0  0  0  0  0  0  0  0  0
    0.9901   -6.6032    4.9615 H   0  0  0  0  0  0  0  0  0  0  0  0
    1.4353   -4.9351    4.8043 H   0  0  0  0  0  0  0  0  0  0  0  0
    2.5564   -6.0808    5.5320 H   0  0  0  0  0  0  0  0  0  0  0  0
    5.2463   -5.0932   -0.0834 H   0  0  0  0  0  0  0  0  0  0  0  0
    2.9212   -4.8565   -0.2625 H   0  0  0  0  0  0  0  0  0  0  0  0
    2.8252   -3.6451    0.9488 H   0  0  0  0  0  0  0  0  0  0  0  0
    2.5974   -2.4586   -1.0226 H   0  0  0  0  0  0  0  0  0  0  0  0
    3.6261   -3.5246   -1.9178 H   0  0  0  0  0  0  0  0  0  0  0  0
    7.1247   -1.8907    0.3964 H   0  0  0  0  0  0  0  0  0  0  0  0
  2  1  1  6
  1 28  1  0
  1 29  1  0
  1 30  1  0
  2 22  1  0
  2 27  1  0
  2  3  1  0
  3  4  1  0
  3 31  1  0
  3 32  1  0
  4  5  1  0
  4 33  1  0
  4 34  1  0
  5 23  1  0
  5  6  1  0
  5 35  1  1
  6  7  1  0
  6 36  1  0
  6 37  1  0
  7  8  1  0
  7 38  1  0
  7 39  1  0
  8 18  1  0
  8  9  1  0
  8 40  1  1
  9 10  1  0
  9 20  1  0
  9 41  1  1
 10 11  1  0
 10 42  1  0
 10 43  1  0
 11 12  1  0
 11 44  1  0
 11 45  1  0
 12 18  1  0
 12 13  1  0
 12 46  1  1
 13 14  1  0
 13 47  1  0
 13 48  1  0
 14 15  1  0
 14 16  1  0
 14 49  1  6
 15 50  1  0
 16 17  1  0
 16 51  1  0
 16 52  1  0
 17 18  1  0
 17 53  1  0
 17 54  1  0
 18 19  1  1
 19 55  1  0
 19 56  1  0
 19 57  1  0
 20 21  1  0
 20 23  1  0
 20 58  1  6
 21 22  1  0
 21 59  1  0
 21 60  1  0
 22 61  1  0
 22 62  1  0
 23 26  1  0
 23 24  1  1
 24 25  1  0
 25 26  1  0
 26 27  1  0
 26 63  1  1
M  END
>  <i_m_ct_stereo_status>  (414) 
1

>  <s_m_source_file>  (414) 
/var/tmp/pbs.5076255.sched01/tmp277fsmq3/144xeprw1xa.sdf

>  <i_m_source_file_index>  (414) 
27

>  <i_lp_mmshare_version>  (414) 
48012

>  <i_f3d_flags>  (414) 
0

>  <s_epik_input>  (414) 
W0NAQF0xMjNbQ0BIXTRbQ0gyXVtDSDJdW0NAQF0oW0NIM10pKE9bQ0BASF0zT08yKVtDSDJdW0NIMl1bQ0BASF0xW0NASF01W0NAQEhdKFtDSDJdW0NIMl00KVtDQF02KFtDSDNdKVtDQEhdKFtDSDJdW0NIMl01KVtDSDJdW0NAQEhdKFtPSF0pW0NIMl1bQ0gyXTY=

>  <s_epik_cmdline>  (414) 
J2VwaWtfcHl0aG9uJywgJy1waHQnLCAnMi4wJywgJy1waCcsICc3LjAnLCAnLXRuJywgJzgnLCAnLW1hJywgJzIwMCcsICctaW1hZScsICc8aW5maWxlLm1hZT4nLCAnLW9tYWUnLCAnPG91dGZpbGUubWFlPic=

>  <r_lp_tautomer_probability>  (414) 
1

>  <r_epik_Ionization_Penalty>  (414) 
3.07373e-06

>  <r_epik_Ionization_Penalty_Charging>  (414) 
0

>  <r_epik_Ionization_Penalty_Neutral>  (414) 
3.07373e-06

>  <r_epik_State_Penalty>  (414) 
-0

>  <r_epik_Charging_Adjusted_Penalty>  (414) 
0

>  <i_epik_Tot_Q>  (414) 
0

>  <i_epik_Tot_abs_Q>  (414) 
0

>  <s_epik_Chemistry_Notes>  (414) 
This compound contains an acetal/aminal-like group ( X-CH(R)-Y where X, Y are N, S, or O) that may be acid/base labile, releasing an aldehyde.

>  <s_lp_Force_Field>  (414) 
OPLS3e

>  <r_lp_Energy>  (414) 
75.921

>  <b_lp_Chiralities_Consistent>  (414) 
1

>  <s_lp_Variant>  (414) 
102:0-1

>  <s_i_glide_gridfile>  (414) 
pfpi4k_grid

>  <i_i_glide_lignum>  (414) 
27

>  <i_i_glide_rotatable_bonds>  (414) 
1

>  <r_i_docking_score>  (414) 
-3.56994

>  <r_i_glide_ligand_efficiency>  (414) 
-0.13222

>  <r_i_glide_ligand_efficiency_sa>  (414) 
-0.396661

>  <r_i_glide_ligand_efficiency_ln>  (414) 
-0.831024

>  <r_i_glide_gscore>  (414) 
-3.56994

>  <r_i_glide_lipo>  (414) 
-0.395671

>  <r_i_glide_hbond>  (414) 
-0.228312

>  <r_i_glide_metal>  (414) 
-0

>  <r_i_glide_rewards>  (414) 
-0.930107

>  <r_i_glide_evdw>  (414) 
-28.6534

>  <r_i_glide_ecoul>  (414) 
-3.88791

>  <r_i_glide_erotb>  (414) 
0

>  <r_i_glide_esite>  (414) 
0

>  <r_i_glide_emodel>  (414) 
-38.9879

>  <r_i_glide_energy>  (414) 
-32.5413

>  <r_i_glide_einternal>  (414) 
1.0487

>  <r_i_glide_intrahb_reward>  (414) 
-0

>  <i_i_glide_confnum>  (414) 
2

>  <i_i_glide_posenum>  (414) 
9

>  <r_i_glide_eff_state_penalty>  (414) 
0

>  <ligand_id>  (414) 
102

>  <original_smiles>  (414) 
CC12CCC3CCC4C(CCC5CC(O)CCC54C)C(CC1)C31OOC1O2

>  <smiles>  (414) 
[H]OC1([H])C([H])([H])C([H])([H])C2(C([H])([H])[H])C([H])(C([H])([H])C([H])([H])C3([H])C4([H])C([H])([H])C([H])([H])C5(C([H])([H])[H])OC6([H])OOC64C([H])(C([H])([H])C([H])([H])C32[H])C([H])([H])C5([H])[H])C1([H])[H]

$$$$
102:0:2
     RDKit          3D

 63 68  0  0  1  0  0  0  0  0999 V2000
    0.1904   -8.4369    2.6604 C   0  0  0  0  0  0  0  0  0  0  0  0
    1.3407   -7.4114    2.6441 C   0  0  1  0  0  0  0  0  0  0  0  0
    2.6799   -8.1997    2.9140 C   0  0  0  0  0  0  0  0  0  0  0  0
    4.0486   -7.4931    2.7099 C   0  0  0  0  0  0  0  0  0  0  0  0
    4.3078   -6.1800    3.4974 C   0  0  1  0  0  0  0  0  0  0  0  0
    5.5877   -5.4338    3.0859 C   0  0  0  0  0  0  0  0  0  0  0  0
    5.6591   -4.9215    1.6414 C   0  0  0  0  0  0  0  0  0  0  0  0
    4.9983   -3.5484    1.3549 C   0  0  2  0  0  0  0  0  0  0  0  0
    3.5673   -3.3229    1.9598 C   0  0  1  0  0  0  0  0  0  0  0  0
    2.7875   -2.2055    1.2262 C   0  0  0  0  0  0  0  0  0  0  0  0
    3.6853   -1.0741    0.7194 C   0  0  0  0  0  0  0  0  0  0  0  0
    4.8586   -1.5096   -0.1885 C   0  0  2  0  0  0  0  0  0  0  0  0
    4.7786   -0.9635   -1.6386 C   0  0  0  0  0  0  0  0  0  0  0  0
    3.9012   -1.7934   -2.5726 C   0  0  1  0  0  0  0  0  0  0  0  0
    4.0079   -1.2968   -3.8881 O   0  0  0  0  0  0  0  0  0  0  0  0
    4.3520   -3.2596   -2.5685 C   0  0  0  0  0  0  0  0  0  0  0  0
    4.3478   -3.8303   -1.1414 C   0  0  0  0  0  0  0  0  0  0  0  0
    5.2050   -3.0366   -0.1239 C   0  0  2  0  0  0  0  0  0  0  0  0
    6.6899   -3.1914   -0.5394 C   0  0  0  0  0  0  0  0  0  0  0  0
    2.6462   -4.5491    2.3186 C   0  0  1  0  0  0  0  0  0  0  0  0
    2.2842   -5.4597    1.1044 C   0  0  0  0  0  0  0  0  0  0  0  0
    1.2906   -6.6330    1.3109 C   0  0  0  0  0  0  0  0  0  0  0  0
    3.0576   -5.3198    3.6022 C   0  0  2  0  0  0  0  0  0  0  0  0
    3.1288   -4.3401    4.6479 O   0  0  0  0  0  0  0  0  0  0  0  0
    1.7247   -4.7278    5.0581 O   0  0  0  0  0  0  0  0  0  0  0  0
    1.9676   -5.9860    4.4272 C   0  0  1  0  0  0  0  0  0  0  0  0
    0.9152   -6.4858    3.6543 O   0  0  0  0  0  0  0  0  0  0  0  0
    0.3240   -9.1929    1.8879 H   0  0  0  0  0  0  0  0  0  0  0  0
   -0.7817   -7.9655    2.4935 H   0  0  0  0  0  0  0  0  0  0  0  0
    0.1343   -8.9608    3.6170 H   0  0  0  0  0  0  0  0  0  0  0  0
    2.6418   -8.6430    3.9118 H   0  0  0  0  0  0  0  0  0  0  0  0
    2.6864   -9.0507    2.2357 H   0  0  0  0  0  0  0  0  0  0  0  0
    4.8327   -8.2042    2.9771 H   0  0  0  0  0  0  0  0  0  0  0  0
    4.1967   -7.3564    1.6439 H   0  0  0  0  0  0  0  0  0  0  0  0
    4.5267   -6.5244    4.5061 H   0  0  0  0  0  0  0  0  0  0  0  0
    5.7858   -4.6212    3.7852 H   0  0  0  0  0  0  0  0  0  0  0  0
    6.4150   -6.1304    3.2217 H   0  0  0  0  0  0  0  0  0  0  0  0
    6.7246   -4.8056    1.4622 H   0  0  0  0  0  0  0  0  0  0  0  0
    5.3463   -5.6732    0.9247 H   0  0  0  0  0  0  0  0  0  0  0  0
    5.6192   -2.8637    1.9343 H   0  0  0  0  0  0  0  0  0  0  0  0
    3.7683   -2.8537    2.9240 H   0  0  0  0  0  0  0  0  0  0  0  0
    2.1970   -2.5957    0.3957 H   0  0  0  0  0  0  0  0  0  0  0  0
    2.0499   -1.7793    1.9022 H   0  0  0  0  0  0  0  0  0  0  0  0
    3.0486   -0.3601    0.2008 H   0  0  0  0  0  0  0  0  0  0  0  0
    4.0852   -0.5404    1.5884 H   0  0  0  0  0  0  0  0  0  0  0  0
    5.7027   -0.9860    0.2451 H   0  0  0  0  0  0  0  0  0  0  0  0
    4.4347    0.0699   -1.6395 H   0  0  0  0  0  0  0  0  0  0  0  0
    5.7851   -0.9157   -2.0528 H   0  0  0  0  0  0  0  0  0  0  0  0
    2.8588   -1.7288   -2.2481 H   0  0  0  0  0  0  0  0  0  0  0  0
    3.5171   -0.4775   -3.9293 H   0  0  0  0  0  0  0  0  0  0  0  0
    3.6639   -3.8369   -3.1875 H   0  0  0  0  0  0  0  0  0  0  0  0
    5.3369   -3.3690   -3.0227 H   0  0  0  0  0  0  0  0  0  0  0  0
    3.3097   -3.8425   -0.8437 H   0  0  0  0  0  0  0  0  0  0  0  0
    4.6506   -4.8794   -1.1669 H   0  0  0  0  0  0  0  0  0  0  0  0
    6.9227   -2.7114   -1.4868 H   0  0  0  0  0  0  0  0  0  0  0  0
    6.9489   -4.2426   -0.6790 H   0  0  0  0  0  0  0  0  0  0  0  0
    7.3731   -2.7791    0.2020 H   0  0  0  0  0  0  0  0  0  0  0  0
    1.6884   -4.0904    2.5669 H   0  0  0  0  0  0  0  0  0  0  0  0
    1.8354   -4.8389    0.3330 H   0  0  0  0  0  0  0  0  0  0  0  0
    3.1831   -5.8354    0.6286 H   0  0  0  0  0  0  0  0  0  0  0  0
    1.4015   -7.3396    0.4913 H   0  0  0  0  0  0  0  0  0  0  0  0
    0.2763   -6.2434    1.2015 H   0  0  0  0  0  0  0  0  0  0  0  0
    2.3619   -6.7056    5.1390 H   0  0  0  0  0  0  0  0  0  0  0  0
  2  1  1  6
  1 28  1  0
  1 29  1  0
  1 30  1  0
  2 22  1  0
  2 27  1  0
  2  3  1  0
  3  4  1  0
  3 31  1  0
  3 32  1  0
  4  5  1  0
  4 33  1  0
  4 34  1  0
  5 23  1  0
  5  6  1  0
  5 35  1  1
  6  7  1  0
  6 36  1  0
  6 37  1  0
  7  8  1  0
  7 38  1  0
  7 39  1  0
  8 18  1  0
  8  9  1  0
  8 40  1  1
  9 10  1  0
  9 20  1  0
  9 41  1  1
 10 11  1  0
 10 42  1  0
 10 43  1  0
 11 12  1  0
 11 44  1  0
 11 45  1  0
 12 18  1  0
 12 13  1  0
 12 46  1  1
 13 14  1  0
 13 47  1  0
 13 48  1  0
 14 15  1  0
 14 16  1  0
 14 49  1  1
 15 50  1  0
 16 17  1  0
 16 51  1  0
 16 52  1  0
 17 18  1  0
 17 53  1  0
 17 54  1  0
 18 19  1  6
 19 55  1  0
 19 56  1  0
 19 57  1  0
 20 21  1  0
 20 23  1  0
 20 58  1  1
 21 22  1  0
 21 59  1  0
 21 60  1  0
 22 61  1  0
 22 62  1  0
 23 26  1  0
 23 24  1  1
 24 25  1  0
 25 26  1  0
 26 27  1  0
 26 63  1  1
M  END
>  <i_m_ct_stereo_status>  (415) 
1

>  <s_m_source_file>  (415) 
/var/tmp/pbs.5076255.sched01/tmp277fsmq3/144xeprw1xa.sdf

>  <i_m_source_file_index>  (415) 
27

>  <i_lp_mmshare_version>  (415) 
48012

>  <i_f3d_flags>  (415) 
0

>  <s_epik_input>  (415) 
W0NAQF0xMjNbQ0BIXTRbQ0gyXVtDSDJdW0NAQF0oW0NIM10pKE9bQ0BASF0zT08yKVtDSDJdW0NIMl1bQ0BASF0xW0NASF01W0NAQEhdKFtDSDJdW0NIMl00KVtDQF02KFtDSDNdKVtDQEhdKFtDSDJdW0NIMl01KVtDSDJdW0NAQEhdKFtPSF0pW0NIMl1bQ0gyXTY=

>  <s_epik_cmdline>  (415) 
J2VwaWtfcHl0aG9uJywgJy1waHQnLCAnMi4wJywgJy1waCcsICc3LjAnLCAnLXRuJywgJzgnLCAnLW1hJywgJzIwMCcsICctaW1hZScsICc8aW5maWxlLm1hZT4nLCAnLW9tYWUnLCAnPG91dGZpbGUubWFlPic=

>  <r_lp_tautomer_probability>  (415) 
1

>  <r_epik_Ionization_Penalty>  (415) 
3.07373e-06

>  <r_epik_Ionization_Penalty_Charging>  (415) 
0

>  <r_epik_Ionization_Penalty_Neutral>  (415) 
3.07373e-06

>  <r_epik_State_Penalty>  (415) 
-0

>  <r_epik_Charging_Adjusted_Penalty>  (415) 
0

>  <i_epik_Tot_Q>  (415) 
0

>  <i_epik_Tot_abs_Q>  (415) 
0

>  <s_epik_Chemistry_Notes>  (415) 
This compound contains an acetal/aminal-like group ( X-CH(R)-Y where X, Y are N, S, or O) that may be acid/base labile, releasing an aldehyde.

>  <s_lp_Force_Field>  (415) 
OPLS3e

>  <r_lp_Energy>  (415) 
75.921

>  <b_lp_Chiralities_Consistent>  (415) 
1

>  <s_lp_Variant>  (415) 
102:0-1

>  <s_i_glide_gridfile>  (415) 
pfpi4k_grid

>  <i_i_glide_lignum>  (415) 
27

>  <i_i_glide_rotatable_bonds>  (415) 
1

>  <r_i_docking_score>  (415) 
-2.96121

>  <r_i_glide_ligand_efficiency>  (415) 
-0.109675

>  <r_i_glide_ligand_efficiency_sa>  (415) 
-0.329024

>  <r_i_glide_ligand_efficiency_ln>  (415) 
-0.689322

>  <r_i_glide_gscore>  (415) 
-2.96121

>  <r_i_glide_lipo>  (415) 
-0.216908

>  <r_i_glide_hbond>  (415) 
0

>  <r_i_glide_metal>  (415) 
-0

>  <r_i_glide_rewards>  (415) 
-0.841844

>  <r_i_glide_evdw>  (415) 
-29.8412

>  <r_i_glide_ecoul>  (415) 
-2.73008

>  <r_i_glide_erotb>  (415) 
0

>  <r_i_glide_esite>  (415) 
-0.000889127

>  <r_i_glide_emodel>  (415) 
-38.1776

>  <r_i_glide_energy>  (415) 
-32.5713

>  <r_i_glide_einternal>  (415) 
0.455783

>  <r_i_glide_intrahb_reward>  (415) 
-0

>  <i_i_glide_confnum>  (415) 
1

>  <i_i_glide_posenum>  (415) 
1

>  <r_i_glide_eff_state_penalty>  (415) 
0

>  <ligand_id>  (415) 
102

>  <original_smiles>  (415) 
CC12CCC3CCC4C(CCC5CC(O)CCC54C)C(CC1)C31OOC1O2

>  <smiles>  (415) 
[H]OC1([H])C([H])([H])C([H])([H])C2(C([H])([H])[H])C([H])(C([H])([H])C([H])([H])C3([H])C4([H])C([H])([H])C([H])([H])C5(C([H])([H])[H])OC6([H])OOC64C([H])(C([H])([H])C([H])([H])C32[H])C([H])([H])C5([H])[H])C1([H])[H]

$$$$
103:1:0
     RDKit          3D

 60 64  0  0  1  0  0  0  0  0999 V2000
    2.0922   -3.3336   -2.7171 C   0  0  0  0  0  0  0  0  0  0  0  0
    2.7011   -2.2876   -1.8776 N   0  0  2  0  0  0  0  0  0  0  0  0
    3.4213   -1.2048   -2.6560 C   0  0  0  0  0  0  0  0  0  0  0  0
    4.7921   -0.6747   -1.9997 C   0  0  0  0  0  0  0  0  0  0  0  0
    5.7661   -1.7858   -1.4104 C   0  0  1  0  0  0  0  0  0  0  0  0
    6.3068   -1.6248    0.0594 C   0  0  0  0  0  0  0  0  0  0  0  0
    5.3747   -1.8072    1.3294 C   0  0  1  0  0  0  0  0  0  0  0  0
    4.7461   -0.5444    1.4962 O   0  0  0  0  0  0  0  0  0  0  0  0
    4.4474   -3.1107    1.5193 C   0  0  1  0  0  0  0  0  0  0  0  0
    3.4262   -3.0356    2.6900 C   0  0  0  0  0  0  0  0  0  0  0  0
    2.5650   -1.9963    2.7655 C   0  0  0  0  0  0  0  0  0  0  0  0
    1.5759   -1.8451    3.8444 C   0  0  0  0  0  0  0  0  0  0  0  0
    0.8408   -0.8653    3.9271 O   0  0  0  0  0  0  0  0  0  0  0  0
    1.4396   -2.9253    4.8976 C   0  0  0  0  0  0  0  0  0  0  0  0
    2.7089   -3.7738    5.0323 C   0  0  0  0  0  0  0  0  0  0  0  0
    3.4014   -4.2142    3.6987 C   0  0  2  0  0  0  0  0  0  0  0  0
    4.8269   -4.6237    4.1641 C   0  0  0  0  0  0  0  0  0  0  0  0
    2.7015   -5.4732    3.0600 C   0  0  1  0  0  0  0  0  0  0  0  0
    1.1536   -5.4435    3.1111 C   0  0  0  0  0  0  0  0  0  0  0  0
    0.4514   -6.3167    2.1502 C   0  0  0  0  0  0  0  0  0  0  0  0
   -0.1054   -6.9666    1.3872 N   0  0  0  0  0  0  0  0  0  0  0  0
    3.2007   -5.8202    1.6292 C   0  0  0  0  0  0  0  0  0  0  0  0
    2.7771   -4.7999    0.5397 C   0  0  0  0  0  0  0  0  0  0  0  0
    3.8457   -3.7558    0.2286 C   0  0  2  0  0  0  0  0  0  0  0  0
    5.0332   -4.2760   -0.6159 C   0  0  0  0  0  0  0  0  0  0  0  0
    4.9813   -3.0385   -1.4955 C   0  0  1  0  0  0  0  0  0  0  0  0
    3.6606   -2.6914   -0.8555 C   0  0  1  0  0  0  0  0  0  0  0  0
    2.8374   -3.8608   -3.3011 H   0  0  0  0  0  0  0  0  0  0  0  0
    1.4141   -2.8815   -3.4286 H   0  0  0  0  0  0  0  0  0  0  0  0
    1.5255   -4.0382   -2.1191 H   0  0  0  0  0  0  0  0  0  0  0  0
    3.6587   -1.5739   -3.6501 H   0  0  0  0  0  0  0  0  0  0  0  0
    2.7486   -0.3731   -2.8150 H   0  0  0  0  0  0  0  0  0  0  0  0
    5.3200   -0.0828   -2.7186 H   0  0  0  0  0  0  0  0  0  0  0  0
    4.5657    0.0217   -1.1944 H   0  0  0  0  0  0  0  0  0  0  0  0
    6.6273   -1.8842   -2.0808 H   0  0  0  0  0  0  0  0  0  0  0  0
    7.1247   -2.3400    0.1806 H   0  0  0  0  0  0  0  0  0  0  0  0
    6.7855   -0.6498    0.1387 H   0  0  0  0  0  0  0  0  0  0  0  0
    6.0602   -1.8186    2.1761 H   0  0  0  0  0  0  0  0  0  0  0  0
    4.0933   -0.4252    0.8315 H   0  0  0  0  0  0  0  0  0  0  0  0
    5.2086   -3.8123    1.8569 H   0  0  0  0  0  0  0  0  0  0  0  0
    2.5436   -1.2256    2.0185 H   0  0  0  0  0  0  0  0  0  0  0  0
    1.2231   -2.4493    5.8553 H   0  0  0  0  0  0  0  0  0  0  0  0
    0.5618   -3.5290    4.6772 H   0  0  0  0  0  0  0  0  0  0  0  0
    3.4156   -3.1784    5.6159 H   0  0  0  0  0  0  0  0  0  0  0  0
    2.4942   -4.6418    5.6576 H   0  0  0  0  0  0  0  0  0  0  0  0
    4.8003   -5.2360    5.0680 H   0  0  0  0  0  0  0  0  0  0  0  0
    5.4275   -3.7465    4.4024 H   0  0  0  0  0  0  0  0  0  0  0  0
    5.3790   -5.2113    3.4299 H   0  0  0  0  0  0  0  0  0  0  0  0
    2.9667   -6.3314    3.6804 H   0  0  0  0  0  0  0  0  0  0  0  0
    0.7800   -5.7146    4.0952 H   0  0  0  0  0  0  0  0  0  0  0  0
    0.7837   -4.4488    2.8619 H   0  0  0  0  0  0  0  0  0  0  0  0
    4.2752   -6.0068    1.6085 H   0  0  0  0  0  0  0  0  0  0  0  0
    2.7985   -6.7903    1.3405 H   0  0  0  0  0  0  0  0  0  0  0  0
    2.5726   -5.3713   -0.3556 H   0  0  0  0  0  0  0  0  0  0  0  0
    1.8371   -4.3128    0.7751 H   0  0  0  0  0  0  0  0  0  0  0  0
    5.9867   -4.3990   -0.0916 H   0  0  0  0  0  0  0  0  0  0  0  0
    4.7772   -5.1768   -1.1885 H   0  0  0  0  0  0  0  0  0  0  0  0
    4.8853   -3.3993   -2.5104 H   0  0  0  0  0  0  0  0  0  0  0  0
    3.5770   -1.8019   -0.2490 H   0  0  0  0  0  0  0  0  0  0  0  0
    1.9327   -1.8007   -1.4012 H   0  0  0  0  0  0  0  0  0  0  0  0
  1  2  1  0
  1 28  1  0
  1 29  1  0
  1 30  1  0
  2 27  1  0
  2  3  1  0
  2 60  1  1
  3  4  1  0
  3 31  1  0
  3 32  1  0
  4  5  1  0
  4 33  1  0
  4 34  1  0
  5 26  1  0
  5  6  1  0
  5 35  1  6
  6  7  1  0
  6 36  1  0
  6 37  1  0
  7  8  1  0
  7  9  1  0
  7 38  1  1
  8 39  1  0
  9 24  1  0
  9 10  1  0
  9 40  1  1
 10 16  1  0
 10 11  2  0
 11 12  1  0
 11 41  1  0
 12 13  2  0
 12 14  1  0
 14 15  1  0
 14 42  1  0
 14 43  1  0
 15 16  1  0
 15 44  1  0
 15 45  1  0
 16 17  1  1
 16 18  1  0
 17 46  1  0
 17 47  1  0
 17 48  1  0
 18 19  1  0
 18 22  1  0
 18 49  1  1
 19 20  1  0
 19 50  1  0
 19 51  1  0
 20 21  3  0
 22 23  1  0
 22 52  1  0
 22 53  1  0
 24 23  1  1
 23 54  1  0
 23 55  1  0
 24 27  1  0
 24 25  1  0
 25 26  1  0
 25 56  1  0
 25 57  1  0
 26 27  1  0
 26 58  1  6
 27 59  1  1
M  CHG  1   2   1
M  END
>  <i_m_ct_stereo_status>  (416) 
1

>  <s_m_source_file>  (416) 
/var/tmp/pbs.5076255.sched01/tmp277fsmq3/144xeprw1xa.sdf

>  <i_m_source_file_index>  (416) 
29

>  <i_lp_mmshare_version>  (416) 
48012

>  <i_f3d_flags>  (416) 
0

>  <s_epik_input>  (416) 
W0NIMl0xW0NIMl1OKFtDSDNdKVtDQEBIXTJbQ0BIXShbQ0gyXTMpW0NASF0xW0NIMl1bQ0BASF0oW09IXSlbQ0BIXShbQ0BAXTIzNClDPTVbQ0BdKFtDSDNdKShbQ0BASF0oW0NIMl1DI04pW0NIMl1bQ0gyXTQpW0NIMl1bQ0gyXUMoPU8pW0NIXTU=

>  <s_epik_cmdline>  (416) 
J2VwaWtfcHl0aG9uJywgJy1waHQnLCAnMi4wJywgJy1waCcsICc3LjAnLCAnLXRuJywgJzgnLCAnLW1hJywgJzIwMCcsICctaW1hZScsICc8aW5maWxlLm1hZT4nLCAnLW9tYWUnLCAnPG91dGZpbGUubWFlPic=

>  <r_epik_Ionization_Penalty>  (416) 
0.000925635

>  <r_epik_Ionization_Penalty_Charging>  (416) 
0.000925522

>  <r_epik_Ionization_Penalty_Neutral>  (416) 
1.13502e-07

>  <r_epik_State_Penalty>  (416) 
0.00060018

>  <r_epik_Charging_Adjusted_Penalty>  (416) 
0.0015257

>  <i_epik_Tot_Q>  (416) 
1

>  <i_epik_Tot_abs_Q>  (416) 
1

>  <s_lp_Force_Field>  (416) 
OPLS3e

>  <r_lp_Energy>  (416) 
126.532

>  <b_lp_Chiralities_Consistent>  (416) 
1

>  <s_lp_Variant>  (416) 
103:0-2

>  <s_i_glide_gridfile>  (416) 
pfpi4k_grid

>  <i_i_glide_lignum>  (416) 
29

>  <i_i_glide_rotatable_bonds>  (416) 
3

>  <r_i_docking_score>  (416) 
-3.97406

>  <r_i_glide_ligand_efficiency>  (416) 
-0.147187

>  <r_i_glide_ligand_efficiency_sa>  (416) 
-0.441562

>  <r_i_glide_ligand_efficiency_ln>  (416) 
-0.925095

>  <r_i_glide_gscore>  (416) 
-3.97406

>  <r_i_glide_lipo>  (416) 
-0.512885

>  <r_i_glide_hbond>  (416) 
-0.213481

>  <r_i_glide_metal>  (416) 
-0

>  <r_i_glide_rewards>  (416) 
-0.898154

>  <r_i_glide_evdw>  (416) 
-22.6619

>  <r_i_glide_ecoul>  (416) 
-7.86409

>  <r_i_glide_erotb>  (416) 
0.141213

>  <r_i_glide_esite>  (416) 
-0.178039

>  <r_i_glide_emodel>  (416) 
-37.5474

>  <r_i_glide_energy>  (416) 
-30.526

>  <r_i_glide_einternal>  (416) 
1.69562

>  <r_i_glide_intrahb_reward>  (416) 
-0

>  <i_i_glide_confnum>  (416) 
1

>  <i_i_glide_posenum>  (416) 
34

>  <r_i_glide_eff_state_penalty>  (416) 
0

>  <ligand_id>  (416) 
103

>  <original_smiles>  (416) 
CN1CCC2CC(O)C3C4=CC(=O)CCC4(C)C(CC#N)CCC34CC2C14

>  <smiles>  (416) 
[H]OC1([H])C([H])([H])C2([H])C([H])([H])C([H])([H])[N+]([H])(C([H])([H])[H])C3([H])C2([H])C([H])([H])C32C([H])([H])C([H])([H])C([H])(C([H])([H])C#N)C3(C([H])([H])[H])C(=C([H])C(=O)C([H])([H])C3([H])[H])C12[H]

$$$$
103:1:1
     RDKit          3D

 60 64  0  0  1  0  0  0  0  0999 V2000
    2.0974   -3.4218   -2.7581 C   0  0  0  0  0  0  0  0  0  0  0  0
    2.6549   -2.3575   -1.9066 N   0  0  2  0  0  0  0  0  0  0  0  0
    3.3559   -1.2558   -2.6808 C   0  0  0  0  0  0  0  0  0  0  0  0
    4.6978   -0.6765   -2.0066 C   0  0  0  0  0  0  0  0  0  0  0  0
    5.6950   -1.7542   -1.3909 C   0  0  1  0  0  0  0  0  0  0  0  0
    6.2006   -1.5649    0.0884 C   0  0  0  0  0  0  0  0  0  0  0  0
    5.2508   -1.7724    1.3406 C   0  0  1  0  0  0  0  0  0  0  0  0
    4.5780   -0.5295    1.4875 O   0  0  0  0  0  0  0  0  0  0  0  0
    4.3629   -3.1059    1.5203 C   0  0  1  0  0  0  0  0  0  0  0  0
    3.3132   -3.0523    2.6672 C   0  0  0  0  0  0  0  0  0  0  0  0
    2.4244   -2.0333    2.7165 C   0  0  0  0  0  0  0  0  0  0  0  0
    1.4211   -1.8855    3.7786 C   0  0  0  0  0  0  0  0  0  0  0  0
    0.6400   -0.9392    3.8240 O   0  0  0  0  0  0  0  0  0  0  0  0
    1.3013   -2.9467    4.8426 C   0  0  0  0  0  0  0  0  0  0  0  0
    2.5888   -3.7726    5.0088 C   0  0  0  0  0  0  0  0  0  0  0  0
    3.3041   -4.2183    3.6922 C   0  0  2  0  0  0  0  0  0  0  0  0
    4.7358   -4.5863    4.1802 C   0  0  0  0  0  0  0  0  0  0  0  0
    2.6566   -5.5145    3.0659 C   0  0  1  0  0  0  0  0  0  0  0  0
    1.1099   -5.6094    3.0642 C   0  0  0  0  0  0  0  0  0  0  0  0
    0.4604   -5.8839    4.3585 C   0  0  0  0  0  0  0  0  0  0  0  0
   -0.0619   -6.0824    5.3738 N   0  0  0  0  0  0  0  0  0  0  0  0
    3.1613   -5.8569    1.6365 C   0  0  0  0  0  0  0  0  0  0  0  0
    2.7620   -4.8511    0.5211 C   0  0  0  0  0  0  0  0  0  0  0  0
    3.8117   -3.7790    0.2234 C   0  0  2  0  0  0  0  0  0  0  0  0
    5.0304   -4.2619   -0.5981 C   0  0  0  0  0  0  0  0  0  0  0  0
    4.9517   -3.0305   -1.4831 C   0  0  1  0  0  0  0  0  0  0  0  0
    3.6125   -2.7258   -0.8672 C   0  0  1  0  0  0  0  0  0  0  0  0
    2.8701   -3.9206   -3.3326 H   0  0  0  0  0  0  0  0  0  0  0  0
    1.4081   -2.9986   -3.4826 H   0  0  0  0  0  0  0  0  0  0  0  0
    1.5463   -4.1465   -2.1695 H   0  0  0  0  0  0  0  0  0  0  0  0
    3.6256   -1.6230   -3.6704 H   0  0  0  0  0  0  0  0  0  0  0  0
    2.6611   -0.4433   -2.8604 H   0  0  0  0  0  0  0  0  0  0  0  0
    5.2160   -0.0653   -2.7245 H   0  0  0  0  0  0  0  0  0  0  0  0
    4.4311    0.0141   -1.2083 H   0  0  0  0  0  0  0  0  0  0  0  0
    6.5725   -1.8346   -2.0413 H   0  0  0  0  0  0  0  0  0  0  0  0
    7.0395   -2.2512    0.2303 H   0  0  0  0  0  0  0  0  0  0  0  0
    6.6441   -0.5727    0.1691 H   0  0  0  0  0  0  0  0  0  0  0  0
    5.9186   -1.7563    2.2013 H   0  0  0  0  0  0  0  0  0  0  0  0
    3.9265   -0.4409    0.8177 H   0  0  0  0  0  0  0  0  0  0  0  0
    5.1390   -3.7805    1.8789 H   0  0  0  0  0  0  0  0  0  0  0  0
    2.3901   -1.2757    1.9579 H   0  0  0  0  0  0  0  0  0  0  0  0
    1.0399   -2.4905    5.7987 H   0  0  0  0  0  0  0  0  0  0  0  0
    0.4279   -3.5237    4.5581 H   0  0  0  0  0  0  0  0  0  0  0  0
    3.2762   -3.1579    5.5953 H   0  0  0  0  0  0  0  0  0  0  0  0
    2.4080   -4.6363    5.6494 H   0  0  0  0  0  0  0  0  0  0  0  0
    4.7117   -5.1963    5.0860 H   0  0  0  0  0  0  0  0  0  0  0  0
    5.3085   -3.6919    4.4256 H   0  0  0  0  0  0  0  0  0  0  0  0
    5.3183   -5.1625    3.4591 H   0  0  0  0  0  0  0  0  0  0  0  0
    2.9656   -6.3543    3.6893 H   0  0  0  0  0  0  0  0  0  0  0  0
    0.6744   -4.6959    2.6606 H   0  0  0  0  0  0  0  0  0  0  0  0
    0.7835   -6.4288    2.4223 H   0  0  0  0  0  0  0  0  0  0  0  0
    4.2352   -6.0430    1.6213 H   0  0  0  0  0  0  0  0  0  0  0  0
    2.7213   -6.8163    1.3593 H   0  0  0  0  0  0  0  0  0  0  0  0
    2.5993   -5.4368   -0.3772 H   0  0  0  0  0  0  0  0  0  0  0  0
    1.8153   -4.3794    0.7301 H   0  0  0  0  0  0  0  0  0  0  0  0
    5.9763   -4.3510   -0.0530 H   0  0  0  0  0  0  0  0  0  0  0  0
    4.8139   -5.1737   -1.1683 H   0  0  0  0  0  0  0  0  0  0  0  0
    4.8878   -3.3987   -2.4987 H   0  0  0  0  0  0  0  0  0  0  0  0
    3.4861   -1.8348   -0.2722 H   0  0  0  0  0  0  0  0  0  0  0  0
    1.8723   -1.8860   -1.4450 H   0  0  0  0  0  0  0  0  0  0  0  0
  1  2  1  0
  1 28  1  0
  1 29  1  0
  1 30  1  0
  2 27  1  0
  2  3  1  0
  2 60  1  1
  3  4  1  0
  3 31  1  0
  3 32  1  0
  4  5  1  0
  4 33  1  0
  4 34  1  0
  5 26  1  0
  5  6  1  0
  5 35  1  6
  6  7  1  0
  6 36  1  0
  6 37  1  0
  7  8  1  0
  7  9  1  0
  7 38  1  1
  8 39  1  0
  9 24  1  0
  9 10  1  0
  9 40  1  1
 10 16  1  0
 10 11  2  0
 11 12  1  0
 11 41  1  0
 12 13  2  0
 12 14  1  0
 14 15  1  0
 14 42  1  0
 14 43  1  0
 15 16  1  0
 15 44  1  0
 15 45  1  0
 16 17  1  1
 16 18  1  0
 17 46  1  0
 17 47  1  0
 17 48  1  0
 18 19  1  0
 18 22  1  0
 18 49  1  1
 19 20  1  0
 19 50  1  0
 19 51  1  0
 20 21  3  0
 22 23  1  0
 22 52  1  0
 22 53  1  0
 24 23  1  1
 23 54  1  0
 23 55  1  0
 24 27  1  0
 24 25  1  0
 25 26  1  0
 25 56  1  0
 25 57  1  0
 26 27  1  0
 26 58  1  6
 27 59  1  1
M  CHG  1   2   1
M  END
>  <i_m_ct_stereo_status>  (417) 
1

>  <s_m_source_file>  (417) 
/var/tmp/pbs.5076255.sched01/tmp277fsmq3/144xeprw1xa.sdf

>  <i_m_source_file_index>  (417) 
29

>  <i_lp_mmshare_version>  (417) 
48012

>  <i_f3d_flags>  (417) 
0

>  <s_epik_input>  (417) 
W0NIMl0xW0NIMl1OKFtDSDNdKVtDQEBIXTJbQ0BIXShbQ0gyXTMpW0NASF0xW0NIMl1bQ0BASF0oW09IXSlbQ0BIXShbQ0BAXTIzNClDPTVbQ0BdKFtDSDNdKShbQ0BASF0oW0NIMl1DI04pW0NIMl1bQ0gyXTQpW0NIMl1bQ0gyXUMoPU8pW0NIXTU=

>  <s_epik_cmdline>  (417) 
J2VwaWtfcHl0aG9uJywgJy1waHQnLCAnMi4wJywgJy1waCcsICc3LjAnLCAnLXRuJywgJzgnLCAnLW1hJywgJzIwMCcsICctaW1hZScsICc8aW5maWxlLm1hZT4nLCAnLW9tYWUnLCAnPG91dGZpbGUubWFlPic=

>  <r_epik_Ionization_Penalty>  (417) 
0.000925635

>  <r_epik_Ionization_Penalty_Charging>  (417) 
0.000925522

>  <r_epik_Ionization_Penalty_Neutral>  (417) 
1.13502e-07

>  <r_epik_State_Penalty>  (417) 
0.00060018

>  <r_epik_Charging_Adjusted_Penalty>  (417) 
0.0015257

>  <i_epik_Tot_Q>  (417) 
1

>  <i_epik_Tot_abs_Q>  (417) 
1

>  <s_lp_Force_Field>  (417) 
OPLS3e

>  <r_lp_Energy>  (417) 
126.532

>  <b_lp_Chiralities_Consistent>  (417) 
1

>  <s_lp_Variant>  (417) 
103:0-2

>  <s_i_glide_gridfile>  (417) 
pfpi4k_grid

>  <i_i_glide_lignum>  (417) 
29

>  <i_i_glide_rotatable_bonds>  (417) 
3

>  <r_i_docking_score>  (417) 
-3.77459

>  <r_i_glide_ligand_efficiency>  (417) 
-0.1398

>  <r_i_glide_ligand_efficiency_sa>  (417) 
-0.419399

>  <r_i_glide_ligand_efficiency_ln>  (417) 
-0.878663

>  <r_i_glide_gscore>  (417) 
-3.77459

>  <r_i_glide_lipo>  (417) 
-0.482601

>  <r_i_glide_hbond>  (417) 
-0.2

>  <r_i_glide_metal>  (417) 
-0

>  <r_i_glide_rewards>  (417) 
-0.904327

>  <r_i_glide_evdw>  (417) 
-21.346

>  <r_i_glide_ecoul>  (417) 
-7.75562

>  <r_i_glide_erotb>  (417) 
0.141213

>  <r_i_glide_esite>  (417) 
-0.0982342

>  <r_i_glide_emodel>  (417) 
-36.3692

>  <r_i_glide_energy>  (417) 
-29.1017

>  <r_i_glide_einternal>  (417) 
0.644241

>  <r_i_glide_intrahb_reward>  (417) 
-0

>  <i_i_glide_confnum>  (417) 
1

>  <i_i_glide_posenum>  (417) 
9

>  <r_i_glide_eff_state_penalty>  (417) 
0

>  <ligand_id>  (417) 
103

>  <original_smiles>  (417) 
CN1CCC2CC(O)C3C4=CC(=O)CCC4(C)C(CC#N)CCC34CC2C14

>  <smiles>  (417) 
[H]OC1([H])C([H])([H])C2([H])C([H])([H])C([H])([H])[N+]([H])(C([H])([H])[H])C3([H])C2([H])C([H])([H])C32C([H])([H])C([H])([H])C([H])(C([H])([H])C#N)C3(C([H])([H])[H])C(=C([H])C(=O)C([H])([H])C3([H])[H])C12[H]

$$$$
103:1:2
     RDKit          3D

 60 64  0  0  1  0  0  0  0  0999 V2000
    1.9588   -3.4047   -2.5871 C   0  0  0  0  0  0  0  0  0  0  0  0
    2.6650   -2.3948   -1.7710 N   0  0  2  0  0  0  0  0  0  0  0  0
    3.3842   -1.3504   -2.5730 C   0  0  0  0  0  0  0  0  0  0  0  0
    4.8102   -0.8802   -1.9740 C   0  0  0  0  0  0  0  0  0  0  0  0
    5.7633   -2.0424   -1.4461 C   0  0  1  0  0  0  0  0  0  0  0  0
    6.3817   -1.9236   -0.0006 C   0  0  0  0  0  0  0  0  0  0  0  0
    5.4991   -2.0711    1.3082 C   0  0  1  0  0  0  0  0  0  0  0  0
    4.9178   -0.7895    1.4607 O   0  0  0  0  0  0  0  0  0  0  0  0
    4.5160   -3.3288    1.5387 C   0  0  1  0  0  0  0  0  0  0  0  0
    3.5555   -3.2098    2.7491 C   0  0  0  0  0  0  0  0  0  0  0  0
    2.7518   -2.1276    2.8731 C   0  0  0  0  0  0  0  0  0  0  0  0
    1.8222   -1.9322    3.9914 C   0  0  0  0  0  0  0  0  0  0  0  0
    1.1433   -0.9208    4.1189 O   0  0  0  0  0  0  0  0  0  0  0  0
    1.6755   -3.0195    5.0426 C   0  0  0  0  0  0  0  0  0  0  0  0
    2.9073   -3.9286    5.1178 C   0  0  0  0  0  0  0  0  0  0  0  0
    3.5127   -4.3921    3.7539 C   0  0  2  0  0  0  0  0  0  0  0  0
    4.9365   -4.8777    4.1503 C   0  0  0  0  0  0  0  0  0  0  0  0
    2.7221   -5.6092    3.1392 C   0  0  1  0  0  0  0  0  0  0  0  0
    1.1804   -5.4950    3.2594 C   0  0  0  0  0  0  0  0  0  0  0  0
    0.4023   -6.4464    2.4480 C   0  0  0  0  0  0  0  0  0  0  0  0
   -0.2133   -7.1654    1.7947 N   0  0  0  0  0  0  0  0  0  0  0  0
    3.1299   -5.9731    1.6840 C   0  0  0  0  0  0  0  0  0  0  0  0
    2.7200   -4.9256    0.6156 C   0  0  0  0  0  0  0  0  0  0  0  0
    3.8313   -3.9328    0.2748 C   0  0  2  0  0  0  0  0  0  0  0  0
    4.9497   -4.5017   -0.6285 C   0  0  0  0  0  0  0  0  0  0  0  0
    4.9195   -3.2509   -1.4969 C   0  0  1  0  0  0  0  0  0  0  0  0
    3.6383   -2.8485   -0.8007 C   0  0  1  0  0  0  0  0  0  0  0  0
    2.6443   -3.9467   -3.2232 H   0  0  0  0  0  0  0  0  0  0  0  0
    1.2713   -2.9101   -3.2556 H   0  0  0  0  0  0  0  0  0  0  0  0
    1.3984   -4.0847   -1.9649 H   0  0  0  0  0  0  0  0  0  0  0  0
    3.5712   -1.7149   -3.5826 H   0  0  0  0  0  0  0  0  0  0  0  0
    2.7527   -0.4767   -2.7091 H   0  0  0  0  0  0  0  0  0  0  0  0
    5.3108   -0.2791   -2.7172 H   0  0  0  0  0  0  0  0  0  0  0  0
    4.6290   -0.1900   -1.1532 H   0  0  0  0  0  0  0  0  0  0  0  0
    6.5848   -2.1754   -2.1586 H   0  0  0  0  0  0  0  0  0  0  0  0
    7.1615   -2.6822    0.0771 H   0  0  0  0  0  0  0  0  0  0  0  0
    6.9184   -0.9790    0.0695 H   0  0  0  0  0  0  0  0  0  0  0  0
    6.2119   -2.1109    2.1325 H   0  0  0  0  0  0  0  0  0  0  0  0
    5.6058   -0.1492    1.4270 H   0  0  0  0  0  0  0  0  0  0  0  0
    5.2563   -4.0677    1.8361 H   0  0  0  0  0  0  0  0  0  0  0  0
    2.7419   -1.3508    2.1294 H   0  0  0  0  0  0  0  0  0  0  0  0
    1.5197   -2.5436    6.0121 H   0  0  0  0  0  0  0  0  0  0  0  0
    0.7623   -3.5747    4.8420 H   0  0  0  0  0  0  0  0  0  0  0  0
    3.6669   -3.3732    5.6746 H   0  0  0  0  0  0  0  0  0  0  0  0
    2.6771   -4.7885    5.7500 H   0  0  0  0  0  0  0  0  0  0  0  0
    4.9212   -5.4953    5.0522 H   0  0  0  0  0  0  0  0  0  0  0  0
    5.5922   -4.0340    4.3668 H   0  0  0  0  0  0  0  0  0  0  0  0
    5.4243   -5.4864    3.3885 H   0  0  0  0  0  0  0  0  0  0  0  0
    2.9681   -6.4818    3.7463 H   0  0  0  0  0  0  0  0  0  0  0  0
    0.8456   -5.6561    4.2816 H   0  0  0  0  0  0  0  0  0  0  0  0
    0.8406   -4.5124    2.9299 H   0  0  0  0  0  0  0  0  0  0  0  0
    4.1906   -6.2196    1.6143 H   0  0  0  0  0  0  0  0  0  0  0  0
    2.6558   -6.9135    1.4080 H   0  0  0  0  0  0  0  0  0  0  0  0
    2.4500   -5.4674   -0.2855 H   0  0  0  0  0  0  0  0  0  0  0  0
    1.8208   -4.3862    0.9029 H   0  0  0  0  0  0  0  0  0  0  0  0
    5.9180   -4.6747   -0.1478 H   0  0  0  0  0  0  0  0  0  0  0  0
    4.6190   -5.3868   -1.1782 H   0  0  0  0  0  0  0  0  0  0  0  0
    4.7501   -3.6045   -2.5089 H   0  0  0  0  0  0  0  0  0  0  0  0
    3.6312   -1.9596   -0.1799 H   0  0  0  0  0  0  0  0  0  0  0  0
    1.9320   -1.8742   -1.2623 H   0  0  0  0  0  0  0  0  0  0  0  0
  1  2  1  0
  1 28  1  0
  1 29  1  0
  1 30  1  0
  2 27  1  0
  2  3  1  0
  2 60  1  1
  3  4  1  0
  3 31  1  0
  3 32  1  0
  4  5  1  0
  4 33  1  0
  4 34  1  0
  5 26  1  0
  5  6  1  0
  5 35  1  6
  6  7  1  0
  6 36  1  0
  6 37  1  0
  7  8  1  0
  7  9  1  0
  7 38  1  1
  8 39  1  0
  9 24  1  0
  9 10  1  0
  9 40  1  1
 10 16  1  0
 10 11  2  0
 11 12  1  0
 11 41  1  0
 12 13  2  0
 12 14  1  0
 14 15  1  0
 14 42  1  0
 14 43  1  0
 15 16  1  0
 15 44  1  0
 15 45  1  0
 16 17  1  1
 16 18  1  0
 17 46  1  0
 17 47  1  0
 17 48  1  0
 18 19  1  0
 18 22  1  0
 18 49  1  1
 19 20  1  0
 19 50  1  0
 19 51  1  0
 20 21  3  0
 22 23  1  0
 22 52  1  0
 22 53  1  0
 24 23  1  1
 23 54  1  0
 23 55  1  0
 24 27  1  0
 24 25  1  0
 25 26  1  0
 25 56  1  0
 25 57  1  0
 26 27  1  0
 26 58  1  6
 27 59  1  1
M  CHG  1   2   1
M  END
>  <i_m_ct_stereo_status>  (418) 
1

>  <s_m_source_file>  (418) 
/var/tmp/pbs.5076255.sched01/tmp277fsmq3/144xeprw1xa.sdf

>  <i_m_source_file_index>  (418) 
29

>  <i_lp_mmshare_version>  (418) 
48012

>  <i_f3d_flags>  (418) 
0

>  <s_epik_input>  (418) 
W0NIMl0xW0NIMl1OKFtDSDNdKVtDQEBIXTJbQ0BIXShbQ0gyXTMpW0NASF0xW0NIMl1bQ0BASF0oW09IXSlbQ0BIXShbQ0BAXTIzNClDPTVbQ0BdKFtDSDNdKShbQ0BASF0oW0NIMl1DI04pW0NIMl1bQ0gyXTQpW0NIMl1bQ0gyXUMoPU8pW0NIXTU=

>  <s_epik_cmdline>  (418) 
J2VwaWtfcHl0aG9uJywgJy1waHQnLCAnMi4wJywgJy1waCcsICc3LjAnLCAnLXRuJywgJzgnLCAnLW1hJywgJzIwMCcsICctaW1hZScsICc8aW5maWxlLm1hZT4nLCAnLW9tYWUnLCAnPG91dGZpbGUubWFlPic=

>  <r_epik_Ionization_Penalty>  (418) 
0.000925635

>  <r_epik_Ionization_Penalty_Charging>  (418) 
0.000925522

>  <r_epik_Ionization_Penalty_Neutral>  (418) 
1.13502e-07

>  <r_epik_State_Penalty>  (418) 
0.00060018

>  <r_epik_Charging_Adjusted_Penalty>  (418) 
0.0015257

>  <i_epik_Tot_Q>  (418) 
1

>  <i_epik_Tot_abs_Q>  (418) 
1

>  <s_lp_Force_Field>  (418) 
OPLS3e

>  <r_lp_Energy>  (418) 
126.532

>  <b_lp_Chiralities_Consistent>  (418) 
1

>  <s_lp_Variant>  (418) 
103:0-2

>  <s_i_glide_gridfile>  (418) 
pfpi4k_grid

>  <i_i_glide_lignum>  (418) 
29

>  <i_i_glide_rotatable_bonds>  (418) 
3

>  <r_i_docking_score>  (418) 
-3.67402

>  <r_i_glide_ligand_efficiency>  (418) 
-0.136075

>  <r_i_glide_ligand_efficiency_sa>  (418) 
-0.408225

>  <r_i_glide_ligand_efficiency_ln>  (418) 
-0.855252

>  <r_i_glide_gscore>  (418) 
-3.67402

>  <r_i_glide_lipo>  (418) 
-0.44099

>  <r_i_glide_hbond>  (418) 
-0.206267

>  <r_i_glide_metal>  (418) 
-0

>  <r_i_glide_rewards>  (418) 
-0.894382

>  <r_i_glide_evdw>  (418) 
-22.1028

>  <r_i_glide_ecoul>  (418) 
-6.67046

>  <r_i_glide_erotb>  (418) 
0.141213

>  <r_i_glide_esite>  (418) 
-0.167886

>  <r_i_glide_emodel>  (418) 
-35.7317

>  <r_i_glide_energy>  (418) 
-28.7733

>  <r_i_glide_einternal>  (418) 
1.12277

>  <r_i_glide_intrahb_reward>  (418) 
-0

>  <i_i_glide_confnum>  (418) 
1

>  <i_i_glide_posenum>  (418) 
24

>  <r_i_glide_eff_state_penalty>  (418) 
0

>  <ligand_id>  (418) 
103

>  <original_smiles>  (418) 
CN1CCC2CC(O)C3C4=CC(=O)CCC4(C)C(CC#N)CCC34CC2C14

>  <smiles>  (418) 
[H]OC1([H])C([H])([H])C2([H])C([H])([H])C([H])([H])[N+]([H])(C([H])([H])[H])C3([H])C2([H])C([H])([H])C32C([H])([H])C([H])([H])C([H])(C([H])([H])C#N)C3(C([H])([H])[H])C(=C([H])C(=O)C([H])([H])C3([H])[H])C12[H]

$$$$
104:0:0
     RDKit          3D

 73 78  0  0  1  0  0  0  0  0999 V2000
   -1.2679    2.1671    3.2761 C   0  0  0  0  0  0  0  0  0  0  0  0
   -0.5448    1.7851    4.5877 C   0  0  2  0  0  0  0  0  0  0  0  0
    0.8721    2.4242    4.6419 C   0  0  0  0  0  0  0  0  0  0  0  0
    1.9981    1.7953    3.7646 C   0  0  1  0  0  0  0  0  0  0  0  0
    3.0139    2.7740    3.7024 O   0  0  0  0  0  0  0  0  0  0  0  0
    2.6223    0.4744    4.2885 C   0  0  1  0  0  0  0  0  0  0  0  0
    3.0989    0.4904    5.8155 C   0  0  0  0  0  0  0  0  0  0  0  0
    1.8986   -0.2194    5.3999 C   0  0  2  0  0  0  0  0  0  0  0  0
    1.2723   -1.5381    5.6677 C   0  0  2  0  0  0  0  0  0  0  0  0
    1.0179   -2.5049    4.5310 C   0  0  0  0  0  0  0  0  0  0  0  0
    1.6954   -2.0899    3.2193 C   0  0  0  0  0  0  0  0  0  0  0  0
    3.2444   -1.8791    3.3332 C   0  0  1  0  0  0  0  0  0  0  0  0
    4.0407   -2.7926    2.3082 C   0  0  1  0  0  0  0  0  0  0  0  0
    5.5488   -2.7962    2.6627 C   0  0  0  0  0  0  0  0  0  0  0  0
    3.6191   -4.2980    2.4190 C   0  0  0  0  0  0  0  0  0  0  0  0
    4.1278   -5.1881    1.2698 C   0  0  0  0  0  0  0  0  0  0  0  0
    3.7764   -4.6072   -0.1043 C   0  0  1  0  0  0  0  0  0  0  0  0
    2.3751   -4.7197   -0.3031 O   0  0  0  0  0  0  0  0  0  0  0  0
    4.2689   -3.1485   -0.3239 C   0  0  0  0  0  0  0  0  0  0  0  0
    5.8061   -3.1587   -0.5025 C   0  0  0  0  0  0  0  0  0  0  0  0
    3.6883   -2.6276   -1.6618 C   0  0  0  0  0  0  0  0  0  0  0  0
    3.7605   -2.2535    0.8643 C   0  0  2  0  0  0  0  0  0  0  0  0
    4.1012   -0.7487    0.7526 C   0  0  0  0  0  0  0  0  0  0  0  0
    3.3596    0.1107    1.7938 C   0  0  0  0  0  0  0  0  0  0  0  0
    3.5515   -0.3210    3.2845 C   0  0  1  0  0  0  0  0  0  0  0  0
    5.0163    0.0277    3.6837 C   0  0  0  0  0  0  0  0  0  0  0  0
    0.4881   -0.1886    5.8187 C   0  0  2  0  0  0  0  0  0  0  0  0
   -0.5730    0.2558    4.8304 C   0  0  1  0  0  0  0  0  0  0  0  0
   -1.9539   -0.2597    5.2617 C   0  0  0  0  0  0  0  0  0  0  0  0
   -0.7886    1.7247    2.4042 H   0  0  0  0  0  0  0  0  0  0  0  0
   -1.2835    3.2463    3.1268 H   0  0  0  0  0  0  0  0  0  0  0  0
   -2.3033    1.8352    3.2837 H   0  0  0  0  0  0  0  0  0  0  0  0
   -1.1110    2.2569    5.3915 H   0  0  0  0  0  0  0  0  0  0  0  0
    0.7509    3.4618    4.3321 H   0  0  0  0  0  0  0  0  0  0  0  0
    1.1902    2.5056    5.6813 H   0  0  0  0  0  0  0  0  0  0  0  0
    1.5686    1.6467    2.7766 H   0  0  0  0  0  0  0  0  0  0  0  0
    3.6189    2.5657    3.0014 H   0  0  0  0  0  0  0  0  0  0  0  0
    3.9268   -0.1345    6.1358 H   0  0  0  0  0  0  0  0  0  0  0  0
    2.9875    1.4137    6.3792 H   0  0  0  0  0  0  0  0  0  0  0  0
    1.5264   -2.0200    6.6119 H   0  0  0  0  0  0  0  0  0  0  0  0
    1.3673   -3.4929    4.8314 H   0  0  0  0  0  0  0  0  0  0  0  0
   -0.0591   -2.5847    4.3819 H   0  0  0  0  0  0  0  0  0  0  0  0
    1.4062   -2.8016    2.4524 H   0  0  0  0  0  0  0  0  0  0  0  0
    1.2151   -1.1902    2.8493 H   0  0  0  0  0  0  0  0  0  0  0  0
    3.5396   -2.2328    4.3258 H   0  0  0  0  0  0  0  0  0  0  0  0
    6.0432   -3.7428    2.4568 H   0  0  0  0  0  0  0  0  0  0  0  0
    5.7139   -2.6447    3.7285 H   0  0  0  0  0  0  0  0  0  0  0  0
    6.1280   -2.0531    2.1202 H   0  0  0  0  0  0  0  0  0  0  0  0
    3.9685   -4.7102    3.3674 H   0  0  0  0  0  0  0  0  0  0  0  0
    2.5456   -4.4459    2.4313 H   0  0  0  0  0  0  0  0  0  0  0  0
    5.2021   -5.3460    1.3359 H   0  0  0  0  0  0  0  0  0  0  0  0
    3.7002   -6.1879    1.3671 H   0  0  0  0  0  0  0  0  0  0  0  0
    4.2399   -5.2522   -0.8493 H   0  0  0  0  0  0  0  0  0  0  0  0
    2.2502   -4.9078   -1.2261 H   0  0  0  0  0  0  0  0  0  0  0  0
    6.2173   -2.1501   -0.5361 H   0  0  0  0  0  0  0  0  0  0  0  0
    6.0856   -3.6568   -1.4328 H   0  0  0  0  0  0  0  0  0  0  0  0
    6.3222   -3.6995    0.2876 H   0  0  0  0  0  0  0  0  0  0  0  0
    4.1628   -1.6950   -1.9684 H   0  0  0  0  0  0  0  0  0  0  0  0
    2.6167   -2.4347   -1.5846 H   0  0  0  0  0  0  0  0  0  0  0  0
    3.8381   -3.3450   -2.4698 H   0  0  0  0  0  0  0  0  0  0  0  0
    2.6775   -2.2806    0.7429 H   0  0  0  0  0  0  0  0  0  0  0  0
    5.1706   -0.5720    0.7999 H   0  0  0  0  0  0  0  0  0  0  0  0
    3.7935   -0.3807   -0.2225 H   0  0  0  0  0  0  0  0  0  0  0  0
    3.6758    1.1415    1.6593 H   0  0  0  0  0  0  0  0  0  0  0  0
    2.3072    0.0845    1.5161 H   0  0  0  0  0  0  0  0  0  0  0  0
    5.7181   -0.1099    2.8667 H   0  0  0  0  0  0  0  0  0  0  0  0
    5.3792   -0.5669    4.5242 H   0  0  0  0  0  0  0  0  0  0  0  0
    5.1157    1.0744    3.9712 H   0  0  0  0  0  0  0  0  0  0  0  0
    0.3015    0.1262    6.8441 H   0  0  0  0  0  0  0  0  0  0  0  0
   -0.3497   -0.2089    3.8723 H   0  0  0  0  0  0  0  0  0  0  0  0
   -2.3058    0.2187    6.1773 H   0  0  0  0  0  0  0  0  0  0  0  0
   -1.9469   -1.3400    5.4104 H   0  0  0  0  0  0  0  0  0  0  0  0
   -2.6840   -0.0583    4.4860 H   0  0  0  0  0  0  0  0  0  0  0  0
  1  2  1  0
  1 30  1  0
  1 31  1  0
  1 32  1  0
  2 28  1  0
  2  3  1  0
  2 33  1  1
  3  4  1  0
  3 34  1  0
  3 35  1  0
  4  5  1  0
  4  6  1  0
  4 36  1  6
  5 37  1  0
  6  8  1  0
  6 25  1  0
  6  7  1  1
  8  7  1  1
  7 38  1  0
  7 39  1  0
  8 27  1  0
  8  9  1  0
  9 10  1  0
  9 27  1  0
  9 40  1  1
 10 11  1  0
 10 41  1  0
 10 42  1  0
 11 12  1  0
 11 43  1  0
 11 44  1  0
 12 25  1  0
 12 13  1  0
 12 45  1  1
 13 22  1  0
 13 14  1  1
 13 15  1  0
 14 46  1  0
 14 47  1  0
 14 48  1  0
 15 16  1  0
 15 49  1  0
 15 50  1  0
 16 17  1  0
 16 51  1  0
 16 52  1  0
 17 18  1  0
 17 19  1  0
 17 53  1  6
 18 54  1  0
 19 20  1  0
 19 21  1  0
 19 22  1  0
 20 55  1  0
 20 56  1  0
 20 57  1  0
 21 58  1  0
 21 59  1  0
 21 60  1  0
 22 23  1  0
 22 61  1  6
 23 24  1  0
 23 62  1  0
 23 63  1  0
 24 25  1  0
 24 64  1  0
 24 65  1  0
 25 26  1  1
 26 66  1  0
 26 67  1  0
 26 68  1  0
 27 28  1  0
 27 69  1  1
 28 29  1  0
 28 70  1  6
 29 71  1  0
 29 72  1  0
 29 73  1  0
M  END
>  <i_m_ct_stereo_status>  (419) 
1

>  <s_m_source_file>  (419) 
/var/tmp/pbs.5076255.sched01/tmp277fsmq3/144xeprw1xa.sdf

>  <i_m_source_file_index>  (419) 
30

>  <i_lp_mmshare_version>  (419) 
48012

>  <i_f3d_flags>  (419) 
0

>  <s_epik_input>  (419) 
W09IXVtDQEBIXTFbQ0gyXVtDQEBIXShbQ0gzXSlbQ0BIXShbQ0gzXSlbQ0BIXTJbQ0BIXShDMihbQ0BAXTEzNClbQ0gyXTMpW0NIMl1bQ0gyXVtDQEhdNVtDQF02KFtDSDNdKVtDQEhdKEMoW0NIM10pKFtDSDNdKVtDQEhdKFtPSF0pW0NIMl1bQ0gyXTYpW0NIMl1bQ0gyXVtDQEBdNDVbQ0gzXQ==

>  <s_epik_cmdline>  (419) 
J2VwaWtfcHl0aG9uJywgJy1waHQnLCAnMi4wJywgJy1waCcsICc3LjAnLCAnLXRuJywgJzgnLCAnLW1hJywgJzIwMCcsICctaW1hZScsICc8aW5maWxlLm1hZT4nLCAnLW9tYWUnLCAnPG91dGZpbGUubWFlPic=

>  <r_lp_tautomer_probability>  (419) 
1

>  <r_epik_Ionization_Penalty>  (419) 
7.19914e-06

>  <r_epik_Ionization_Penalty_Charging>  (419) 
0

>  <r_epik_Ionization_Penalty_Neutral>  (419) 
7.19914e-06

>  <r_epik_State_Penalty>  (419) 
-0

>  <r_epik_Charging_Adjusted_Penalty>  (419) 
0

>  <i_epik_Tot_Q>  (419) 
0

>  <i_epik_Tot_abs_Q>  (419) 
0

>  <s_lp_Force_Field>  (419) 
OPLS3e

>  <r_lp_Energy>  (419) 
70.701

>  <b_lp_Chiralities_Consistent>  (419) 
1

>  <s_lp_Variant>  (419) 
104:0-1

>  <s_i_glide_gridfile>  (419) 
pfpi4k_grid

>  <i_i_glide_lignum>  (419) 
30

>  <i_i_glide_rotatable_bonds>  (419) 
2

>  <r_i_docking_score>  (419) 
-3.80051

>  <r_i_glide_ligand_efficiency>  (419) 
-0.131052

>  <r_i_glide_ligand_efficiency_sa>  (419) 
-0.402633

>  <r_i_glide_ligand_efficiency_ln>  (419) 
-0.870219

>  <r_i_glide_gscore>  (419) 
-3.80051

>  <r_i_glide_lipo>  (419) 
-0.329148

>  <r_i_glide_hbond>  (419) 
-0.516886

>  <r_i_glide_metal>  (419) 
-0

>  <r_i_glide_rewards>  (419) 
-0.677475

>  <r_i_glide_evdw>  (419) 
-27.2472

>  <r_i_glide_ecoul>  (419) 
-6.09757

>  <r_i_glide_erotb>  (419) 
0

>  <r_i_glide_esite>  (419) 
0

>  <r_i_glide_emodel>  (419) 
-40.1455

>  <r_i_glide_energy>  (419) 
-33.3448

>  <r_i_glide_einternal>  (419) 
1.24955

>  <r_i_glide_intrahb_reward>  (419) 
-0

>  <i_i_glide_confnum>  (419) 
1

>  <i_i_glide_posenum>  (419) 
7

>  <r_i_glide_eff_state_penalty>  (419) 
0

>  <ligand_id>  (419) 
104

>  <original_smiles>  (419) 
CC1CC(O)C23CC24C(CCC2C5(C)CCC(O)C(C)(C)C5CCC23C)C4C1C

>  <smiles>  (419) 
[H]OC1([H])C([H])([H])C([H])([H])C2(C([H])([H])[H])C([H])(C([H])([H])C([H])([H])C3(C([H])([H])[H])C2([H])C([H])([H])C([H])([H])C2([H])C4([H])C([H])(C([H])([H])[H])C([H])(C([H])([H])[H])C([H])([H])C([H])(O[H])C35C([H])([H])C245)C1(C([H])([H])[H])C([H])([H])[H]

$$$$
104:0:1
     RDKit          3D

 73 78  0  0  1  0  0  0  0  0999 V2000
    5.6540   -3.4542   -3.0171 C   0  0  0  0  0  0  0  0  0  0  0  0
    5.8194   -2.4645   -1.8623 C   0  0  2  0  0  0  0  0  0  0  0  0
    6.8951   -2.9416   -0.8351 C   0  0  0  0  0  0  0  0  0  0  0  0
    6.5241   -4.0912    0.1464 C   0  0  1  0  0  0  0  0  0  0  0  0
    7.7492   -4.5655    0.6778 O   0  0  0  0  0  0  0  0  0  0  0  0
    5.5770   -3.7166    1.3108 C   0  0  1  0  0  0  0  0  0  0  0  0
    5.9974   -2.4270    2.1346 C   0  0  0  0  0  0  0  0  0  0  0  0
    4.8985   -2.3828    1.2211 C   0  0  2  0  0  0  0  0  0  0  0  0
    3.5436   -1.8277    1.2653 C   0  0  2  0  0  0  0  0  0  0  0  0
    2.3689   -2.7646    1.0911 C   0  0  0  0  0  0  0  0  0  0  0  0
    2.7283   -4.2473    1.1601 C   0  0  0  0  0  0  0  0  0  0  0  0
    3.4407   -4.6665    2.4837 C   0  0  1  0  0  0  0  0  0  0  0  0
    2.6625   -5.8297    3.2394 C   0  0  1  0  0  0  0  0  0  0  0  0
    3.2169   -5.9893    4.6855 C   0  0  0  0  0  0  0  0  0  0  0  0
    1.1461   -5.4846    3.4378 C   0  0  0  0  0  0  0  0  0  0  0  0
    0.2676   -6.6757    3.8775 C   0  0  0  0  0  0  0  0  0  0  0  0
    0.4306   -7.8926    2.9545 C   0  0  1  0  0  0  0  0  0  0  0  0
   -0.1558   -7.5715    1.7037 O   0  0  0  0  0  0  0  0  0  0  0  0
    1.9190   -8.3502    2.8092 C   0  0  0  0  0  0  0  0  0  0  0  0
    2.3746   -9.0247    4.1197 C   0  0  0  0  0  0  0  0  0  0  0  0
    2.0037   -9.4491    1.7340 C   0  0  0  0  0  0  0  0  0  0  0  0
    2.8003   -7.1255    2.3702 C   0  0  2  0  0  0  0  0  0  0  0  0
    4.2824   -7.4554    2.0710 C   0  0  0  0  0  0  0  0  0  0  0  0
    5.0337   -6.2907    1.3974 C   0  0  0  0  0  0  0  0  0  0  0  0
    4.9674   -4.9246    2.1502 C   0  0  1  0  0  0  0  0  0  0  0  0
    5.8358   -5.0915    3.4270 C   0  0  0  0  0  0  0  0  0  0  0  0
    4.5484   -1.5088    0.1064 C   0  0  2  0  0  0  0  0  0  0  0  0
    4.4388   -2.1233   -1.2792 C   0  0  1  0  0  0  0  0  0  0  0  0
    3.6154   -1.2337   -2.2218 C   0  0  0  0  0  0  0  0  0  0  0  0
    5.2453   -4.4089   -2.6708 H   0  0  0  0  0  0  0  0  0  0  0  0
    6.6176   -3.6549   -3.4789 H   0  0  0  0  0  0  0  0  0  0  0  0
    5.0066   -3.0813   -3.8062 H   0  0  0  0  0  0  0  0  0  0  0  0
    6.2129   -1.5518   -2.3111 H   0  0  0  0  0  0  0  0  0  0  0  0
    7.7581   -3.2653   -1.4163 H   0  0  0  0  0  0  0  0  0  0  0  0
    7.2780   -2.0812   -0.2832 H   0  0  0  0  0  0  0  0  0  0  0  0
    6.0637   -4.8714   -0.4550 H   0  0  0  0  0  0  0  0  0  0  0  0
    7.5740   -5.3393    1.1982 H   0  0  0  0  0  0  0  0  0  0  0  0
    5.7543   -2.3623    3.1897 H   0  0  0  0  0  0  0  0  0  0  0  0
    6.9298   -1.9086    1.8511 H   0  0  0  0  0  0  0  0  0  0  0  0
    3.3537   -0.9933    1.9401 H   0  0  0  0  0  0  0  0  0  0  0  0
    1.6189   -2.5074    1.8430 H   0  0  0  0  0  0  0  0  0  0  0  0
    1.9388   -2.5921    0.1075 H   0  0  0  0  0  0  0  0  0  0  0  0
    1.8395   -4.8247    0.9323 H   0  0  0  0  0  0  0  0  0  0  0  0
    3.3410   -4.4909    0.2945 H   0  0  0  0  0  0  0  0  0  0  0  0
    3.3934   -3.8044    3.1529 H   0  0  0  0  0  0  0  0  0  0  0  0
    2.4611   -6.2825    5.4098 H   0  0  0  0  0  0  0  0  0  0  0  0
    3.6127   -5.0537    5.0775 H   0  0  0  0  0  0  0  0  0  0  0  0
    3.9895   -6.7483    4.7680 H   0  0  0  0  0  0  0  0  0  0  0  0
    1.0492   -4.6771    4.1630 H   0  0  0  0  0  0  0  0  0  0  0  0
    0.6757   -5.1028    2.5404 H   0  0  0  0  0  0  0  0  0  0  0  0
    0.4866   -6.9585    4.9040 H   0  0  0  0  0  0  0  0  0  0  0  0
   -0.7797   -6.3684    3.9006 H   0  0  0  0  0  0  0  0  0  0  0  0
   -0.1518   -8.7155    3.3737 H   0  0  0  0  0  0  0  0  0  0  0  0
   -0.1627   -8.3650    1.1691 H   0  0  0  0  0  0  0  0  0  0  0  0
    3.4368   -9.2725    4.1011 H   0  0  0  0  0  0  0  0  0  0  0  0
    1.8346   -9.9613    4.2817 H   0  0  0  0  0  0  0  0  0  0  0  0
    2.1894   -8.4212    5.0026 H   0  0  0  0  0  0  0  0  0  0  0  0
    2.9606   -9.9789    1.7447 H   0  0  0  0  0  0  0  0  0  0  0  0
    1.8914   -9.0391    0.7376 H   0  0  0  0  0  0  0  0  0  0  0  0
    1.2249  -10.2026    1.8817 H   0  0  0  0  0  0  0  0  0  0  0  0
    2.3973   -6.8732    1.3919 H   0  0  0  0  0  0  0  0  0  0  0  0
    4.8023   -7.7812    2.9652 H   0  0  0  0  0  0  0  0  0  0  0  0
    4.3476   -8.2923    1.3805 H   0  0  0  0  0  0  0  0  0  0  0  0
    6.0726   -6.5940    1.2714 H   0  0  0  0  0  0  0  0  0  0  0  0
    4.6247   -6.1981    0.3946 H   0  0  0  0  0  0  0  0  0  0  0  0
    5.7403   -6.0707    3.8872 H   0  0  0  0  0  0  0  0  0  0  0  0
    5.6083   -4.3503    4.1969 H   0  0  0  0  0  0  0  0  0  0  0  0
    6.8977   -5.0513    3.1885 H   0  0  0  0  0  0  0  0  0  0  0  0
    4.9806   -0.5073    0.1196 H   0  0  0  0  0  0  0  0  0  0  0  0
    3.9066   -3.0631   -1.1704 H   0  0  0  0  0  0  0  0  0  0  0  0
    4.1058   -0.2814   -2.4169 H   0  0  0  0  0  0  0  0  0  0  0  0
    2.6397   -1.0263   -1.7877 H   0  0  0  0  0  0  0  0  0  0  0  0
    3.4242   -1.7260   -3.1765 H   0  0  0  0  0  0  0  0  0  0  0  0
  1  2  1  0
  1 30  1  0
  1 31  1  0
  1 32  1  0
  2 28  1  0
  2  3  1  0
  2 33  1  6
  3  4  1  0
  3 34  1  0
  3 35  1  0
  4  5  1  0
  4  6  1  0
  4 36  1  6
  5 37  1  0
  6  8  1  0
  6 25  1  0
  6  7  1  1
  8  7  1  1
  7 38  1  0
  7 39  1  0
  8 27  1  0
  8  9  1  0
  9 10  1  0
  9 27  1  0
  9 40  1  1
 10 11  1  0
 10 41  1  0
 10 42  1  0
 11 12  1  0
 11 43  1  0
 11 44  1  0
 12 25  1  0
 12 13  1  0
 12 45  1  1
 13 22  1  0
 13 14  1  1
 13 15  1  0
 14 46  1  0
 14 47  1  0
 14 48  1  0
 15 16  1  0
 15 49  1  0
 15 50  1  0
 16 17  1  0
 16 51  1  0
 16 52  1  0
 17 18  1  0
 17 19  1  0
 17 53  1  1
 18 54  1  0
 19 20  1  0
 19 21  1  0
 19 22  1  0
 20 55  1  0
 20 56  1  0
 20 57  1  0
 21 58  1  0
 21 59  1  0
 21 60  1  0
 22 23  1  0
 22 61  1  6
 23 24  1  0
 23 62  1  0
 23 63  1  0
 24 25  1  0
 24 64  1  0
 24 65  1  0
 25 26  1  1
 26 66  1  0
 26 67  1  0
 26 68  1  0
 27 28  1  0
 27 69  1  6
 28 29  1  0
 28 70  1  1
 29 71  1  0
 29 72  1  0
 29 73  1  0
M  END
>  <i_m_ct_stereo_status>  (420) 
1

>  <s_m_source_file>  (420) 
/var/tmp/pbs.5076255.sched01/tmp277fsmq3/144xeprw1xa.sdf

>  <i_m_source_file_index>  (420) 
30

>  <i_lp_mmshare_version>  (420) 
48012

>  <i_f3d_flags>  (420) 
0

>  <s_epik_input>  (420) 
W09IXVtDQEBIXTFbQ0gyXVtDQEBIXShbQ0gzXSlbQ0BIXShbQ0gzXSlbQ0BIXTJbQ0BIXShDMihbQ0BAXTEzNClbQ0gyXTMpW0NIMl1bQ0gyXVtDQEhdNVtDQF02KFtDSDNdKVtDQEhdKEMoW0NIM10pKFtDSDNdKVtDQEhdKFtPSF0pW0NIMl1bQ0gyXTYpW0NIMl1bQ0gyXVtDQEBdNDVbQ0gzXQ==

>  <s_epik_cmdline>  (420) 
J2VwaWtfcHl0aG9uJywgJy1waHQnLCAnMi4wJywgJy1waCcsICc3LjAnLCAnLXRuJywgJzgnLCAnLW1hJywgJzIwMCcsICctaW1hZScsICc8aW5maWxlLm1hZT4nLCAnLW9tYWUnLCAnPG91dGZpbGUubWFlPic=

>  <r_lp_tautomer_probability>  (420) 
1

>  <r_epik_Ionization_Penalty>  (420) 
7.19914e-06

>  <r_epik_Ionization_Penalty_Charging>  (420) 
0

>  <r_epik_Ionization_Penalty_Neutral>  (420) 
7.19914e-06

>  <r_epik_State_Penalty>  (420) 
-0

>  <r_epik_Charging_Adjusted_Penalty>  (420) 
0

>  <i_epik_Tot_Q>  (420) 
0

>  <i_epik_Tot_abs_Q>  (420) 
0

>  <s_lp_Force_Field>  (420) 
OPLS3e

>  <r_lp_Energy>  (420) 
70.701

>  <b_lp_Chiralities_Consistent>  (420) 
1

>  <s_lp_Variant>  (420) 
104:0-1

>  <s_i_glide_gridfile>  (420) 
pfpi4k_grid

>  <i_i_glide_lignum>  (420) 
30

>  <i_i_glide_rotatable_bonds>  (420) 
2

>  <r_i_docking_score>  (420) 
-3.59362

>  <r_i_glide_ligand_efficiency>  (420) 
-0.123918

>  <r_i_glide_ligand_efficiency_sa>  (420) 
-0.380716

>  <r_i_glide_ligand_efficiency_ln>  (420) 
-0.822849

>  <r_i_glide_gscore>  (420) 
-3.59362

>  <r_i_glide_lipo>  (420) 
-0.638084

>  <r_i_glide_hbond>  (420) 
-0.297397

>  <r_i_glide_metal>  (420) 
-0

>  <r_i_glide_rewards>  (420) 
-0.677475

>  <r_i_glide_evdw>  (420) 
-26.2538

>  <r_i_glide_ecoul>  (420) 
-4.4532

>  <r_i_glide_erotb>  (420) 
0

>  <r_i_glide_esite>  (420) 
0

>  <r_i_glide_emodel>  (420) 
-37.5026

>  <r_i_glide_energy>  (420) 
-30.707

>  <r_i_glide_einternal>  (420) 
0.654319

>  <r_i_glide_intrahb_reward>  (420) 
-0

>  <i_i_glide_confnum>  (420) 
2

>  <i_i_glide_posenum>  (420) 
10

>  <r_i_glide_eff_state_penalty>  (420) 
0

>  <ligand_id>  (420) 
104

>  <original_smiles>  (420) 
CC1CC(O)C23CC24C(CCC2C5(C)CCC(O)C(C)(C)C5CCC23C)C4C1C

>  <smiles>  (420) 
[H]OC1([H])C([H])([H])C([H])([H])C2(C([H])([H])[H])C([H])(C([H])([H])C([H])([H])C3(C([H])([H])[H])C2([H])C([H])([H])C([H])([H])C2([H])C4([H])C([H])(C([H])([H])[H])C([H])(C([H])([H])[H])C([H])([H])C([H])(O[H])C35C([H])([H])C245)C1(C([H])([H])[H])C([H])([H])[H]

$$$$
104:0:2
     RDKit          3D

 73 78  0  0  1  0  0  0  0  0999 V2000
    5.6515   -3.4515   -3.0138 C   0  0  0  0  0  0  0  0  0  0  0  0
    5.8200   -2.4573   -1.8614 C   0  0  2  0  0  0  0  0  0  0  0  0
    6.8996   -2.9275   -0.8360 C   0  0  0  0  0  0  0  0  0  0  0  0
    6.5313   -4.0803    0.1474 C   0  0  1  0  0  0  0  0  0  0  0  0
    7.7458   -4.5879    0.6724 O   0  0  0  0  0  0  0  0  0  0  0  0
    5.5821   -3.7143    1.3142 C   0  0  1  0  0  0  0  0  0  0  0  0
    5.9990   -2.4250    2.1367 C   0  0  0  0  0  0  0  0  0  0  0  0
    4.8992   -2.3803    1.2237 C   0  0  2  0  0  0  0  0  0  0  0  0
    3.5375   -1.8205    1.2658 C   0  0  2  0  0  0  0  0  0  0  0  0
    2.3707   -2.7596    1.0924 C   0  0  0  0  0  0  0  0  0  0  0  0
    2.7290   -4.2447    1.1583 C   0  0  0  0  0  0  0  0  0  0  0  0
    3.4405   -4.6643    2.4821 C   0  0  1  0  0  0  0  0  0  0  0  0
    2.6658   -5.8273    3.2356 C   0  0  1  0  0  0  0  0  0  0  0  0
    3.2188   -5.9876    4.6832 C   0  0  0  0  0  0  0  0  0  0  0  0
    1.1493   -5.4840    3.4353 C   0  0  0  0  0  0  0  0  0  0  0  0
    0.2712   -6.6753    3.8732 C   0  0  0  0  0  0  0  0  0  0  0  0
    0.4367   -7.8929    2.9506 C   0  0  1  0  0  0  0  0  0  0  0  0
   -0.1521   -7.5696    1.6977 O   0  0  0  0  0  0  0  0  0  0  0  0
    1.9222   -8.3508    2.8026 C   0  0  0  0  0  0  0  0  0  0  0  0
    2.3800   -9.0254    4.1158 C   0  0  0  0  0  0  0  0  0  0  0  0
    1.9965   -9.4533    1.7276 C   0  0  0  0  0  0  0  0  0  0  0  0
    2.8039   -7.1256    2.3663 C   0  0  2  0  0  0  0  0  0  0  0  0
    4.2881   -7.4509    2.0665 C   0  0  0  0  0  0  0  0  0  0  0  0
    5.0380   -6.2841    1.3946 C   0  0  0  0  0  0  0  0  0  0  0  0
    4.9682   -4.9203    2.1508 C   0  0  1  0  0  0  0  0  0  0  0  0
    5.8378   -5.0898    3.4242 C   0  0  0  0  0  0  0  0  0  0  0  0
    4.5444   -1.4979    0.1045 C   0  0  2  0  0  0  0  0  0  0  0  0
    4.4400   -2.1153   -1.2749 C   0  0  1  0  0  0  0  0  0  0  0  0
    3.6142   -1.2240   -2.2184 C   0  0  0  0  0  0  0  0  0  0  0  0
    5.2430   -4.4117   -2.6709 H   0  0  0  0  0  0  0  0  0  0  0  0
    6.6144   -3.6443   -3.4843 H   0  0  0  0  0  0  0  0  0  0  0  0
    5.0074   -3.0760   -3.8013 H   0  0  0  0  0  0  0  0  0  0  0  0
    6.2133   -1.5435   -2.2946 H   0  0  0  0  0  0  0  0  0  0  0  0
    7.7636   -3.2477   -1.4164 H   0  0  0  0  0  0  0  0  0  0  0  0
    7.2743   -2.0633   -0.2854 H   0  0  0  0  0  0  0  0  0  0  0  0
    6.0707   -4.8530   -0.4551 H   0  0  0  0  0  0  0  0  0  0  0  0
    8.1201   -3.9372    1.2472 H   0  0  0  0  0  0  0  0  0  0  0  0
    5.7500   -2.3546    3.1931 H   0  0  0  0  0  0  0  0  0  0  0  0
    6.9026   -1.8929    1.8492 H   0  0  0  0  0  0  0  0  0  0  0  0
    3.3546   -0.9883    1.9425 H   0  0  0  0  0  0  0  0  0  0  0  0
    1.6196   -2.5077    1.8446 H   0  0  0  0  0  0  0  0  0  0  0  0
    1.9394   -2.5881    0.1087 H   0  0  0  0  0  0  0  0  0  0  0  0
    1.8375   -4.8190    0.9304 H   0  0  0  0  0  0  0  0  0  0  0  0
    3.3415   -4.4868    0.2941 H   0  0  0  0  0  0  0  0  0  0  0  0
    3.3947   -3.8036    3.1510 H   0  0  0  0  0  0  0  0  0  0  0  0
    2.4622   -6.2832    5.4053 H   0  0  0  0  0  0  0  0  0  0  0  0
    3.6111   -5.0514    5.0746 H   0  0  0  0  0  0  0  0  0  0  0  0
    3.9916   -6.7454    4.7645 H   0  0  0  0  0  0  0  0  0  0  0  0
    1.0495   -4.6779    4.1614 H   0  0  0  0  0  0  0  0  0  0  0  0
    0.6773   -5.1007    2.5397 H   0  0  0  0  0  0  0  0  0  0  0  0
    0.4899   -6.9613    4.8992 H   0  0  0  0  0  0  0  0  0  0  0  0
   -0.7758   -6.3701    3.8960 H   0  0  0  0  0  0  0  0  0  0  0  0
   -0.1488   -8.7152    3.3650 H   0  0  0  0  0  0  0  0  0  0  0  0
   -0.1618   -8.3598    1.1654 H   0  0  0  0  0  0  0  0  0  0  0  0
    3.4416   -9.2701    4.0928 H   0  0  0  0  0  0  0  0  0  0  0  0
    1.8410   -9.9611    4.2734 H   0  0  0  0  0  0  0  0  0  0  0  0
    2.1942   -8.4220    4.9980 H   0  0  0  0  0  0  0  0  0  0  0  0
    2.9589   -9.9672    1.7214 H   0  0  0  0  0  0  0  0  0  0  0  0
    1.8367   -9.0438    0.7369 H   0  0  0  0  0  0  0  0  0  0  0  0
    1.2325  -10.2147    1.8968 H   0  0  0  0  0  0  0  0  0  0  0  0
    2.4002   -6.8714    1.3845 H   0  0  0  0  0  0  0  0  0  0  0  0
    4.8077   -7.7777    2.9608 H   0  0  0  0  0  0  0  0  0  0  0  0
    4.3535   -8.2869    1.3746 H   0  0  0  0  0  0  0  0  0  0  0  0
    6.0811   -6.5789    1.2705 H   0  0  0  0  0  0  0  0  0  0  0  0
    4.6335   -6.1907    0.3883 H   0  0  0  0  0  0  0  0  0  0  0  0
    5.7379   -6.0667    3.8845 H   0  0  0  0  0  0  0  0  0  0  0  0
    5.6136   -4.3433    4.1912 H   0  0  0  0  0  0  0  0  0  0  0  0
    6.8995   -5.0526    3.1803 H   0  0  0  0  0  0  0  0  0  0  0  0
    4.9797   -0.4996    0.1229 H   0  0  0  0  0  0  0  0  0  0  0  0
    3.9049   -3.0565   -1.1737 H   0  0  0  0  0  0  0  0  0  0  0  0
    4.1055   -0.2685   -2.4113 H   0  0  0  0  0  0  0  0  0  0  0  0
    2.6370   -1.0186   -1.7846 H   0  0  0  0  0  0  0  0  0  0  0  0
    3.4252   -1.7142   -3.1768 H   0  0  0  0  0  0  0  0  0  0  0  0
  1  2  1  0
  1 30  1  0
  1 31  1  0
  1 32  1  0
  2 28  1  0
  2  3  1  0
  2 33  1  6
  3  4  1  0
  3 34  1  0
  3 35  1  0
  4  5  1  0
  4  6  1  0
  4 36  1  6
  5 37  1  0
  6  8  1  0
  6 25  1  0
  6  7  1  1
  8  7  1  1
  7 38  1  0
  7 39  1  0
  8 27  1  0
  8  9  1  0
  9 10  1  0
  9 27  1  0
  9 40  1  1
 10 11  1  0
 10 41  1  0
 10 42  1  0
 11 12  1  0
 11 43  1  0
 11 44  1  0
 12 25  1  0
 12 13  1  0
 12 45  1  1
 13 22  1  0
 13 14  1  1
 13 15  1  0
 14 46  1  0
 14 47  1  0
 14 48  1  0
 15 16  1  0
 15 49  1  0
 15 50  1  0
 16 17  1  0
 16 51  1  0
 16 52  1  0
 17 18  1  0
 17 19  1  0
 17 53  1  1
 18 54  1  0
 19 20  1  0
 19 21  1  0
 19 22  1  0
 20 55  1  0
 20 56  1  0
 20 57  1  0
 21 58  1  0
 21 59  1  0
 21 60  1  0
 22 23  1  0
 22 61  1  6
 23 24  1  0
 23 62  1  0
 23 63  1  0
 24 25  1  0
 24 64  1  0
 24 65  1  0
 25 26  1  1
 26 66  1  0
 26 67  1  0
 26 68  1  0
 27 28  1  0
 27 69  1  6
 28 29  1  0
 28 70  1  1
 29 71  1  0
 29 72  1  0
 29 73  1  0
M  END
>  <i_m_ct_stereo_status>  (421) 
1

>  <s_m_source_file>  (421) 
/var/tmp/pbs.5076255.sched01/tmp277fsmq3/144xeprw1xa.sdf

>  <i_m_source_file_index>  (421) 
30

>  <i_lp_mmshare_version>  (421) 
48012

>  <i_f3d_flags>  (421) 
0

>  <s_epik_input>  (421) 
W09IXVtDQEBIXTFbQ0gyXVtDQEBIXShbQ0gzXSlbQ0BIXShbQ0gzXSlbQ0BIXTJbQ0BIXShDMihbQ0BAXTEzNClbQ0gyXTMpW0NIMl1bQ0gyXVtDQEhdNVtDQF02KFtDSDNdKVtDQEhdKEMoW0NIM10pKFtDSDNdKVtDQEhdKFtPSF0pW0NIMl1bQ0gyXTYpW0NIMl1bQ0gyXVtDQEBdNDVbQ0gzXQ==

>  <s_epik_cmdline>  (421) 
J2VwaWtfcHl0aG9uJywgJy1waHQnLCAnMi4wJywgJy1waCcsICc3LjAnLCAnLXRuJywgJzgnLCAnLW1hJywgJzIwMCcsICctaW1hZScsICc8aW5maWxlLm1hZT4nLCAnLW9tYWUnLCAnPG91dGZpbGUubWFlPic=

>  <r_lp_tautomer_probability>  (421) 
1

>  <r_epik_Ionization_Penalty>  (421) 
7.19914e-06

>  <r_epik_Ionization_Penalty_Charging>  (421) 
0

>  <r_epik_Ionization_Penalty_Neutral>  (421) 
7.19914e-06

>  <r_epik_State_Penalty>  (421) 
-0

>  <r_epik_Charging_Adjusted_Penalty>  (421) 
0

>  <i_epik_Tot_Q>  (421) 
0

>  <i_epik_Tot_abs_Q>  (421) 
0

>  <s_lp_Force_Field>  (421) 
OPLS3e

>  <r_lp_Energy>  (421) 
70.701

>  <b_lp_Chiralities_Consistent>  (421) 
1

>  <s_lp_Variant>  (421) 
104:0-1

>  <s_i_glide_gridfile>  (421) 
pfpi4k_grid

>  <i_i_glide_lignum>  (421) 
30

>  <i_i_glide_rotatable_bonds>  (421) 
2

>  <r_i_docking_score>  (421) 
-3.56687

>  <r_i_glide_ligand_efficiency>  (421) 
-0.122995

>  <r_i_glide_ligand_efficiency_sa>  (421) 
-0.377881

>  <r_i_glide_ligand_efficiency_ln>  (421) 
-0.816722

>  <r_i_glide_gscore>  (421) 
-3.56687

>  <r_i_glide_lipo>  (421) 
-0.635497

>  <r_i_glide_hbond>  (421) 
-0.296731

>  <r_i_glide_metal>  (421) 
-0

>  <r_i_glide_rewards>  (421) 
-0.677475

>  <r_i_glide_evdw>  (421) 
-26.2659

>  <r_i_glide_ecoul>  (421) 
-4.29246

>  <r_i_glide_erotb>  (421) 
0

>  <r_i_glide_esite>  (421) 
0

>  <r_i_glide_emodel>  (421) 
-37.4508

>  <r_i_glide_energy>  (421) 
-30.5584

>  <r_i_glide_einternal>  (421) 
0.389961

>  <r_i_glide_intrahb_reward>  (421) 
-0

>  <i_i_glide_confnum>  (421) 
1

>  <i_i_glide_posenum>  (421) 
22

>  <r_i_glide_eff_state_penalty>  (421) 
0

>  <ligand_id>  (421) 
104

>  <original_smiles>  (421) 
CC1CC(O)C23CC24C(CCC2C5(C)CCC(O)C(C)(C)C5CCC23C)C4C1C

>  <smiles>  (421) 
[H]OC1([H])C([H])([H])C([H])([H])C2(C([H])([H])[H])C([H])(C([H])([H])C([H])([H])C3(C([H])([H])[H])C2([H])C([H])([H])C([H])([H])C2([H])C4([H])C([H])(C([H])([H])[H])C([H])(C([H])([H])[H])C([H])([H])C([H])(O[H])C35C([H])([H])C245)C1(C([H])([H])[H])C([H])([H])[H]

$$$$
105:0:0
     RDKit          3D

 35 38  0  0  1  0  0  0  0  0999 V2000
    2.7377    1.5798    3.5001 C   0  0  0  0  0  0  0  0  0  0  0  0
    2.0124    0.3398    3.1384 N   0  0  2  0  0  0  0  0  0  0  0  0
    2.3980   -0.9683    3.6641 C   0  0  2  0  0  0  0  0  0  0  0  0
    3.9034   -1.2151    3.8883 C   0  0  0  0  0  0  0  0  0  0  0  0
    4.9120   -0.8144    2.7837 C   0  0  0  0  0  0  0  0  0  0  0  0
    4.4050   -0.9615    1.4148 N   0  0  0  0  0  0  0  0  0  0  0  0
    5.2286   -1.5854    0.4217 C   0  0  0  0  0  0  0  0  0  0  0  0
    6.5363   -1.7251    0.7115 N   0  0  0  0  0  0  0  0  0  0  0  0
    7.3589   -2.3733   -0.1178 C   0  0  0  0  0  0  0  0  0  0  0  0
    7.0857   -2.9125   -1.2997 N   0  0  0  0  0  0  0  0  0  0  0  0
    5.7748   -2.7810   -1.6231 C   0  0  0  0  0  0  0  0  0  0  0  0
    5.1069   -3.4507   -3.1170 S   0  0  0  0  0  0  0  0  0  0  0  0
    3.5421   -2.8259   -2.7222 C   0  0  0  0  0  0  0  0  0  0  0  0
    3.4900   -2.1916   -1.5044 C   0  0  0  0  0  0  0  0  0  0  0  0
    4.7707   -2.1211   -0.8345 C   0  0  0  0  0  0  0  0  0  0  0  0
    3.3514   -0.0261    1.0126 C   0  0  0  0  0  0  0  0  0  0  0  0
    2.0258   -0.1923    1.7824 C   0  0  1  0  0  0  0  0  0  0  0  0
    1.6919   -1.5288    2.4325 C   0  0  0  0  0  0  0  0  0  0  0  0
    3.7511    1.6477    3.1326 H   0  0  0  0  0  0  0  0  0  0  0  0
    2.7736    1.6992    4.5768 H   0  0  0  0  0  0  0  0  0  0  0  0
    2.2051    2.4418    3.1150 H   0  0  0  0  0  0  0  0  0  0  0  0
    1.8006   -1.1921    4.5456 H   0  0  0  0  0  0  0  0  0  0  0  0
    4.2284   -0.7988    4.8467 H   0  0  0  0  0  0  0  0  0  0  0  0
    3.9966   -2.2889    3.9875 H   0  0  0  0  0  0  0  0  0  0  0  0
    5.1985    0.2248    2.9141 H   0  0  0  0  0  0  0  0  0  0  0  0
    5.8218   -1.3944    2.9600 H   0  0  0  0  0  0  0  0  0  0  0  0
    8.3987   -2.4112    0.1671 H   0  0  0  0  0  0  0  0  0  0  0  0
    2.6952   -2.9703   -3.3835 H   0  0  0  0  0  0  0  0  0  0  0  0
    2.6138   -1.7892   -1.1042 H   0  0  0  0  0  0  0  0  0  0  0  0
    3.7176    1.0057    1.0001 H   0  0  0  0  0  0  0  0  0  0  0  0
    3.1220   -0.2545   -0.0154 H   0  0  0  0  0  0  0  0  0  0  0  0
    1.1540    0.2010    1.2655 H   0  0  0  0  0  0  0  0  0  0  0  0
    2.2105   -2.3714    1.9875 H   0  0  0  0  0  0  0  0  0  0  0  0
    0.6172   -1.7131    2.5690 H   0  0  0  0  0  0  0  0  0  0  0  0
    1.0454    0.4603    3.3747 H   0  0  0  0  0  0  0  0  0  0  0  0
  1  2  1  0
  1 19  1  0
  1 20  1  0
  1 21  1  0
  2 17  1  0
  2  3  1  0
  2 35  1  1
  3 18  1  0
  3  4  1  0
  3 22  1  1
  4  5  1  0
  4 23  1  0
  4 24  1  0
  5  6  1  0
  5 25  1  0
  5 26  1  0
  6  7  1  0
  6 16  1  0
  7 15  2  0
  7  8  1  0
  8  9  2  0
  9 10  1  0
  9 27  1  0
 10 11  2  0
 11 15  1  0
 11 12  1  0
 12 13  1  0
 13 14  2  0
 13 28  1  0
 14 15  1  0
 14 29  1  0
 16 17  1  0
 16 30  1  0
 16 31  1  0
 17 18  1  0
 17 32  1  6
 18 33  1  0
 18 34  1  0
M  CHG  1   2   1
M  END
>  <i_m_ct_stereo_status>  (422) 
1

>  <s_m_source_file>  (422) 
/var/tmp/pbs.5076255.sched01/tmp277fsmq3/144xeprw1xa.sdf

>  <i_m_source_file_index>  (422) 
31

>  <i_lp_mmshare_version>  (422) 
48012

>  <i_f3d_flags>  (422) 
0

>  <s_epik_input>  (422) 
W0NIM11OKFtDQEhdMTIpW0NASF0oW0NIMl0yKVtDSDJdTihbQ0gyXVtDSDJdMSljKG5bY0hdbjMpYyhjMzQpW2NIXVtjSF1zNA==

>  <s_epik_cmdline>  (422) 
J2VwaWtfcHl0aG9uJywgJy1waHQnLCAnMi4wJywgJy1waCcsICc3LjAnLCAnLXRuJywgJzgnLCAnLW1hJywgJzIwMCcsICctaW1hZScsICc8aW5maWxlLm1hZT4nLCAnLW9tYWUnLCAnPG91dGZpbGUubWFlPic=

>  <r_lp_tautomer_probability>  (422) 
1

>  <r_epik_Ionization_Penalty>  (422) 
0.000690056

>  <r_epik_Ionization_Penalty_Charging>  (422) 
0.000497753

>  <r_epik_Ionization_Penalty_Neutral>  (422) 
0.000192303

>  <r_epik_State_Penalty>  (422) 
-0

>  <r_epik_Charging_Adjusted_Penalty>  (422) 
0.000497753

>  <i_epik_Tot_Q>  (422) 
1

>  <i_epik_Tot_abs_Q>  (422) 
1

>  <s_lp_Force_Field>  (422) 
OPLS3e

>  <r_lp_Energy>  (422) 
53.4846

>  <b_lp_Chiralities_Consistent>  (422) 
1

>  <s_lp_Variant>  (422) 
105:0-1

>  <s_i_glide_gridfile>  (422) 
pfpi4k_grid

>  <i_i_glide_lignum>  (422) 
31

>  <i_i_glide_rotatable_bonds>  (422) 
1

>  <r_i_docking_score>  (422) 
-3.66279

>  <r_i_glide_ligand_efficiency>  (422) 
-0.203489

>  <r_i_glide_ligand_efficiency_sa>  (422) 
-0.533291

>  <r_i_glide_ligand_efficiency_ln>  (422) 
-0.941502

>  <r_i_glide_gscore>  (422) 
-3.66279

>  <r_i_glide_lipo>  (422) 
-0.388499

>  <r_i_glide_hbond>  (422) 
-0.00336891

>  <r_i_glide_metal>  (422) 
-0

>  <r_i_glide_rewards>  (422) 
-1.70558

>  <r_i_glide_evdw>  (422) 
-24.424

>  <r_i_glide_ecoul>  (422) 
-3.95956

>  <r_i_glide_erotb>  (422) 
0.259398

>  <r_i_glide_esite>  (422) 
-0.00961336

>  <r_i_glide_emodel>  (422) 
-34.4116

>  <r_i_glide_energy>  (422) 
-28.3835

>  <r_i_glide_einternal>  (422) 
0.982484

>  <r_i_glide_intrahb_reward>  (422) 
-0

>  <i_i_glide_confnum>  (422) 
3

>  <i_i_glide_posenum>  (422) 
1

>  <r_i_glide_eff_state_penalty>  (422) 
0

>  <ligand_id>  (422) 
105

>  <original_smiles>  (422) 
CN1C2CCN(c3ncnc4sccc34)CC1C2

>  <smiles>  (422) 
[H]c1nc(N2C([H])([H])C([H])([H])C3([H])C([H])([H])C([H])(C2([H])[H])[N+]3([H])C([H])([H])[H])c2c([H])c([H])sc2n1

$$$$
105:0:1
     RDKit          3D

 35 38  0  0  1  0  0  0  0  0999 V2000
    2.0782    1.8423    3.0960 C   0  0  0  0  0  0  0  0  0  0  0  0
    1.5596    0.4808    3.3548 N   0  0  2  0  0  0  0  0  0  0  0  0
    2.2345   -0.4553    4.2530 C   0  0  2  0  0  0  0  0  0  0  0  0
    3.7740   -0.4157    4.2956 C   0  0  0  0  0  0  0  0  0  0  0  0
    4.5610   -0.3587    2.9653 C   0  0  0  0  0  0  0  0  0  0  0  0
    3.9357   -1.0692    1.8472 N   0  0  0  0  0  0  0  0  0  0  0  0
    4.7642   -1.9034    1.0350 C   0  0  0  0  0  0  0  0  0  0  0  0
    5.7223   -2.6093    1.6742 N   0  0  0  0  0  0  0  0  0  0  0  0
    6.5174   -3.4498    1.0050 C   0  0  0  0  0  0  0  0  0  0  0  0
    6.5031   -3.7467   -0.2927 N   0  0  0  0  0  0  0  0  0  0  0  0
    5.5462   -3.0412   -0.9515 C   0  0  0  0  0  0  0  0  0  0  0  0
    5.2816   -3.2352   -2.6847 S   0  0  0  0  0  0  0  0  0  0  0  0
    4.0530   -2.0217   -2.6645 C   0  0  0  0  0  0  0  0  0  0  0  0
    3.8300   -1.4650   -1.4352 C   0  0  0  0  0  0  0  0  0  0  0  0
    4.6442   -2.0620   -0.3899 C   0  0  0  0  0  0  0  0  0  0  0  0
    2.6678   -0.5588    1.3215 C   0  0  0  0  0  0  0  0  0  0  0  0
    1.5151   -0.5373    2.3173 C   0  0  1  0  0  0  0  0  0  0  0  0
    1.5161   -1.5434    3.4566 C   0  0  0  0  0  0  0  0  0  0  0  0
    3.0118    1.9014    2.5480 H   0  0  0  0  0  0  0  0  0  0  0  0
    2.2101    2.3788    4.0317 H   0  0  0  0  0  0  0  0  0  0  0  0
    1.3516    2.4083    2.5229 H   0  0  0  0  0  0  0  0  0  0  0  0
    1.7912   -0.3936    5.2456 H   0  0  0  0  0  0  0  0  0  0  0  0
    4.1179    0.3904    4.9475 H   0  0  0  0  0  0  0  0  0  0  0  0
    4.0833   -1.3360    4.7782 H   0  0  0  0  0  0  0  0  0  0  0  0
    4.6273    0.6727    2.6571 H   0  0  0  0  0  0  0  0  0  0  0  0
    5.5957   -0.6671    3.1426 H   0  0  0  0  0  0  0  0  0  0  0  0
    7.2781   -3.9502    1.5785 H   0  0  0  0  0  0  0  0  0  0  0  0
    3.5313   -1.7675   -3.5706 H   0  0  0  0  0  0  0  0  0  0  0  0
    3.0910   -0.6921   -1.2845 H   0  0  0  0  0  0  0  0  0  0  0  0
    2.8198    0.4056    0.8273 H   0  0  0  0  0  0  0  0  0  0  0  0
    2.3304   -1.2690    0.5777 H   0  0  0  0  0  0  0  0  0  0  0  0
    0.5499   -0.5027    1.8291 H   0  0  0  0  0  0  0  0  0  0  0  0
    2.1304   -2.4251    3.2717 H   0  0  0  0  0  0  0  0  0  0  0  0
    0.5195   -1.8008    3.8274 H   0  0  0  0  0  0  0  0  0  0  0  0
    0.6202    0.5658    3.6965 H   0  0  0  0  0  0  0  0  0  0  0  0
  1  2  1  0
  1 19  1  0
  1 20  1  0
  1 21  1  0
  2 17  1  0
  2  3  1  0
  2 35  1  1
  3 18  1  0
  3  4  1  0
  3 22  1  1
  4  5  1  0
  4 23  1  0
  4 24  1  0
  5  6  1  0
  5 25  1  0
  5 26  1  0
  6  7  1  0
  6 16  1  0
  7 15  2  0
  7  8  1  0
  8  9  2  0
  9 10  1  0
  9 27  1  0
 10 11  2  0
 11 15  1  0
 11 12  1  0
 12 13  1  0
 13 14  2  0
 13 28  1  0
 14 15  1  0
 14 29  1  0
 16 17  1  0
 16 30  1  0
 16 31  1  0
 17 18  1  0
 17 32  1  6
 18 33  1  0
 18 34  1  0
M  CHG  1   2   1
M  END
>  <i_m_ct_stereo_status>  (423) 
1

>  <s_m_source_file>  (423) 
/var/tmp/pbs.5076255.sched01/tmp277fsmq3/144xeprw1xa.sdf

>  <i_m_source_file_index>  (423) 
31

>  <i_lp_mmshare_version>  (423) 
48012

>  <i_f3d_flags>  (423) 
0

>  <s_epik_input>  (423) 
W0NIM11OKFtDQEhdMTIpW0NASF0oW0NIMl0yKVtDSDJdTihbQ0gyXVtDSDJdMSljKG5bY0hdbjMpYyhjMzQpW2NIXVtjSF1zNA==

>  <s_epik_cmdline>  (423) 
J2VwaWtfcHl0aG9uJywgJy1waHQnLCAnMi4wJywgJy1waCcsICc3LjAnLCAnLXRuJywgJzgnLCAnLW1hJywgJzIwMCcsICctaW1hZScsICc8aW5maWxlLm1hZT4nLCAnLW9tYWUnLCAnPG91dGZpbGUubWFlPic=

>  <r_lp_tautomer_probability>  (423) 
1

>  <r_epik_Ionization_Penalty>  (423) 
0.000690056

>  <r_epik_Ionization_Penalty_Charging>  (423) 
0.000497753

>  <r_epik_Ionization_Penalty_Neutral>  (423) 
0.000192303

>  <r_epik_State_Penalty>  (423) 
-0

>  <r_epik_Charging_Adjusted_Penalty>  (423) 
0.000497753

>  <i_epik_Tot_Q>  (423) 
1

>  <i_epik_Tot_abs_Q>  (423) 
1

>  <s_lp_Force_Field>  (423) 
OPLS3e

>  <r_lp_Energy>  (423) 
53.4846

>  <b_lp_Chiralities_Consistent>  (423) 
1

>  <s_lp_Variant>  (423) 
105:0-1

>  <s_i_glide_gridfile>  (423) 
pfpi4k_grid

>  <i_i_glide_lignum>  (423) 
31

>  <i_i_glide_rotatable_bonds>  (423) 
1

>  <r_i_docking_score>  (423) 
-3.48295

>  <r_i_glide_ligand_efficiency>  (423) 
-0.193497

>  <r_i_glide_ligand_efficiency_sa>  (423) 
-0.507106

>  <r_i_glide_ligand_efficiency_ln>  (423) 
-0.895274

>  <r_i_glide_gscore>  (423) 
-3.48295

>  <r_i_glide_lipo>  (423) 
-0.404407

>  <r_i_glide_hbond>  (423) 
0

>  <r_i_glide_metal>  (423) 
-0

>  <r_i_glide_rewards>  (423) 
-1.73858

>  <r_i_glide_evdw>  (423) 
-20.6243

>  <r_i_glide_ecoul>  (423) 
-3.72644

>  <r_i_glide_erotb>  (423) 
0.259398

>  <r_i_glide_esite>  (423) 
-0.00917464

>  <r_i_glide_emodel>  (423) 
-30.5165

>  <r_i_glide_energy>  (423) 
-24.3508

>  <r_i_glide_einternal>  (423) 
0.584055

>  <r_i_glide_intrahb_reward>  (423) 
-0

>  <i_i_glide_confnum>  (423) 
3

>  <i_i_glide_posenum>  (423) 
5

>  <r_i_glide_eff_state_penalty>  (423) 
0

>  <ligand_id>  (423) 
105

>  <original_smiles>  (423) 
CN1C2CCN(c3ncnc4sccc34)CC1C2

>  <smiles>  (423) 
[H]c1nc(N2C([H])([H])C([H])([H])C3([H])C([H])([H])C([H])(C2([H])[H])[N+]3([H])C([H])([H])[H])c2c([H])c([H])sc2n1

$$$$
105:0:2
     RDKit          3D

 35 38  0  0  1  0  0  0  0  0999 V2000
    2.1941    3.2878    2.5801 C   0  0  0  0  0  0  0  0  0  0  0  0
    1.1233    2.2562    2.5815 N   0  0  2  0  0  0  0  0  0  0  0  0
    0.9273    1.3565    3.7311 C   0  0  2  0  0  0  0  0  0  0  0  0
    2.1785    0.9063    4.5140 C   0  0  0  0  0  0  0  0  0  0  0  0
    3.4325    0.4397    3.7272 C   0  0  0  0  0  0  0  0  0  0  0  0
    3.1472   -0.2645    2.4759 N   0  0  0  0  0  0  0  0  0  0  0  0
    3.8538   -1.4709    2.2094 C   0  0  0  0  0  0  0  0  0  0  0  0
    3.9751   -2.3460    3.2380 N   0  0  0  0  0  0  0  0  0  0  0  0
    4.5875   -3.5172    3.0506 C   0  0  0  0  0  0  0  0  0  0  0  0
    5.1185   -4.0037    1.9334 N   0  0  0  0  0  0  0  0  0  0  0  0
    5.0207   -3.1247    0.8967 C   0  0  0  0  0  0  0  0  0  0  0  0
    5.6440   -3.5036   -0.7044 S   0  0  0  0  0  0  0  0  0  0  0  0
    5.1738   -1.9410   -1.2778 C   0  0  0  0  0  0  0  0  0  0  0  0
    4.5752   -1.1446   -0.3400 C   0  0  0  0  0  0  0  0  0  0  0  0
    4.4271   -1.8192    0.9458 C   0  0  0  0  0  0  0  0  0  0  0  0
    2.5392    0.4870    1.3739 C   0  0  0  0  0  0  0  0  0  0  0  0
    1.1652    1.0889    1.6918 C   0  0  1  0  0  0  0  0  0  0  0  0
    0.2848    0.3951    2.7278 C   0  0  0  0  0  0  0  0  0  0  0  0
    3.2055    2.9014    2.5721 H   0  0  0  0  0  0  0  0  0  0  0  0
    2.0745    3.9358    3.4509 H   0  0  0  0  0  0  0  0  0  0  0  0
    2.0951    3.9187    1.6993 H   0  0  0  0  0  0  0  0  0  0  0  0
    0.1569    1.7640    4.3892 H   0  0  0  0  0  0  0  0  0  0  0  0
    2.4769    1.6766    5.2276 H   0  0  0  0  0  0  0  0  0  0  0  0
    1.8740    0.0545    5.1234 H   0  0  0  0  0  0  0  0  0  0  0  0
    4.0510    1.2978    3.4813 H   0  0  0  0  0  0  0  0  0  0  0  0
    4.0623   -0.1552    4.3896 H   0  0  0  0  0  0  0  0  0  0  0  0
    4.6659   -4.1585    3.9125 H   0  0  0  0  0  0  0  0  0  0  0  0
    5.3613   -1.6868   -2.3070 H   0  0  0  0  0  0  0  0  0  0  0  0
    4.2347   -0.1427   -0.5350 H   0  0  0  0  0  0  0  0  0  0  0  0
    3.2453    1.2396    1.0239 H   0  0  0  0  0  0  0  0  0  0  0  0
    2.3738   -0.1976    0.5470 H   0  0  0  0  0  0  0  0  0  0  0  0
    0.5839    1.3227    0.8030 H   0  0  0  0  0  0  0  0  0  0  0  0
    0.5273   -0.6583    2.8929 H   0  0  0  0  0  0  0  0  0  0  0  0
   -0.7833    0.5560    2.5745 H   0  0  0  0  0  0  0  0  0  0  0  0
    0.2453    2.7209    2.3821 H   0  0  0  0  0  0  0  0  0  0  0  0
  1  2  1  0
  1 19  1  0
  1 20  1  0
  1 21  1  0
  2 17  1  0
  2  3  1  0
  2 35  1  6
  3 18  1  0
  3  4  1  0
  3 22  1  1
  4  5  1  0
  4 23  1  0
  4 24  1  0
  5  6  1  0
  5 25  1  0
  5 26  1  0
  6  7  1  0
  6 16  1  0
  7 15  2  0
  7  8  1  0
  8  9  2  0
  9 10  1  0
  9 27  1  0
 10 11  2  0
 11 15  1  0
 11 12  1  0
 12 13  1  0
 13 14  2  0
 13 28  1  0
 14 15  1  0
 14 29  1  0
 16 17  1  0
 16 30  1  0
 16 31  1  0
 17 18  1  0
 17 32  1  6
 18 33  1  0
 18 34  1  0
M  CHG  1   2   1
M  END
>  <i_m_ct_stereo_status>  (424) 
1

>  <s_m_source_file>  (424) 
/var/tmp/pbs.5076255.sched01/tmp277fsmq3/144xeprw1xa.sdf

>  <i_m_source_file_index>  (424) 
31

>  <i_lp_mmshare_version>  (424) 
48012

>  <i_f3d_flags>  (424) 
0

>  <s_epik_input>  (424) 
W0NIM11OKFtDQEhdMTIpW0NASF0oW0NIMl0yKVtDSDJdTihbQ0gyXVtDSDJdMSljKG5bY0hdbjMpYyhjMzQpW2NIXVtjSF1zNA==

>  <s_epik_cmdline>  (424) 
J2VwaWtfcHl0aG9uJywgJy1waHQnLCAnMi4wJywgJy1waCcsICc3LjAnLCAnLXRuJywgJzgnLCAnLW1hJywgJzIwMCcsICctaW1hZScsICc8aW5maWxlLm1hZT4nLCAnLW9tYWUnLCAnPG91dGZpbGUubWFlPic=

>  <r_lp_tautomer_probability>  (424) 
1

>  <r_epik_Ionization_Penalty>  (424) 
0.000690056

>  <r_epik_Ionization_Penalty_Charging>  (424) 
0.000497753

>  <r_epik_Ionization_Penalty_Neutral>  (424) 
0.000192303

>  <r_epik_State_Penalty>  (424) 
-0

>  <r_epik_Charging_Adjusted_Penalty>  (424) 
0.000497753

>  <i_epik_Tot_Q>  (424) 
1

>  <i_epik_Tot_abs_Q>  (424) 
1

>  <s_lp_Force_Field>  (424) 
OPLS3e

>  <r_lp_Energy>  (424) 
53.4846

>  <b_lp_Chiralities_Consistent>  (424) 
1

>  <s_lp_Variant>  (424) 
105:0-1

>  <s_i_glide_gridfile>  (424) 
pfpi4k_grid

>  <i_i_glide_lignum>  (424) 
31

>  <i_i_glide_rotatable_bonds>  (424) 
1

>  <r_i_docking_score>  (424) 
-3.14059

>  <r_i_glide_ligand_efficiency>  (424) 
-0.174477

>  <r_i_glide_ligand_efficiency_sa>  (424) 
-0.457259

>  <r_i_glide_ligand_efficiency_ln>  (424) 
-0.807272

>  <r_i_glide_gscore>  (424) 
-3.14059

>  <r_i_glide_lipo>  (424) 
-0.101993

>  <r_i_glide_hbond>  (424) 
-0.0295267

>  <r_i_glide_metal>  (424) 
-0

>  <r_i_glide_rewards>  (424) 
-1.65571

>  <r_i_glide_evdw>  (424) 
-17.7637

>  <r_i_glide_ecoul>  (424) 
-4.27246

>  <r_i_glide_erotb>  (424) 
0.259398

>  <r_i_glide_esite>  (424) 
-0.0836955

>  <r_i_glide_emodel>  (424) 
-27.7423

>  <r_i_glide_energy>  (424) 
-22.0362

>  <r_i_glide_einternal>  (424) 
0.467303

>  <r_i_glide_intrahb_reward>  (424) 
-0

>  <i_i_glide_confnum>  (424) 
3

>  <i_i_glide_posenum>  (424) 
36

>  <r_i_glide_eff_state_penalty>  (424) 
0

>  <ligand_id>  (424) 
105

>  <original_smiles>  (424) 
CN1C2CCN(c3ncnc4sccc34)CC1C2

>  <smiles>  (424) 
[H]c1nc(N2C([H])([H])C([H])([H])C3([H])C([H])([H])C([H])(C2([H])[H])[N+]3([H])C([H])([H])[H])c2c([H])c([H])sc2n1

$$$$
106:0:0
     RDKit          3D

 67 75  0  0  1  0  0  0  0  0999 V2000
    5.1438   -5.0203    5.6609 C   0  0  0  0  0  0  0  0  0  0  0  0
    4.2387   -4.6753    4.7283 C   0  0  0  0  0  0  0  0  0  0  0  0
    3.8363   -5.7260    3.6454 C   0  0  0  0  0  0  0  0  0  0  0  0
    4.9307   -6.0694    2.5552 C   0  0  1  0  0  0  0  0  0  0  0  0
    5.1191   -7.6014    2.4474 C   0  0  0  0  0  0  0  0  0  0  0  0
    4.8304   -5.4498    1.0860 C   0  0  2  0  0  0  0  0  0  0  0  0
    6.2319   -5.2186    0.4673 C   0  0  0  0  0  0  0  0  0  0  0  0
    6.1293   -4.0213   -0.4717 C   0  0  1  0  0  0  0  0  0  0  0  0
    5.4960   -4.2275   -1.8584 C   0  0  0  0  0  0  0  0  0  0  0  0
    4.5694   -3.0578   -1.5839 C   0  0  1  0  0  0  0  0  0  0  0  0
    3.1302   -3.2775   -1.9193 N   0  0  2  0  0  0  0  0  0  0  0  0
    2.6415   -2.3525   -2.9718 C   0  0  0  0  0  0  0  0  0  0  0  0
    2.2398   -3.2447   -0.7362 C   0  0  0  0  0  0  0  0  0  0  0  0
    2.6350   -4.3409    0.2486 C   0  0  0  0  0  0  0  0  0  0  0  0
    4.0497   -4.0993    0.8251 C   0  0  1  0  0  0  0  0  0  0  0  0
    4.0623   -3.3474    2.0751 C   0  0  0  0  0  0  0  0  0  0  0  0
    3.2284   -2.6154    2.8033 C   0  0  0  0  0  0  0  0  0  0  0  0
    1.8679   -2.7464    3.2366 C   0  0  0  0  0  0  0  0  0  0  0  0
    1.3505   -1.5029    3.4881 C   0  0  0  0  0  0  0  0  0  0  0  0
    1.0208   -0.7188    2.4263 C   0  0  0  0  0  0  0  0  0  0  0  0
    1.7393    0.3767    2.0217 C   0  0  0  0  0  0  0  0  0  0  0  0
    2.8917    0.8837    2.5229 C   0  0  0  0  0  0  0  0  0  0  0  0
    3.6431    0.3791    3.5356 C   0  0  0  0  0  0  0  0  0  0  0  0
    3.3278   -0.7227    4.2608 C   0  0  0  0  0  0  0  0  0  0  0  0
    1.9911   -0.8548    4.5030 C   0  0  0  0  0  0  0  0  0  0  0  0
    4.0026   -2.0898    3.9031 C   0  0  2  0  0  0  0  0  0  0  0  0
    5.4163   -2.1060    3.2171 C   0  0  2  0  0  0  0  0  0  0  0  0
    5.8513   -1.3135    1.9134 C   0  0  0  0  0  0  0  0  0  0  0  0
    5.2140   -1.6503    0.4798 C   0  0  0  0  0  0  0  0  0  0  0  0
    4.9367   -3.1441   -0.0797 C   0  0  1  0  0  0  0  0  0  0  0  0
    5.3449   -3.2797    2.5216 O   0  0  0  0  0  0  0  0  0  0  0  0
    3.5025   -3.2952    4.8262 C   0  0  1  0  0  0  0  0  0  0  0  0
    2.1077   -3.4464    4.4048 O   0  0  0  0  0  0  0  0  0  0  0  0
    5.4139   -4.3535    6.4646 H   0  0  0  0  0  0  0  0  0  0  0  0
    5.6262   -5.9861    5.6426 H   0  0  0  0  0  0  0  0  0  0  0  0
    3.6178   -6.6376    4.2031 H   0  0  0  0  0  0  0  0  0  0  0  0
    2.8822   -5.4905    3.1796 H   0  0  0  0  0  0  0  0  0  0  0  0
    5.8709   -5.7236    2.9834 H   0  0  0  0  0  0  0  0  0  0  0  0
    4.2250   -8.0994    2.0697 H   0  0  0  0  0  0  0  0  0  0  0  0
    5.3507   -8.0445    3.4165 H   0  0  0  0  0  0  0  0  0  0  0  0
    5.9431   -7.8658    1.7821 H   0  0  0  0  0  0  0  0  0  0  0  0
    4.3700   -6.2046    0.4501 H   0  0  0  0  0  0  0  0  0  0  0  0
    6.9705   -5.0040    1.2351 H   0  0  0  0  0  0  0  0  0  0  0  0
    6.5953   -6.1122   -0.0304 H   0  0  0  0  0  0  0  0  0  0  0  0
    7.0541   -3.4504   -0.5505 H   0  0  0  0  0  0  0  0  0  0  0  0
    6.1778   -4.0499   -2.6902 H   0  0  0  0  0  0  0  0  0  0  0  0
    4.9875   -5.1886   -1.9528 H   0  0  0  0  0  0  0  0  0  0  0  0
    4.9685   -2.1547   -2.0540 H   0  0  0  0  0  0  0  0  0  0  0  0
    2.6596   -1.3167   -2.6174 H   0  0  0  0  0  0  0  0  0  0  0  0
    1.6128   -2.5976   -3.2472 H   0  0  0  0  0  0  0  0  0  0  0  0
    3.2517   -2.4232   -3.8747 H   0  0  0  0  0  0  0  0  0  0  0  0
    2.2771   -2.2618   -0.2496 H   0  0  0  0  0  0  0  0  0  0  0  0
    1.2208   -3.4157   -1.0904 H   0  0  0  0  0  0  0  0  0  0  0  0
    1.9024   -4.4397    1.0497 H   0  0  0  0  0  0  0  0  0  0  0  0
    2.5966   -5.2872   -0.2979 H   0  0  0  0  0  0  0  0  0  0  0  0
    0.2397   -1.0150    1.7324 H   0  0  0  0  0  0  0  0  0  0  0  0
    1.3893    0.8520    1.1160 H   0  0  0  0  0  0  0  0  0  0  0  0
    3.2458    1.8126    2.0670 H   0  0  0  0  0  0  0  0  0  0  0  0
    4.5344    0.9282    3.8084 H   0  0  0  0  0  0  0  0  0  0  0  0
    1.5372    0.0801    4.8085 H   0  0  0  0  0  0  0  0  0  0  0  0
    6.1945   -2.1742    3.9598 H   0  0  0  0  0  0  0  0  0  0  0  0
    5.7802   -0.2445    2.0884 H   0  0  0  0  0  0  0  0  0  0  0  0
    6.9208   -1.4902    1.8024 H   0  0  0  0  0  0  0  0  0  0  0  0
    4.2790   -1.0931    0.4118 H   0  0  0  0  0  0  0  0  0  0  0  0
    5.8671   -1.1484   -0.2340 H   0  0  0  0  0  0  0  0  0  0  0  0
    3.5257   -2.9814    5.8754 H   0  0  0  0  0  0  0  0  0  0  0  0
    3.0524   -4.2148   -2.3062 H   0  0  0  0  0  0  0  0  0  0  0  0
  1  2  2  0
  1 34  1  0
  1 35  1  0
  2 32  1  0
  2  3  1  0
  3  4  1  0
  3 36  1  0
  3 37  1  0
  4  5  1  0
  4  6  1  0
  4 38  1  1
  5 39  1  0
  5 40  1  0
  5 41  1  0
  6 15  1  0
  6  7  1  0
  6 42  1  6
  7  8  1  0
  7 43  1  0
  7 44  1  0
  8 30  1  0
  8  9  1  0
  8 45  1  6
  9 10  1  0
  9 46  1  0
  9 47  1  0
 10 30  1  0
 10 11  1  0
 10 48  1  6
 11 12  1  0
 11 13  1  0
 11 67  1  6
 12 49  1  0
 12 50  1  0
 12 51  1  0
 13 14  1  0
 13 52  1  0
 13 53  1  0
 15 14  1  6
 14 54  1  0
 14 55  1  0
 15 30  1  0
 15 16  1  0
 16 31  1  0
 16 17  2  0
 17 26  1  0
 17 18  1  0
 18 33  1  0
 18 19  2  0
 19 25  1  0
 19 20  1  0
 20 21  2  0
 20 56  1  0
 21 22  1  0
 21 57  1  0
 22 23  2  0
 22 58  1  0
 23 24  1  0
 23 59  1  0
 24 25  2  0
 26 24  1  1
 25 60  1  0
 26 27  1  0
 26 32  1  0
 27 28  1  0
 27 31  1  0
 27 61  1  1
 28 29  1  0
 28 62  1  0
 28 63  1  0
 30 29  1  1
 29 64  1  0
 29 65  1  0
 32 33  1  0
 32 66  1  1
M  CHG  1  11   1
M  END
>  <i_m_ct_stereo_status>  (425) 
1

>  <s_m_source_file>  (425) 
/var/tmp/pbs.5076255.sched01/tmp277fsmq3/144xeprw1xa.sdf

>  <i_m_source_file_index>  (425) 
32

>  <i_lp_mmshare_version>  (425) 
48012

>  <i_f3d_flags>  (425) 
0

>  <s_epik_input>  (425) 
W0NIMl0xW0NIMl1OKFtDSDNdKVtDQEBIXTJbQ0gyXVtDQEBIXShbQ0BdMjNbQ0BAXTE0NSlbQ0gyXVtDQEhdNFtDQEhdKFtDSDNdKVtDSDJdQyg9W0NIMl0pW0NASF02W0NAQF03OEMoPUM1T1tDQEhdOFtDSDJdW0NIMl0zKUMoTzYpPUM5W0NIXT1bQ0hdW0NIXT1bQ0hdQzc9W0NIXTk=

>  <s_epik_cmdline>  (425) 
J2VwaWtfcHl0aG9uJywgJy1waHQnLCAnMi4wJywgJy1waCcsICc3LjAnLCAnLXRuJywgJzgnLCAnLW1hJywgJzIwMCcsICctaW1hZScsICc8aW5maWxlLm1hZT4nLCAnLW9tYWUnLCAnPG91dGZpbGUubWFlPic=

>  <r_epik_Ionization_Penalty>  (425) 
0.0112199

>  <r_epik_Ionization_Penalty_Charging>  (425) 
0.0112199

>  <r_epik_Ionization_Penalty_Neutral>  (425) 
0

>  <r_epik_State_Penalty>  (425) 
0.00862306

>  <r_epik_Charging_Adjusted_Penalty>  (425) 
0.019843

>  <i_epik_Tot_Q>  (425) 
1

>  <i_epik_Tot_abs_Q>  (425) 
1

>  <s_lp_Force_Field>  (425) 
OPLS3e

>  <r_lp_Energy>  (425) 
288.24

>  <b_lp_Chiralities_Consistent>  (425) 
1

>  <s_lp_Variant>  (425) 
106:0-1

>  <s_i_glide_gridfile>  (425) 
pfpi4k_grid

>  <i_i_glide_lignum>  (425) 
32

>  <i_i_glide_rotatable_bonds>  (425) 
0

>  <r_i_docking_score>  (425) 
-2.78766

>  <r_i_glide_ligand_efficiency>  (425) 
-0.0844746

>  <r_i_glide_ligand_efficiency_sa>  (425) 
-0.270955

>  <r_i_glide_ligand_efficiency_ln>  (425) 
-0.619962

>  <r_i_glide_gscore>  (425) 
-2.78766

>  <r_i_glide_lipo>  (425) 
-0.588656

>  <r_i_glide_hbond>  (425) 
0

>  <r_i_glide_metal>  (425) 
-0

>  <r_i_glide_rewards>  (425) 
-0.405024

>  <r_i_glide_evdw>  (425) 
-18.1594

>  <r_i_glide_ecoul>  (425) 
-5.90676

>  <r_i_glide_erotb>  (425) 
0

>  <r_i_glide_esite>  (425) 
0

>  <r_i_glide_emodel>  (425) 
-28.6133

>  <r_i_glide_energy>  (425) 
-24.0661

>  <r_i_glide_einternal>  (425) 
0

>  <r_i_glide_intrahb_reward>  (425) 
-0

>  <i_i_glide_confnum>  (425) 
1

>  <i_i_glide_posenum>  (425) 
1

>  <r_i_glide_eff_state_penalty>  (425) 
0

>  <ligand_id>  (425) 
106

>  <original_smiles>  (425) 
C=C1CC(C)C2CC3CC4N(C)CCC25C2=C6C7=C8C=CC=CC(=C8)C6(C(CCC345)O2)C1O7

>  <smiles>  (425) 
[H]C([H])=C1C([H])([H])C([H])(C([H])([H])[H])C2([H])C([H])([H])C3([H])C([H])([H])C4([H])C35C([H])([H])C([H])([H])C3([H])OC(=C6C7=C8C([H])=C([H])C([H])=C([H])C(=C8[H])C63C1([H])O7)C25C([H])([H])C([H])([H])[N+]4([H])C([H])([H])[H]

$$$$
106:0:1
     RDKit          3D

 67 75  0  0  1  0  0  0  0  0999 V2000
    4.6866   -4.6976    5.7798 C   0  0  0  0  0  0  0  0  0  0  0  0
    3.9457   -4.3160    4.7240 C   0  0  0  0  0  0  0  0  0  0  0  0
    3.8392   -5.2751    3.4958 C   0  0  0  0  0  0  0  0  0  0  0  0
    5.1434   -5.4340    2.6129 C   0  0  1  0  0  0  0  0  0  0  0  0
    5.4715   -6.9326    2.4090 C   0  0  0  0  0  0  0  0  0  0  0  0
    5.2698   -4.6771    1.2115 C   0  0  2  0  0  0  0  0  0  0  0  0
    6.7394   -4.3065    0.8839 C   0  0  0  0  0  0  0  0  0  0  0  0
    6.7136   -3.0239    0.0624 C   0  0  1  0  0  0  0  0  0  0  0  0
    6.3780   -3.1274   -1.4351 C   0  0  0  0  0  0  0  0  0  0  0  0
    5.3193   -2.0513   -1.2391 C   0  0  1  0  0  0  0  0  0  0  0  0
    3.9926   -2.3253   -1.8612 N   0  0  2  0  0  0  0  0  0  0  0  0
    3.6306   -1.3325   -2.8995 C   0  0  0  0  0  0  0  0  0  0  0  0
    2.9029   -2.4739   -0.8759 C   0  0  0  0  0  0  0  0  0  0  0  0
    3.1877   -3.6306    0.0716 C   0  0  0  0  0  0  0  0  0  0  0  0
    4.4449   -3.3576    0.9299 C   0  0  1  0  0  0  0  0  0  0  0  0
    4.1708   -2.7359    2.2244 C   0  0  0  0  0  0  0  0  0  0  0  0
    3.1603   -2.1332    2.8349 C   0  0  0  0  0  0  0  0  0  0  0  0
    1.7597   -2.3983    2.9705 C   0  0  0  0  0  0  0  0  0  0  0  0
    1.1042   -1.2287    3.2262 C   0  0  0  0  0  0  0  0  0  0  0  0
    0.9173   -0.3536    2.2064 C   0  0  0  0  0  0  0  0  0  0  0  0
    1.5957    0.8076    2.0436 C   0  0  0  0  0  0  0  0  0  0  0  0
    2.5927    1.3353    2.8001 C   0  0  0  0  0  0  0  0  0  0  0  0
    3.1721    0.7780    3.8798 C   0  0  0  0  0  0  0  0  0  0  0  0
    2.8156   -0.4069    4.4340 C   0  0  0  0  0  0  0  0  0  0  0  0
    1.4791   -0.6463    4.3988 C   0  0  0  0  0  0  0  0  0  0  0  0
    3.6623   -1.6777    4.1069 C   0  0  2  0  0  0  0  0  0  0  0  0
    5.1879   -1.5359    3.7252 C   0  0  2  0  0  0  0  0  0  0  0  0
    5.7766   -0.5931    2.5911 C   0  0  0  0  0  0  0  0  0  0  0  0
    5.4436   -0.8232    1.0327 C   0  0  0  0  0  0  0  0  0  0  0  0
    5.4010   -2.2657    0.2943 C   0  0  1  0  0  0  0  0  0  0  0  0
    5.3420   -2.6328    2.9123 O   0  0  0  0  0  0  0  0  0  0  0  0
    3.0939   -2.9993    4.7998 C   0  0  1  0  0  0  0  0  0  0  0  0
    1.8248   -3.1940    4.0991 O   0  0  0  0  0  0  0  0  0  0  0  0
    4.7472   -4.1008    6.6761 H   0  0  0  0  0  0  0  0  0  0  0  0
    5.2395   -5.6236    5.7689 H   0  0  0  0  0  0  0  0  0  0  0  0
    3.5980   -6.2509    3.9192 H   0  0  0  0  0  0  0  0  0  0  0  0
    2.9722   -5.0546    2.8772 H   0  0  0  0  0  0  0  0  0  0  0  0
    5.9559   -5.0746    3.2440 H   0  0  0  0  0  0  0  0  0  0  0  0
    4.7070   -7.4456    1.8235 H   0  0  0  0  0  0  0  0  0  0  0  0
    5.5543   -7.4572    3.3611 H   0  0  0  0  0  0  0  0  0  0  0  0
    6.4236   -7.0755    1.8946 H   0  0  0  0  0  0  0  0  0  0  0  0
    4.9914   -5.3910    0.4380 H   0  0  0  0  0  0  0  0  0  0  0  0
    7.3008   -4.1259    1.7936 H   0  0  0  0  0  0  0  0  0  0  0  0
    7.2634   -5.1118    0.3725 H   0  0  0  0  0  0  0  0  0  0  0  0
    7.5839   -2.3852    0.2145 H   0  0  0  0  0  0  0  0  0  0  0  0
    7.2036   -2.8405   -2.0916 H   0  0  0  0  0  0  0  0  0  0  0  0
    5.9765   -4.1053   -1.7074 H   0  0  0  0  0  0  0  0  0  0  0  0
    5.7217   -1.0820   -1.5314 H   0  0  0  0  0  0  0  0  0  0  0  0
    3.5024   -0.3372   -2.4671 H   0  0  0  0  0  0  0  0  0  0  0  0
    2.6891   -1.5948   -3.3850 H   0  0  0  0  0  0  0  0  0  0  0  0
    4.3951   -1.2680   -3.6724 H   0  0  0  0  0  0  0  0  0  0  0  0
    2.7656   -1.5511   -0.3115 H   0  0  0  0  0  0  0  0  0  0  0  0
    1.9770   -2.6743   -1.4081 H   0  0  0  0  0  0  0  0  0  0  0  0
    2.3191   -3.8481    0.6955 H   0  0  0  0  0  0  0  0  0  0  0  0
    3.3224   -4.5180   -0.5535 H   0  0  0  0  0  0  0  0  0  0  0  0
    0.3077   -0.6197    1.3636 H   0  0  0  0  0  0  0  0  0  0  0  0
    1.3691    1.3555    1.1490 H   0  0  0  0  0  0  0  0  0  0  0  0
    2.9385    2.3144    2.4889 H   0  0  0  0  0  0  0  0  0  0  0  0
    3.9424    1.3442    4.3664 H   0  0  0  0  0  0  0  0  0  0  0  0
    0.9021    0.2118    4.6985 H   0  0  0  0  0  0  0  0  0  0  0  0
    5.8166   -1.5947    4.6084 H   0  0  0  0  0  0  0  0  0  0  0  0
    5.5791    0.4407    2.8487 H   0  0  0  0  0  0  0  0  0  0  0  0
    6.8591   -0.6752    2.6707 H   0  0  0  0  0  0  0  0  0  0  0  0
    4.4963   -0.3196    0.8335 H   0  0  0  0  0  0  0  0  0  0  0  0
    6.1736   -0.2102    0.5069 H   0  0  0  0  0  0  0  0  0  0  0  0
    2.8964   -2.7978    5.8592 H   0  0  0  0  0  0  0  0  0  0  0  0
    4.0529   -3.2226   -2.3270 H   0  0  0  0  0  0  0  0  0  0  0  0
  1  2  2  0
  1 34  1  0
  1 35  1  0
  2 32  1  0
  2  3  1  0
  3  4  1  0
  3 36  1  0
  3 37  1  0
  4  5  1  0
  4  6  1  0
  4 38  1  1
  5 39  1  0
  5 40  1  0
  5 41  1  0
  6 15  1  0
  6  7  1  0
  6 42  1  6
  7  8  1  0
  7 43  1  0
  7 44  1  0
  8 30  1  0
  8  9  1  0
  8 45  1  6
  9 10  1  0
  9 46  1  0
  9 47  1  0
 10 30  1  0
 10 11  1  0
 10 48  1  1
 11 12  1  0
 11 13  1  0
 11 67  1  6
 12 49  1  0
 12 50  1  0
 12 51  1  0
 13 14  1  0
 13 52  1  0
 13 53  1  0
 15 14  1  6
 14 54  1  0
 14 55  1  0
 15 30  1  0
 15 16  1  0
 16 31  1  0
 16 17  2  0
 17 26  1  0
 17 18  1  0
 18 33  1  0
 18 19  2  0
 19 25  1  0
 19 20  1  0
 20 21  2  0
 20 56  1  0
 21 22  1  0
 21 57  1  0
 22 23  2  0
 22 58  1  0
 23 24  1  0
 23 59  1  0
 24 25  2  0
 26 24  1  1
 25 60  1  0
 26 27  1  0
 26 32  1  0
 27 28  1  0
 27 31  1  0
 27 61  1  1
 28 29  1  0
 28 62  1  0
 28 63  1  0
 30 29  1  1
 29 64  1  0
 29 65  1  0
 32 33  1  0
 32 66  1  1
M  CHG  1  11   1
M  END
>  <i_m_ct_stereo_status>  (426) 
1

>  <s_m_source_file>  (426) 
/var/tmp/pbs.5076255.sched01/tmp277fsmq3/144xeprw1xa.sdf

>  <i_m_source_file_index>  (426) 
32

>  <i_lp_mmshare_version>  (426) 
48012

>  <i_f3d_flags>  (426) 
0

>  <s_epik_input>  (426) 
W0NIMl0xW0NIMl1OKFtDSDNdKVtDQEBIXTJbQ0gyXVtDQEBIXShbQ0BdMjNbQ0BAXTE0NSlbQ0gyXVtDQEhdNFtDQEhdKFtDSDNdKVtDSDJdQyg9W0NIMl0pW0NASF02W0NAQF03OEMoPUM1T1tDQEhdOFtDSDJdW0NIMl0zKUMoTzYpPUM5W0NIXT1bQ0hdW0NIXT1bQ0hdQzc9W0NIXTk=

>  <s_epik_cmdline>  (426) 
J2VwaWtfcHl0aG9uJywgJy1waHQnLCAnMi4wJywgJy1waCcsICc3LjAnLCAnLXRuJywgJzgnLCAnLW1hJywgJzIwMCcsICctaW1hZScsICc8aW5maWxlLm1hZT4nLCAnLW9tYWUnLCAnPG91dGZpbGUubWFlPic=

>  <r_epik_Ionization_Penalty>  (426) 
0.0112199

>  <r_epik_Ionization_Penalty_Charging>  (426) 
0.0112199

>  <r_epik_Ionization_Penalty_Neutral>  (426) 
0

>  <r_epik_State_Penalty>  (426) 
0.00862306

>  <r_epik_Charging_Adjusted_Penalty>  (426) 
0.019843

>  <i_epik_Tot_Q>  (426) 
1

>  <i_epik_Tot_abs_Q>  (426) 
1

>  <s_lp_Force_Field>  (426) 
OPLS3e

>  <r_lp_Energy>  (426) 
288.24

>  <b_lp_Chiralities_Consistent>  (426) 
1

>  <s_lp_Variant>  (426) 
106:0-1

>  <s_i_glide_gridfile>  (426) 
pfpi4k_grid

>  <i_i_glide_lignum>  (426) 
32

>  <i_i_glide_rotatable_bonds>  (426) 
0

>  <r_i_docking_score>  (426) 
-2.76885

>  <r_i_glide_ligand_efficiency>  (426) 
-0.0839045

>  <r_i_glide_ligand_efficiency_sa>  (426) 
-0.269127

>  <r_i_glide_ligand_efficiency_ln>  (426) 
-0.615778

>  <r_i_glide_gscore>  (426) 
-2.76885

>  <r_i_glide_lipo>  (426) 
-0.658551

>  <r_i_glide_hbond>  (426) 
0

>  <r_i_glide_metal>  (426) 
-0

>  <r_i_glide_rewards>  (426) 
-0.405024

>  <r_i_glide_evdw>  (426) 
-23.2029

>  <r_i_glide_ecoul>  (426) 
-3.51906

>  <r_i_glide_erotb>  (426) 
0

>  <r_i_glide_esite>  (426) 
-0.017267

>  <r_i_glide_emodel>  (426) 
-31.279

>  <r_i_glide_energy>  (426) 
-26.722

>  <r_i_glide_einternal>  (426) 
0

>  <r_i_glide_intrahb_reward>  (426) 
-0

>  <i_i_glide_confnum>  (426) 
1

>  <i_i_glide_posenum>  (426) 
11

>  <r_i_glide_eff_state_penalty>  (426) 
0

>  <ligand_id>  (426) 
106

>  <original_smiles>  (426) 
C=C1CC(C)C2CC3CC4N(C)CCC25C2=C6C7=C8C=CC=CC(=C8)C6(C(CCC345)O2)C1O7

>  <smiles>  (426) 
[H]C([H])=C1C([H])([H])C([H])(C([H])([H])[H])C2([H])C([H])([H])C3([H])C([H])([H])C4([H])C35C([H])([H])C([H])([H])C3([H])OC(=C6C7=C8C([H])=C([H])C([H])=C([H])C(=C8[H])C63C1([H])O7)C25C([H])([H])C([H])([H])[N+]4([H])C([H])([H])[H]

$$$$
106:0:2
     RDKit          3D

 67 75  0  0  1  0  0  0  0  0999 V2000
   -2.7438    2.4592    6.9474 C   0  0  0  0  0  0  0  0  0  0  0  0
   -1.4068    2.3332    6.9152 C   0  0  0  0  0  0  0  0  0  0  0  0
   -0.5891    3.2968    6.0001 C   0  0  0  0  0  0  0  0  0  0  0  0
   -0.7174    3.0645    4.4399 C   0  0  1  0  0  0  0  0  0  0  0  0
   -1.0648    4.3940    3.7310 C   0  0  0  0  0  0  0  0  0  0  0  0
    0.4486    2.3303    3.6326 C   0  0  2  0  0  0  0  0  0  0  0  0
   -0.1006    1.5315    2.4206 C   0  0  0  0  0  0  0  0  0  0  0  0
    0.8167    0.3363    2.2144 C   0  0  1  0  0  0  0  0  0  0  0  0
    2.1568    0.5682    1.4977 C   0  0  0  0  0  0  0  0  0  0  0  0
    2.8573   -0.1413    2.6506 C   0  0  1  0  0  0  0  0  0  0  0  0
    4.0742    0.5321    3.1886 N   0  0  2  0  0  0  0  0  0  0  0  0
    5.2990   -0.2825    3.0113 C   0  0  0  0  0  0  0  0  0  0  0  0
    3.9412    0.9832    4.5903 C   0  0  0  0  0  0  0  0  0  0  0  0
    2.7946    1.9848    4.7033 C   0  0  0  0  0  0  0  0  0  0  0  0
    1.4329    1.3312    4.3676 C   0  0  1  0  0  0  0  0  0  0  0  0
    0.7189    0.8007    5.5276 C   0  0  0  0  0  0  0  0  0  0  0  0
    0.9742    0.5257    6.7978 C   0  0  0  0  0  0  0  0  0  0  0  0
    1.6543    1.2037    7.8643 C   0  0  0  0  0  0  0  0  0  0  0  0
    2.0916    0.2866    8.7757 C   0  0  0  0  0  0  0  0  0  0  0  0
    3.1746   -0.4647    8.4667 C   0  0  0  0  0  0  0  0  0  0  0  0
    3.1328   -1.7808    8.1150 C   0  0  0  0  0  0  0  0  0  0  0  0
    2.0617   -2.5977    7.9772 C   0  0  0  0  0  0  0  0  0  0  0  0
    0.7607   -2.2683    8.1045 C   0  0  0  0  0  0  0  0  0  0  0  0
    0.2999   -1.0421    8.4503 C   0  0  0  0  0  0  0  0  0  0  0  0
    1.0770   -0.4047    9.3657 C   0  0  0  0  0  0  0  0  0  0  0  0
   -0.2190   -0.0858    7.3295 C   0  0  2  0  0  0  0  0  0  0  0  0
   -0.8050   -0.6814    5.9867 C   0  0  2  0  0  0  0  0  0  0  0  0
   -0.0848   -1.7369    5.0476 C   0  0  0  0  0  0  0  0  0  0  0  0
    1.2737   -1.3878    4.2617 C   0  0  0  0  0  0  0  0  0  0  0  0
    1.5748    0.0104    3.5056 C   0  0  1  0  0  0  0  0  0  0  0  0
   -0.4945    0.3330    5.1192 O   0  0  0  0  0  0  0  0  0  0  0  0
   -0.6880    1.3378    7.8919 C   0  0  1  0  0  0  0  0  0  0  0  0
    0.5730    1.9201    8.3492 O   0  0  0  0  0  0  0  0  0  0  0  0
   -3.3543    1.8609    7.6024 H   0  0  0  0  0  0  0  0  0  0  0  0
   -3.2579    3.1660    6.3144 H   0  0  0  0  0  0  0  0  0  0  0  0
   -0.9716    4.2921    6.2279 H   0  0  0  0  0  0  0  0  0  0  0  0
    0.4535    3.3605    6.3022 H   0  0  0  0  0  0  0  0  0  0  0  0
   -1.6172    2.4633    4.3138 H   0  0  0  0  0  0  0  0  0  0  0  0
   -0.2575    5.1252    3.8074 H   0  0  0  0  0  0  0  0  0  0  0  0
   -1.9606    4.8396    4.1572 H   0  0  0  0  0  0  0  0  0  0  0  0
   -1.2697    4.2478    2.6687 H   0  0  0  0  0  0  0  0  0  0  0  0
    1.0659    3.1077    3.1832 H   0  0  0  0  0  0  0  0  0  0  0  0
   -1.1067    1.1722    2.6169 H   0  0  0  0  0  0  0  0  0  0  0  0
   -0.1780    2.1407    1.5248 H   0  0  0  0  0  0  0  0  0  0  0  0
    0.3179   -0.5376    1.8001 H   0  0  0  0  0  0  0  0  0  0  0  0
    2.2317    0.0511    0.5388 H   0  0  0  0  0  0  0  0  0  0  0  0
    2.3966    1.6258    1.3921 H   0  0  0  0  0  0  0  0  0  0  0  0
    3.0416   -1.1819    2.3760 H   0  0  0  0  0  0  0  0  0  0  0  0
    5.2479   -1.2008    3.6035 H   0  0  0  0  0  0  0  0  0  0  0  0
    6.1876    0.2602    3.3425 H   0  0  0  0  0  0  0  0  0  0  0  0
    5.4552   -0.5618    1.9679 H   0  0  0  0  0  0  0  0  0  0  0  0
    3.7897    0.1340    5.2592 H   0  0  0  0  0  0  0  0  0  0  0  0
    4.8658    1.4648    4.9083 H   0  0  0  0  0  0  0  0  0  0  0  0
    2.7816    2.4553    5.6868 H   0  0  0  0  0  0  0  0  0  0  0  0
    3.0184    2.7937    4.0028 H   0  0  0  0  0  0  0  0  0  0  0  0
    4.1436   -0.0034    8.3456 H   0  0  0  0  0  0  0  0  0  0  0  0
    4.0766   -2.2255    7.8396 H   0  0  0  0  0  0  0  0  0  0  0  0
    2.2914   -3.6374    7.7549 H   0  0  0  0  0  0  0  0  0  0  0  0
    0.0403   -3.0580    7.9720 H   0  0  0  0  0  0  0  0  0  0  0  0
    1.3624   -1.0534   10.1825 H   0  0  0  0  0  0  0  0  0  0  0  0
   -1.8810   -0.8334    6.0437 H   0  0  0  0  0  0  0  0  0  0  0  0
    0.0552   -2.6734    5.5798 H   0  0  0  0  0  0  0  0  0  0  0  0
   -0.8150   -1.9722    4.2740 H   0  0  0  0  0  0  0  0  0  0  0  0
    2.0982   -1.5764    4.9511 H   0  0  0  0  0  0  0  0  0  0  0  0
    1.3708   -2.1833    3.5228 H   0  0  0  0  0  0  0  0  0  0  0  0
   -1.3477    1.1879    8.7538 H   0  0  0  0  0  0  0  0  0  0  0  0
    4.2051    1.3824    2.6459 H   0  0  0  0  0  0  0  0  0  0  0  0
  1  2  2  0
  1 34  1  0
  1 35  1  0
  2 32  1  0
  2  3  1  0
  3  4  1  0
  3 36  1  0
  3 37  1  0
  4  5  1  0
  4  6  1  0
  4 38  1  1
  5 39  1  0
  5 40  1  0
  5 41  1  0
  6 15  1  0
  6  7  1  0
  6 42  1  6
  7  8  1  0
  7 43  1  0
  7 44  1  0
  8 30  1  0
  8  9  1  0
  8 45  1  6
  9 10  1  0
  9 46  1  0
  9 47  1  0
 10 30  1  0
 10 11  1  0
 10 48  1  6
 11 12  1  0
 11 13  1  0
 11 67  1  6
 12 49  1  0
 12 50  1  0
 12 51  1  0
 13 14  1  0
 13 52  1  0
 13 53  1  0
 15 14  1  1
 14 54  1  0
 14 55  1  0
 15 30  1  0
 15 16  1  0
 16 31  1  0
 16 17  2  0
 17 26  1  0
 17 18  1  0
 18 33  1  0
 18 19  2  0
 19 25  1  0
 19 20  1  0
 20 21  2  0
 20 56  1  0
 21 22  1  0
 21 57  1  0
 22 23  2  0
 22 58  1  0
 23 24  1  0
 23 59  1  0
 24 25  2  0
 26 24  1  1
 25 60  1  0
 26 27  1  0
 26 32  1  0
 27 28  1  0
 27 31  1  0
 27 61  1  1
 28 29  1  0
 28 62  1  0
 28 63  1  0
 30 29  1  1
 29 64  1  0
 29 65  1  0
 32 33  1  0
 32 66  1  1
M  CHG  1  11   1
M  END
>  <i_m_ct_stereo_status>  (427) 
1

>  <s_m_source_file>  (427) 
/var/tmp/pbs.5076255.sched01/tmp277fsmq3/144xeprw1xa.sdf

>  <i_m_source_file_index>  (427) 
32

>  <i_lp_mmshare_version>  (427) 
48012

>  <i_f3d_flags>  (427) 
0

>  <s_epik_input>  (427) 
W0NIMl0xW0NIMl1OKFtDSDNdKVtDQEBIXTJbQ0gyXVtDQEBIXShbQ0BdMjNbQ0BAXTE0NSlbQ0gyXVtDQEhdNFtDQEhdKFtDSDNdKVtDSDJdQyg9W0NIMl0pW0NASF02W0NAQF03OEMoPUM1T1tDQEhdOFtDSDJdW0NIMl0zKUMoTzYpPUM5W0NIXT1bQ0hdW0NIXT1bQ0hdQzc9W0NIXTk=

>  <s_epik_cmdline>  (427) 
J2VwaWtfcHl0aG9uJywgJy1waHQnLCAnMi4wJywgJy1waCcsICc3LjAnLCAnLXRuJywgJzgnLCAnLW1hJywgJzIwMCcsICctaW1hZScsICc8aW5maWxlLm1hZT4nLCAnLW9tYWUnLCAnPG91dGZpbGUubWFlPic=

>  <r_epik_Ionization_Penalty>  (427) 
0.0112199

>  <r_epik_Ionization_Penalty_Charging>  (427) 
0.0112199

>  <r_epik_Ionization_Penalty_Neutral>  (427) 
0

>  <r_epik_State_Penalty>  (427) 
0.00862306

>  <r_epik_Charging_Adjusted_Penalty>  (427) 
0.019843

>  <i_epik_Tot_Q>  (427) 
1

>  <i_epik_Tot_abs_Q>  (427) 
1

>  <s_lp_Force_Field>  (427) 
OPLS3e

>  <r_lp_Energy>  (427) 
288.24

>  <b_lp_Chiralities_Consistent>  (427) 
1

>  <s_lp_Variant>  (427) 
106:0-1

>  <s_i_glide_gridfile>  (427) 
pfpi4k_grid

>  <i_i_glide_lignum>  (427) 
32

>  <i_i_glide_rotatable_bonds>  (427) 
0

>  <r_i_docking_score>  (427) 
-1.88587

>  <r_i_glide_ligand_efficiency>  (427) 
-0.0571477

>  <r_i_glide_ligand_efficiency_sa>  (427) 
-0.183303

>  <r_i_glide_ligand_efficiency_ln>  (427) 
-0.419409

>  <r_i_glide_gscore>  (427) 
-1.88587

>  <r_i_glide_lipo>  (427) 
-0.262496

>  <r_i_glide_hbond>  (427) 
0

>  <r_i_glide_metal>  (427) 
-0

>  <r_i_glide_rewards>  (427) 
-0.405024

>  <r_i_glide_evdw>  (427) 
-20.1433

>  <r_i_glide_ecoul>  (427) 
-1.34525

>  <r_i_glide_erotb>  (427) 
0

>  <r_i_glide_esite>  (427) 
-0.00940243

>  <r_i_glide_emodel>  (427) 
-24.3538

>  <r_i_glide_energy>  (427) 
-21.4885

>  <r_i_glide_einternal>  (427) 
0

>  <r_i_glide_intrahb_reward>  (427) 
-0

>  <i_i_glide_confnum>  (427) 
2

>  <i_i_glide_posenum>  (427) 
2

>  <r_i_glide_eff_state_penalty>  (427) 
0

>  <ligand_id>  (427) 
106

>  <original_smiles>  (427) 
C=C1CC(C)C2CC3CC4N(C)CCC25C2=C6C7=C8C=CC=CC(=C8)C6(C(CCC345)O2)C1O7

>  <smiles>  (427) 
[H]C([H])=C1C([H])([H])C([H])(C([H])([H])[H])C2([H])C([H])([H])C3([H])C([H])([H])C4([H])C35C([H])([H])C([H])([H])C3([H])OC(=C6C7=C8C([H])=C([H])C([H])=C([H])C(=C8[H])C63C1([H])O7)C25C([H])([H])C([H])([H])[N+]4([H])C([H])([H])[H]

$$$$
106:1:0
     RDKit          3D

 66 74  0  0  1  0  0  0  0  0999 V2000
    3.3754   -3.9334    6.5472 C   0  0  0  0  0  0  0  0  0  0  0  0
    4.2795   -4.2523    5.6035 C   0  0  0  0  0  0  0  0  0  0  0  0
    5.1158   -3.1103    4.9486 C   0  0  0  0  0  0  0  0  0  0  0  0
    4.3445   -2.1272    3.9809 C   0  0  1  0  0  0  0  0  0  0  0  0
    4.6763   -0.6577    4.3319 C   0  0  0  0  0  0  0  0  0  0  0  0
    4.4155   -2.3034    2.3917 C   0  0  2  0  0  0  0  0  0  0  0  0
    3.0646   -1.9050    1.7290 C   0  0  0  0  0  0  0  0  0  0  0  0
    2.9033   -2.7562    0.4834 C   0  0  1  0  0  0  0  0  0  0  0  0
    3.6074   -2.2817   -0.7890 C   0  0  0  0  0  0  0  0  0  0  0  0
    4.3607   -3.6063   -0.8412 C   0  0  1  0  0  0  0  0  0  0  0  0
    5.8067   -3.7034   -1.1022 N   0  0  0  0  0  0  0  0  0  0  0  0
    6.1697   -3.1534   -2.3999 C   0  0  0  0  0  0  0  0  0  0  0  0
    6.5769   -3.0766   -0.0359 C   0  0  0  0  0  0  0  0  0  0  0  0
    6.2898   -3.7801    1.2994 C   0  0  0  0  0  0  0  0  0  0  0  0
    4.8080   -3.6914    1.7417 C   0  0  1  0  0  0  0  0  0  0  0  0
    4.4199   -4.7292    2.6980 C   0  0  0  0  0  0  0  0  0  0  0  0
    4.9271   -5.8593    3.1721 C   0  0  0  0  0  0  0  0  0  0  0  0
    6.2106   -6.2575    3.6703 C   0  0  0  0  0  0  0  0  0  0  0  0
    6.3467   -7.6081    3.5290 C   0  0  0  0  0  0  0  0  0  0  0  0
    6.5942   -8.1179    2.2967 C   0  0  0  0  0  0  0  0  0  0  0  0
    5.6750   -8.7792    1.5401 C   0  0  0  0  0  0  0  0  0  0  0  0
    4.3717   -9.0495    1.8069 C   0  0  0  0  0  0  0  0  0  0  0  0
    3.6649   -8.6704    2.8886 C   0  0  0  0  0  0  0  0  0  0  0  0
    4.1659   -7.9762    3.9379 C   0  0  0  0  0  0  0  0  0  0  0  0
    5.4404   -8.3168    4.2566 C   0  0  0  0  0  0  0  0  0  0  0  0
    3.9081   -6.4399    4.0127 C   0  0  2  0  0  0  0  0  0  0  0  0
    2.6405   -5.8130    3.3021 C   0  0  2  0  0  0  0  0  0  0  0  0
    2.2413   -6.0215    1.7761 C   0  0  0  0  0  0  0  0  0  0  0  0
    3.1405   -5.4527    0.5641 C   0  0  0  0  0  0  0  0  0  0  0  0
    3.8168   -3.9860    0.5553 C   0  0  1  0  0  0  0  0  0  0  0  0
    3.1092   -4.5499    3.0355 O   0  0  0  0  0  0  0  0  0  0  0  0
    4.5881   -5.7598    5.2900 C   0  0  1  0  0  0  0  0  0  0  0  0
    6.0157   -5.9103    4.9935 O   0  0  0  0  0  0  0  0  0  0  0  0
    2.8181   -4.6911    7.0761 H   0  0  0  0  0  0  0  0  0  0  0  0
    3.1884   -2.9055    6.8151 H   0  0  0  0  0  0  0  0  0  0  0  0
    5.5029   -2.5255    5.7831 H   0  0  0  0  0  0  0  0  0  0  0  0
    6.0137   -3.4953    4.4796 H   0  0  0  0  0  0  0  0  0  0  0  0
    3.2986   -2.2323    4.2629 H   0  0  0  0  0  0  0  0  0  0  0  0
    5.7231   -0.4160    4.1422 H   0  0  0  0  0  0  0  0  0  0  0  0
    4.4801   -0.4441    5.3833 H   0  0  0  0  0  0  0  0  0  0  0  0
    4.0725    0.0461    3.7540 H   0  0  0  0  0  0  0  0  0  0  0  0
    5.1456   -1.5896    2.0117 H   0  0  0  0  0  0  0  0  0  0  0  0
    2.2283   -2.1076    2.3923 H   0  0  0  0  0  0  0  0  0  0  0  0
    3.0174   -0.8398    1.5008 H   0  0  0  0  0  0  0  0  0  0  0  0
    1.8733   -3.0228    0.2584 H   0  0  0  0  0  0  0  0  0  0  0  0
    2.9339   -2.1050   -1.6318 H   0  0  0  0  0  0  0  0  0  0  0  0
    4.2503   -1.4206   -0.6208 H   0  0  0  0  0  0  0  0  0  0  0  0
    3.8686   -4.2159   -1.5954 H   0  0  0  0  0  0  0  0  0  0  0  0
    7.2348   -3.3111   -2.5684 H   0  0  0  0  0  0  0  0  0  0  0  0
    5.9677   -2.0834   -2.4578 H   0  0  0  0  0  0  0  0  0  0  0  0
    5.6309   -3.6558   -3.2054 H   0  0  0  0  0  0  0  0  0  0  0  0
    7.6337   -3.1876   -0.2683 H   0  0  0  0  0  0  0  0  0  0  0  0
    6.3725   -2.0077    0.0266 H   0  0  0  0  0  0  0  0  0  0  0  0
    6.5884   -4.8230    1.1974 H   0  0  0  0  0  0  0  0  0  0  0  0
    6.9210   -3.3456    2.0744 H   0  0  0  0  0  0  0  0  0  0  0  0
    7.5034   -7.8756    1.7798 H   0  0  0  0  0  0  0  0  0  0  0  0
    5.9946   -9.0789    0.5600 H   0  0  0  0  0  0  0  0  0  0  0  0
    3.8720   -9.6753    1.0743 H   0  0  0  0  0  0  0  0  0  0  0  0
    2.6446   -8.9988    2.9485 H   0  0  0  0  0  0  0  0  0  0  0  0
    5.5809   -9.3809    4.2874 H   0  0  0  0  0  0  0  0  0  0  0  0
    1.7777   -5.7791    3.9675 H   0  0  0  0  0  0  0  0  0  0  0  0
    2.0255   -7.0695    1.5882 H   0  0  0  0  0  0  0  0  0  0  0  0
    1.2792   -5.5249    1.6762 H   0  0  0  0  0  0  0  0  0  0  0  0
    3.9305   -6.1824    0.3724 H   0  0  0  0  0  0  0  0  0  0  0  0
    2.5026   -5.5266   -0.3140 H   0  0  0  0  0  0  0  0  0  0  0  0
    4.3405   -6.3403    6.1870 H   0  0  0  0  0  0  0  0  0  0  0  0
  1  2  2  0
  1 34  1  0
  1 35  1  0
  2 32  1  0
  2  3  1  0
  3  4  1  0
  3 36  1  0
  3 37  1  0
  4  5  1  0
  4  6  1  0
  4 38  1  1
  5 39  1  0
  5 40  1  0
  5 41  1  0
  6 15  1  0
  6  7  1  0
  6 42  1  6
  7  8  1  0
  7 43  1  0
  7 44  1  0
  8 30  1  0
  8  9  1  0
  8 45  1  6
  9 10  1  0
  9 46  1  0
  9 47  1  0
 10 30  1  0
 10 11  1  0
 10 48  1  6
 11 12  1  0
 11 13  1  0
 12 49  1  0
 12 50  1  0
 12 51  1  0
 13 14  1  0
 13 52  1  0
 13 53  1  0
 15 14  1  6
 14 54  1  0
 14 55  1  0
 15 30  1  0
 15 16  1  0
 16 31  1  0
 16 17  2  0
 17 26  1  0
 17 18  1  0
 18 33  1  0
 18 19  2  0
 19 25  1  0
 19 20  1  0
 20 21  2  0
 20 56  1  0
 21 22  1  0
 21 57  1  0
 22 23  2  0
 22 58  1  0
 23 24  1  0
 23 59  1  0
 24 25  2  0
 26 24  1  1
 25 60  1  0
 26 27  1  0
 26 32  1  0
 27 28  1  0
 27 31  1  0
 27 61  1  1
 28 29  1  0
 28 62  1  0
 28 63  1  0
 30 29  1  6
 29 64  1  0
 29 65  1  0
 32 33  1  0
 32 66  1  1
M  END
>  <i_m_ct_stereo_status>  (428) 
1

>  <s_m_source_file>  (428) 
/var/tmp/pbs.5076255.sched01/tmp277fsmq3/144xeprw1xa.sdf

>  <i_m_source_file_index>  (428) 
33

>  <i_lp_mmshare_version>  (428) 
48012

>  <i_f3d_flags>  (428) 
0

>  <s_epik_input>  (428) 
W0NIMl0xW0NIMl1OKFtDSDNdKVtDQEBIXTJbQ0gyXVtDQEBIXShbQ0BdMjNbQ0BAXTE0NSlbQ0gyXVtDQEhdNFtDQEhdKFtDSDNdKVtDSDJdQyg9W0NIMl0pW0NASF02W0NAQF03OEMoPUM1T1tDQEhdOFtDSDJdW0NIMl0zKUMoTzYpPUM5W0NIXT1bQ0hdW0NIXT1bQ0hdQzc9W0NIXTk=

>  <s_epik_cmdline>  (428) 
J2VwaWtfcHl0aG9uJywgJy1waHQnLCAnMi4wJywgJy1waCcsICc3LjAnLCAnLXRuJywgJzgnLCAnLW1hJywgJzIwMCcsICctaW1hZScsICc8aW5maWxlLm1hZT4nLCAnLW9tYWUnLCAnPG91dGZpbGUubWFlPic=

>  <r_epik_Ionization_Penalty>  (428) 
2.35578

>  <r_epik_Ionization_Penalty_Charging>  (428) 
0

>  <r_epik_Ionization_Penalty_Neutral>  (428) 
2.35578

>  <r_epik_State_Penalty>  (428) 
2.51045

>  <r_epik_Charging_Adjusted_Penalty>  (428) 
2.51045

>  <i_epik_Tot_Q>  (428) 
0

>  <i_epik_Tot_abs_Q>  (428) 
0

>  <s_lp_Force_Field>  (428) 
OPLS3e

>  <r_lp_Energy>  (428) 
276.551

>  <b_lp_Chiralities_Consistent>  (428) 
1

>  <s_lp_Variant>  (428) 
106:0-2

>  <s_i_glide_gridfile>  (428) 
pfpi4k_grid

>  <i_i_glide_lignum>  (428) 
33

>  <i_i_glide_rotatable_bonds>  (428) 
0

>  <r_i_docking_score>  (428) 
-2.06111

>  <r_i_glide_ligand_efficiency>  (428) 
-0.0624577

>  <r_i_glide_ligand_efficiency_sa>  (428) 
-0.200335

>  <r_i_glide_ligand_efficiency_ln>  (428) 
-0.458379

>  <r_i_glide_gscore>  (428) 
-2.06111

>  <r_i_glide_lipo>  (428) 
-0.626111

>  <r_i_glide_hbond>  (428) 
0

>  <r_i_glide_metal>  (428) 
-0

>  <r_i_glide_rewards>  (428) 
-0.411896

>  <r_i_glide_evdw>  (428) 
-21.3808

>  <r_i_glide_ecoul>  (428) 
0.306278

>  <r_i_glide_erotb>  (428) 
0

>  <r_i_glide_esite>  (428) 
0

>  <r_i_glide_emodel>  (428) 
-23.431

>  <r_i_glide_energy>  (428) 
-21.0745

>  <r_i_glide_einternal>  (428) 
0

>  <r_i_glide_intrahb_reward>  (428) 
-0

>  <i_i_glide_confnum>  (428) 
2

>  <i_i_glide_posenum>  (428) 
40

>  <r_i_glide_eff_state_penalty>  (428) 
0

>  <ligand_id>  (428) 
106

>  <original_smiles>  (428) 
C=C1CC(C)C2CC3CC4N(C)CCC25C2=C6C7=C8C=CC=CC(=C8)C6(C(CCC345)O2)C1O7

>  <smiles>  (428) 
[H]C([H])=C1C([H])([H])C([H])(C([H])([H])[H])C2([H])C([H])([H])C3([H])C([H])([H])C4([H])N(C([H])([H])[H])C([H])([H])C([H])([H])C25C2=C6C7=C8C([H])=C([H])C([H])=C([H])C(=C8[H])C6(C1([H])O7)C([H])(O2)C([H])([H])C([H])([H])C435

$$$$
106:1:1
     RDKit          3D

 66 74  0  0  1  0  0  0  0  0999 V2000
    2.6132   -4.5080    6.1063 C   0  0  0  0  0  0  0  0  0  0  0  0
    3.7480   -4.5010    5.3844 C   0  0  0  0  0  0  0  0  0  0  0  0
    4.2840   -3.1389    4.8368 C   0  0  0  0  0  0  0  0  0  0  0  0
    3.4457   -2.4645    3.6773 C   0  0  1  0  0  0  0  0  0  0  0  0
    3.1946   -0.9715    3.9955 C   0  0  0  0  0  0  0  0  0  0  0  0
    3.8988   -2.5955    2.1474 C   0  0  2  0  0  0  0  0  0  0  0  0
    2.6598   -2.6649    1.2080 C   0  0  0  0  0  0  0  0  0  0  0  0
    3.0487   -3.5137    0.0106 C   0  0  1  0  0  0  0  0  0  0  0  0
    3.8061   -2.8223   -1.1262 C   0  0  0  0  0  0  0  0  0  0  0  0
    4.9495   -3.8146   -0.9419 C   0  0  1  0  0  0  0  0  0  0  0  0
    6.3707   -3.4250   -0.9052 N   0  0  0  0  0  0  0  0  0  0  0  0
    6.7895   -2.7776   -2.1385 C   0  0  0  0  0  0  0  0  0  0  0  0
    6.6467   -2.5811    0.2512 C   0  0  0  0  0  0  0  0  0  0  0  0
    6.3322   -3.3481    1.5454 C   0  0  0  0  0  0  0  0  0  0  0  0
    4.8496   -3.7681    1.6774 C   0  0  1  0  0  0  0  0  0  0  0  0
    4.6327   -4.8831    2.6016 C   0  0  0  0  0  0  0  0  0  0  0  0
    5.3714   -5.7871    3.2344 C   0  0  0  0  0  0  0  0  0  0  0  0
    6.5789   -5.7374    3.9998 C   0  0  0  0  0  0  0  0  0  0  0  0
    7.1795   -6.9579    3.9761 C   0  0  0  0  0  0  0  0  0  0  0  0
    7.8254   -7.3455    2.8545 C   0  0  0  0  0  0  0  0  0  0  0  0
    7.3493   -8.2480    1.9677 C   0  0  0  0  0  0  0  0  0  0  0  0
    6.1890   -8.9590    1.9928 C   0  0  0  0  0  0  0  0  0  0  0  0
    5.1996   -8.8513    2.8855 C   0  0  0  0  0  0  0  0  0  0  0  0
    5.2121   -8.0355    3.9680 C   0  0  0  0  0  0  0  0  0  0  0  0
    6.4294   -7.9356    4.5469 C   0  0  0  0  0  0  0  0  0  0  0  0
    4.4489   -6.6812    3.8905 C   0  0  2  0  0  0  0  0  0  0  0  0
    3.2230   -6.5047    2.9046 C   0  0  2  0  0  0  0  0  0  0  0  0
    3.2427   -6.8191    1.3459 C   0  0  0  0  0  0  0  0  0  0  0  0
    4.1488   -5.9737    0.3136 C   0  0  0  0  0  0  0  0  0  0  0  0
    4.2814   -4.3651    0.3401 C   0  0  1  0  0  0  0  0  0  0  0  0
    3.2958   -5.1547    2.6558 O   0  0  0  0  0  0  0  0  0  0  0  0
    4.5876   -5.8208    5.2327 C   0  0  1  0  0  0  0  0  0  0  0  0
    6.0157   -5.4879    5.2351 O   0  0  0  0  0  0  0  0  0  0  0  0
    2.2357   -5.4119    6.5581 H   0  0  0  0  0  0  0  0  0  0  0  0
    2.0455   -3.6048    6.2683 H   0  0  0  0  0  0  0  0  0  0  0  0
    4.2665   -2.4648    5.6943 H   0  0  0  0  0  0  0  0  0  0  0  0
    5.3393   -3.1832    4.5776 H   0  0  0  0  0  0  0  0  0  0  0  0
    2.4574   -2.9148    3.7536 H   0  0  0  0  0  0  0  0  0  0  0  0
    4.1195   -0.3930    4.0040 H   0  0  0  0  0  0  0  0  0  0  0  0
    2.7232   -0.8431    4.9695 H   0  0  0  0  0  0  0  0  0  0  0  0
    2.5294   -0.5049    3.2662 H   0  0  0  0  0  0  0  0  0  0  0  0
    4.4140   -1.6753    1.8753 H   0  0  0  0  0  0  0  0  0  0  0  0
    1.8203   -3.1393    1.7100 H   0  0  0  0  0  0  0  0  0  0  0  0
    2.3135   -1.6745    0.9083 H   0  0  0  0  0  0  0  0  0  0  0  0
    2.2370   -4.1114   -0.3990 H   0  0  0  0  0  0  0  0  0  0  0  0
    3.3020   -2.8736   -2.0964 H   0  0  0  0  0  0  0  0  0  0  0  0
    4.0792   -1.7981   -0.8859 H   0  0  0  0  0  0  0  0  0  0  0  0
    4.8494   -4.5462   -1.7399 H   0  0  0  0  0  0  0  0  0  0  0  0
    7.8597   -2.5746   -2.0896 H   0  0  0  0  0  0  0  0  0  0  0  0
    6.2605   -1.8391   -2.3045 H   0  0  0  0  0  0  0  0  0  0  0  0
    6.6160   -3.4247   -2.9992 H   0  0  0  0  0  0  0  0  0  0  0  0
    7.7061   -2.3314    0.2444 H   0  0  0  0  0  0  0  0  0  0  0  0
    6.0938   -1.6421    0.2052 H   0  0  0  0  0  0  0  0  0  0  0  0
    6.9729   -4.2287    1.5737 H   0  0  0  0  0  0  0  0  0  0  0  0
    6.5977   -2.7273    2.3983 H   0  0  0  0  0  0  0  0  0  0  0  0
    8.6960   -6.8193    2.5177 H   0  0  0  0  0  0  0  0  0  0  0  0
    7.9390   -8.3989    1.0877 H   0  0  0  0  0  0  0  0  0  0  0  0
    6.0867   -9.6995    1.2103 H   0  0  0  0  0  0  0  0  0  0  0  0
    4.3530   -9.4971    2.7600 H   0  0  0  0  0  0  0  0  0  0  0  0
    6.8999   -8.8891    4.6800 H   0  0  0  0  0  0  0  0  0  0  0  0
    2.2788   -6.7647    3.3831 H   0  0  0  0  0  0  0  0  0  0  0  0
    3.4272   -7.8779    1.1865 H   0  0  0  0  0  0  0  0  0  0  0  0
    2.2141   -6.6755    1.0181 H   0  0  0  0  0  0  0  0  0  0  0  0
    5.1535   -6.3960    0.3328 H   0  0  0  0  0  0  0  0  0  0  0  0
    3.8032   -6.2579   -0.6715 H   0  0  0  0  0  0  0  0  0  0  0  0
    4.3609   -6.4528    6.1002 H   0  0  0  0  0  0  0  0  0  0  0  0
  1  2  2  0
  1 34  1  0
  1 35  1  0
  2 32  1  0
  2  3  1  0
  3  4  1  0
  3 36  1  0
  3 37  1  0
  4  5  1  0
  4  6  1  0
  4 38  1  6
  5 39  1  0
  5 40  1  0
  5 41  1  0
  6 15  1  0
  6  7  1  0
  6 42  1  6
  7  8  1  0
  7 43  1  0
  7 44  1  0
  8 30  1  0
  8  9  1  0
  8 45  1  6
  9 10  1  0
  9 46  1  0
  9 47  1  0
 10 30  1  0
 10 11  1  0
 10 48  1  6
 11 12  1  0
 11 13  1  0
 12 49  1  0
 12 50  1  0
 12 51  1  0
 13 14  1  0
 13 52  1  0
 13 53  1  0
 15 14  1  6
 14 54  1  0
 14 55  1  0
 15 30  1  0
 15 16  1  0
 16 31  1  0
 16 17  2  0
 17 26  1  0
 17 18  1  0
 18 33  1  0
 18 19  2  0
 19 25  1  0
 19 20  1  0
 20 21  2  0
 20 56  1  0
 21 22  1  0
 21 57  1  0
 22 23  2  0
 22 58  1  0
 23 24  1  0
 23 59  1  0
 24 25  2  0
 26 24  1  1
 25 60  1  0
 26 27  1  0
 26 32  1  0
 27 28  1  0
 27 31  1  0
 27 61  1  1
 28 29  1  0
 28 62  1  0
 28 63  1  0
 30 29  1  1
 29 64  1  0
 29 65  1  0
 32 33  1  0
 32 66  1  1
M  END
>  <i_m_ct_stereo_status>  (429) 
1

>  <s_m_source_file>  (429) 
/var/tmp/pbs.5076255.sched01/tmp277fsmq3/144xeprw1xa.sdf

>  <i_m_source_file_index>  (429) 
33

>  <i_lp_mmshare_version>  (429) 
48012

>  <i_f3d_flags>  (429) 
0

>  <s_epik_input>  (429) 
W0NIMl0xW0NIMl1OKFtDSDNdKVtDQEBIXTJbQ0gyXVtDQEBIXShbQ0BdMjNbQ0BAXTE0NSlbQ0gyXVtDQEhdNFtDQEhdKFtDSDNdKVtDSDJdQyg9W0NIMl0pW0NASF02W0NAQF03OEMoPUM1T1tDQEhdOFtDSDJdW0NIMl0zKUMoTzYpPUM5W0NIXT1bQ0hdW0NIXT1bQ0hdQzc9W0NIXTk=

>  <s_epik_cmdline>  (429) 
J2VwaWtfcHl0aG9uJywgJy1waHQnLCAnMi4wJywgJy1waCcsICc3LjAnLCAnLXRuJywgJzgnLCAnLW1hJywgJzIwMCcsICctaW1hZScsICc8aW5maWxlLm1hZT4nLCAnLW9tYWUnLCAnPG91dGZpbGUubWFlPic=

>  <r_epik_Ionization_Penalty>  (429) 
2.35578

>  <r_epik_Ionization_Penalty_Charging>  (429) 
0

>  <r_epik_Ionization_Penalty_Neutral>  (429) 
2.35578

>  <r_epik_State_Penalty>  (429) 
2.51045

>  <r_epik_Charging_Adjusted_Penalty>  (429) 
2.51045

>  <i_epik_Tot_Q>  (429) 
0

>  <i_epik_Tot_abs_Q>  (429) 
0

>  <s_lp_Force_Field>  (429) 
OPLS3e

>  <r_lp_Energy>  (429) 
276.551

>  <b_lp_Chiralities_Consistent>  (429) 
1

>  <s_lp_Variant>  (429) 
106:0-2

>  <s_i_glide_gridfile>  (429) 
pfpi4k_grid

>  <i_i_glide_lignum>  (429) 
33

>  <i_i_glide_rotatable_bonds>  (429) 
0

>  <r_i_docking_score>  (429) 
-2.0515

>  <r_i_glide_ligand_efficiency>  (429) 
-0.0621666

>  <r_i_glide_ligand_efficiency_sa>  (429) 
-0.199402

>  <r_i_glide_ligand_efficiency_ln>  (429) 
-0.456243

>  <r_i_glide_gscore>  (429) 
-2.0515

>  <r_i_glide_lipo>  (429) 
-0.49374

>  <r_i_glide_hbond>  (429) 
0

>  <r_i_glide_metal>  (429) 
-0

>  <r_i_glide_rewards>  (429) 
-0.411896

>  <r_i_glide_evdw>  (429) 
-20.4296

>  <r_i_glide_ecoul>  (429) 
-0.82921

>  <r_i_glide_erotb>  (429) 
0

>  <r_i_glide_esite>  (429) 
0

>  <r_i_glide_emodel>  (429) 
-23.5212

>  <r_i_glide_energy>  (429) 
-21.2588

>  <r_i_glide_einternal>  (429) 
0

>  <r_i_glide_intrahb_reward>  (429) 
-0

>  <i_i_glide_confnum>  (429) 
1

>  <i_i_glide_posenum>  (429) 
29

>  <r_i_glide_eff_state_penalty>  (429) 
0

>  <ligand_id>  (429) 
106

>  <original_smiles>  (429) 
C=C1CC(C)C2CC3CC4N(C)CCC25C2=C6C7=C8C=CC=CC(=C8)C6(C(CCC345)O2)C1O7

>  <smiles>  (429) 
[H]C([H])=C1C([H])([H])C([H])(C([H])([H])[H])C2([H])C([H])([H])C3([H])C([H])([H])C4([H])N(C([H])([H])[H])C([H])([H])C([H])([H])C25C2=C6C7=C8C([H])=C([H])C([H])=C([H])C(=C8[H])C6(C1([H])O7)C([H])(O2)C([H])([H])C([H])([H])C435

$$$$
106:1:2
     RDKit          3D

 66 74  0  0  1  0  0  0  0  0999 V2000
    1.0864   -2.8734    4.4569 C   0  0  0  0  0  0  0  0  0  0  0  0
    2.4057   -3.0413    4.2581 C   0  0  0  0  0  0  0  0  0  0  0  0
    3.2598   -1.8221    3.7837 C   0  0  0  0  0  0  0  0  0  0  0  0
    3.0183   -1.3202    2.3035 C   0  0  1  0  0  0  0  0  0  0  0  0
    2.8309    0.2147    2.2793 C   0  0  0  0  0  0  0  0  0  0  0  0
    4.0143   -1.7330    1.1228 C   0  0  2  0  0  0  0  0  0  0  0  0
    3.2397   -1.9176   -0.2106 C   0  0  0  0  0  0  0  0  0  0  0  0
    3.9602   -2.9692   -1.0263 C   0  0  1  0  0  0  0  0  0  0  0  0
    5.1653   -2.5035   -1.8465 C   0  0  0  0  0  0  0  0  0  0  0  0
    6.0233   -3.4902   -1.0769 C   0  0  1  0  0  0  0  0  0  0  0  0
    7.3513   -3.1833   -0.5316 N   0  0  0  0  0  0  0  0  0  0  0  0
    8.2936   -2.7928   -1.5656 C   0  0  0  0  0  0  0  0  0  0  0  0
    7.2615   -2.1691    0.5079 C   0  0  0  0  0  0  0  0  0  0  0  0
    6.3842   -2.6893    1.6603 C   0  0  0  0  0  0  0  0  0  0  0  0
    4.9303   -3.0099    1.2424 C   0  0  1  0  0  0  0  0  0  0  0  0
    4.2539   -3.9399    2.1466 C   0  0  0  0  0  0  0  0  0  0  0  0
    4.5859   -4.7477    3.1443 C   0  0  0  0  0  0  0  0  0  0  0  0
    5.4003   -4.6215    4.3179 C   0  0  0  0  0  0  0  0  0  0  0  0
    5.8240   -5.8592    4.7102 C   0  0  0  0  0  0  0  0  0  0  0  0
    6.8133   -6.4634    4.0048 C   0  0  0  0  0  0  0  0  0  0  0  0
    6.6228   -7.5083    3.1488 C   0  0  0  0  0  0  0  0  0  0  0  0
    5.4697   -8.1365    2.8015 C   0  0  0  0  0  0  0  0  0  0  0  0
    4.2182   -7.8234    3.1917 C   0  0  0  0  0  0  0  0  0  0  0  0
    3.9014   -6.8321    4.0615 C   0  0  0  0  0  0  0  0  0  0  0  0
    4.8004   -6.6845    5.0670 C   0  0  0  0  0  0  0  0  0  0  0  0
    3.3879   -5.4721    3.4947 C   0  0  2  0  0  0  0  0  0  0  0  0
    2.6698   -5.4204    2.0846 C   0  0  2  0  0  0  0  0  0  0  0  0
    3.2582   -6.0012    0.7229 C   0  0  0  0  0  0  0  0  0  0  0  0
    4.5794   -5.3885    0.0247 C   0  0  0  0  0  0  0  0  0  0  0  0
    4.8638   -3.8025   -0.1124 C   0  0  1  0  0  0  0  0  0  0  0  0
    2.9774   -4.1381    1.7035 O   0  0  0  0  0  0  0  0  0  0  0  0
    3.0897   -4.4005    4.6437 C   0  0  1  0  0  0  0  0  0  0  0  0
    4.4306   -4.1338    5.1712 O   0  0  0  0  0  0  0  0  0  0  0  0
    0.4662   -3.6672    4.8416 H   0  0  0  0  0  0  0  0  0  0  0  0
    0.6063   -1.9308    4.2455 H   0  0  0  0  0  0  0  0  0  0  0  0
    2.9870   -1.0102    4.4580 H   0  0  0  0  0  0  0  0  0  0  0  0
    4.3212   -1.9588    3.9792 H   0  0  0  0  0  0  0  0  0  0  0  0
    2.0343   -1.7046    2.0379 H   0  0  0  0  0  0  0  0  0  0  0  0
    3.7376    0.7435    2.5761 H   0  0  0  0  0  0  0  0  0  0  0  0
    2.0356    0.5311    2.9531 H   0  0  0  0  0  0  0  0  0  0  0  0
    2.5544    0.5752    1.2864 H   0  0  0  0  0  0  0  0  0  0  0  0
    4.6930   -0.8994    0.9509 H   0  0  0  0  0  0  0  0  0  0  0  0
    2.2326   -2.2719   -0.0170 H   0  0  0  0  0  0  0  0  0  0  0  0
    3.1395   -0.9823   -0.7612 H   0  0  0  0  0  0  0  0  0  0  0  0
    3.3048   -3.5931   -1.6332 H   0  0  0  0  0  0  0  0  0  0  0  0
    5.0897   -2.7185   -2.9167 H   0  0  0  0  0  0  0  0  0  0  0  0
    5.4403   -1.4676   -1.6663 H   0  0  0  0  0  0  0  0  0  0  0  0
    6.1484   -4.3087   -1.7624 H   0  0  0  0  0  0  0  0  0  0  0  0
    9.2611   -2.6207   -1.0990 H   0  0  0  0  0  0  0  0  0  0  0  0
    7.9988   -1.8831   -2.0869 H   0  0  0  0  0  0  0  0  0  0  0  0
    8.4200   -3.5813   -2.3085 H   0  0  0  0  0  0  0  0  0  0  0  0
    8.2669   -1.9761    0.8799 H   0  0  0  0  0  0  0  0  0  0  0  0
    6.8775   -1.2312    0.1086 H   0  0  0  0  0  0  0  0  0  0  0  0
    6.8575   -3.5888    2.0531 H   0  0  0  0  0  0  0  0  0  0  0  0
    6.3677   -1.9527    2.4637 H   0  0  0  0  0  0  0  0  0  0  0  0
    7.7977   -6.0362    3.9675 H   0  0  0  0  0  0  0  0  0  0  0  0
    7.4931   -7.8402    2.6097 H   0  0  0  0  0  0  0  0  0  0  0  0
    5.5880   -8.9953    2.1470 H   0  0  0  0  0  0  0  0  0  0  0  0
    3.4199   -8.4433    2.8280 H   0  0  0  0  0  0  0  0  0  0  0  0
    5.0827   -7.6254    5.5054 H   0  0  0  0  0  0  0  0  0  0  0  0
    1.5915   -5.5512    2.1769 H   0  0  0  0  0  0  0  0  0  0  0  0
    3.3725   -7.0783    0.8062 H   0  0  0  0  0  0  0  0  0  0  0  0
    2.4584   -5.8658   -0.0040 H   0  0  0  0  0  0  0  0  0  0  0  0
    5.4428   -5.8464    0.5104 H   0  0  0  0  0  0  0  0  0  0  0  0
    4.6158   -5.8180   -0.9747 H   0  0  0  0  0  0  0  0  0  0  0  0
    2.4780   -4.8661    5.4257 H   0  0  0  0  0  0  0  0  0  0  0  0
  1  2  2  0
  1 34  1  0
  1 35  1  0
  2 32  1  0
  2  3  1  0
  3  4  1  0
  3 36  1  0
  3 37  1  0
  4  5  1  0
  4  6  1  0
  4 38  1  6
  5 39  1  0
  5 40  1  0
  5 41  1  0
  6 15  1  0
  6  7  1  0
  6 42  1  6
  7  8  1  0
  7 43  1  0
  7 44  1  0
  8 30  1  0
  8  9  1  0
  8 45  1  6
  9 10  1  0
  9 46  1  0
  9 47  1  0
 10 30  1  0
 10 11  1  0
 10 48  1  6
 11 12  1  0
 11 13  1  0
 12 49  1  0
 12 50  1  0
 12 51  1  0
 13 14  1  0
 13 52  1  0
 13 53  1  0
 15 14  1  1
 14 54  1  0
 14 55  1  0
 15 30  1  0
 15 16  1  0
 16 31  1  0
 16 17  2  0
 17 26  1  0
 17 18  1  0
 18 33  1  0
 18 19  2  0
 19 25  1  0
 19 20  1  0
 20 21  2  0
 20 56  1  0
 21 22  1  0
 21 57  1  0
 22 23  2  0
 22 58  1  0
 23 24  1  0
 23 59  1  0
 24 25  2  0
 26 24  1  1
 25 60  1  0
 26 27  1  0
 26 32  1  0
 27 28  1  0
 27 31  1  0
 27 61  1  1
 28 29  1  0
 28 62  1  0
 28 63  1  0
 30 29  1  1
 29 64  1  0
 29 65  1  0
 32 33  1  0
 32 66  1  1
M  END
>  <i_m_ct_stereo_status>  (430) 
1

>  <s_m_source_file>  (430) 
/var/tmp/pbs.5076255.sched01/tmp277fsmq3/144xeprw1xa.sdf

>  <i_m_source_file_index>  (430) 
33

>  <i_lp_mmshare_version>  (430) 
48012

>  <i_f3d_flags>  (430) 
0

>  <s_epik_input>  (430) 
W0NIMl0xW0NIMl1OKFtDSDNdKVtDQEBIXTJbQ0gyXVtDQEBIXShbQ0BdMjNbQ0BAXTE0NSlbQ0gyXVtDQEhdNFtDQEhdKFtDSDNdKVtDSDJdQyg9W0NIMl0pW0NASF02W0NAQF03OEMoPUM1T1tDQEhdOFtDSDJdW0NIMl0zKUMoTzYpPUM5W0NIXT1bQ0hdW0NIXT1bQ0hdQzc9W0NIXTk=

>  <s_epik_cmdline>  (430) 
J2VwaWtfcHl0aG9uJywgJy1waHQnLCAnMi4wJywgJy1waCcsICc3LjAnLCAnLXRuJywgJzgnLCAnLW1hJywgJzIwMCcsICctaW1hZScsICc8aW5maWxlLm1hZT4nLCAnLW9tYWUnLCAnPG91dGZpbGUubWFlPic=

>  <r_epik_Ionization_Penalty>  (430) 
2.35578

>  <r_epik_Ionization_Penalty_Charging>  (430) 
0

>  <r_epik_Ionization_Penalty_Neutral>  (430) 
2.35578

>  <r_epik_State_Penalty>  (430) 
2.51045

>  <r_epik_Charging_Adjusted_Penalty>  (430) 
2.51045

>  <i_epik_Tot_Q>  (430) 
0

>  <i_epik_Tot_abs_Q>  (430) 
0

>  <s_lp_Force_Field>  (430) 
OPLS3e

>  <r_lp_Energy>  (430) 
276.551

>  <b_lp_Chiralities_Consistent>  (430) 
1

>  <s_lp_Variant>  (430) 
106:0-2

>  <s_i_glide_gridfile>  (430) 
pfpi4k_grid

>  <i_i_glide_lignum>  (430) 
33

>  <i_i_glide_rotatable_bonds>  (430) 
0

>  <r_i_docking_score>  (430) 
-1.92468

>  <r_i_glide_ligand_efficiency>  (430) 
-0.0583237

>  <r_i_glide_ligand_efficiency_sa>  (430) 
-0.187075

>  <r_i_glide_ligand_efficiency_ln>  (430) 
-0.42804

>  <r_i_glide_gscore>  (430) 
-1.92468

>  <r_i_glide_lipo>  (430) 
-0.368319

>  <r_i_glide_hbond>  (430) 
0

>  <r_i_glide_metal>  (430) 
-0

>  <r_i_glide_rewards>  (430) 
-0.411896

>  <r_i_glide_evdw>  (430) 
-20.8634

>  <r_i_glide_ecoul>  (430) 
-0.675315

>  <r_i_glide_erotb>  (430) 
0

>  <r_i_glide_esite>  (430) 
0

>  <r_i_glide_emodel>  (430) 
-23.639

>  <r_i_glide_energy>  (430) 
-21.5387

>  <r_i_glide_einternal>  (430) 
0

>  <r_i_glide_intrahb_reward>  (430) 
-0

>  <i_i_glide_confnum>  (430) 
1

>  <i_i_glide_posenum>  (430) 
36

>  <r_i_glide_eff_state_penalty>  (430) 
0

>  <ligand_id>  (430) 
106

>  <original_smiles>  (430) 
C=C1CC(C)C2CC3CC4N(C)CCC25C2=C6C7=C8C=CC=CC(=C8)C6(C(CCC345)O2)C1O7

>  <smiles>  (430) 
[H]C([H])=C1C([H])([H])C([H])(C([H])([H])[H])C2([H])C([H])([H])C3([H])C([H])([H])C4([H])N(C([H])([H])[H])C([H])([H])C([H])([H])C25C2=C6C7=C8C([H])=C([H])C([H])=C([H])C(=C8[H])C6(C1([H])O7)C([H])(O2)C([H])([H])C([H])([H])C435

$$$$
107:0:0
     RDKit          3D

 44 48  0  0  1  0  0  0  0  0999 V2000
    0.7447  -10.2396    2.8840 C   0  0  0  0  0  0  0  0  0  0  0  0
    2.1417  -10.2206    2.6244 C   0  0  0  0  0  0  0  0  0  0  0  0
    2.8398   -9.1164    2.3751 N   0  0  0  0  0  0  0  0  0  0  0  0
    2.1701   -7.9538    2.3732 C   0  0  0  0  0  0  0  0  0  0  0  0
    2.5560   -6.6490    2.1761 C   0  0  0  0  0  0  0  0  0  0  0  0
    3.9311   -6.0944    1.8804 C   0  0  2  0  0  0  0  0  0  0  0  0
    4.1915   -4.6940    2.4591 C   0  0  0  0  0  0  0  0  0  0  0  0
    5.3540   -4.1188    1.6344 C   0  0  2  0  0  0  0  0  0  0  0  0
    5.1589   -2.6497    1.2340 C   0  0  0  0  0  0  0  0  0  0  0  0
    4.5610   -2.7050   -0.1103 N   0  0  1  0  0  0  0  0  0  0  0  0
    4.6136   -1.4341   -0.8623 C   0  0  0  0  0  0  0  0  0  0  0  0
    3.9175   -1.5587   -2.1844 C   0  0  0  0  0  0  0  0  0  0  0  0
    3.0386   -2.5244   -2.6324 C   0  0  0  0  0  0  0  0  0  0  0  0
    2.7426   -2.1818   -3.9242 N   0  0  0  0  0  0  0  0  0  0  0  0
    3.3994   -1.0487   -4.2007 C   0  0  0  0  0  0  0  0  0  0  0  0
    4.1490   -0.6286   -3.1929 N   0  0  0  0  0  0  0  0  0  0  0  0
    5.2062   -3.8606   -0.7767 C   0  0  0  0  0  0  0  0  0  0  0  0
    5.3684   -4.9085    0.3162 C   0  0  2  0  0  0  0  0  0  0  0  0
    4.2001   -5.9106    0.3858 C   0  0  0  0  0  0  0  0  0  0  0  0
    1.3471   -5.9209    2.3279 C   0  0  0  0  0  0  0  0  0  0  0  0
    0.2762   -6.6489    2.5567 N   0  0  0  0  0  0  0  0  0  0  0  0
    0.7720   -7.9177    2.6154 N   0  0  0  0  0  0  0  0  0  0  0  0
    0.0615   -9.0485    2.8779 C   0  0  0  0  0  0  0  0  0  0  0  0
    2.1379   -2.6916   -4.5569 H   0  0  0  0  0  0  0  0  0  0  0  0
    0.2228  -11.1693    3.0819 H   0  0  0  0  0  0  0  0  0  0  0  0
    2.6945  -11.1578    2.6129 H   0  0  0  0  0  0  0  0  0  0  0  0
    4.6925   -6.7697    2.2724 H   0  0  0  0  0  0  0  0  0  0  0  0
    3.3220   -4.0522    2.3127 H   0  0  0  0  0  0  0  0  0  0  0  0
    4.4001   -4.7180    3.5300 H   0  0  0  0  0  0  0  0  0  0  0  0
    6.2943   -4.2619    2.1701 H   0  0  0  0  0  0  0  0  0  0  0  0
    4.5700   -2.0664    1.9463 H   0  0  0  0  0  0  0  0  0  0  0  0
    6.1358   -2.1771    1.1604 H   0  0  0  0  0  0  0  0  0  0  0  0
    4.1630   -0.6231   -0.2833 H   0  0  0  0  0  0  0  0  0  0  0  0
    5.6535   -1.1391   -1.0279 H   0  0  0  0  0  0  0  0  0  0  0  0
    2.6302   -3.4159   -2.1690 H   0  0  0  0  0  0  0  0  0  0  0  0
    3.3193   -0.5436   -5.1527 H   0  0  0  0  0  0  0  0  0  0  0  0
    4.6765   -4.2829   -1.6335 H   0  0  0  0  0  0  0  0  0  0  0  0
    6.1847   -3.5462   -1.1348 H   0  0  0  0  0  0  0  0  0  0  0  0
    6.3063   -5.4467    0.1821 H   0  0  0  0  0  0  0  0  0  0  0  0
    4.4165   -6.8511   -0.1290 H   0  0  0  0  0  0  0  0  0  0  0  0
    3.3123   -5.4872   -0.0942 H   0  0  0  0  0  0  0  0  0  0  0  0
    1.2443   -4.8477    2.2608 H   0  0  0  0  0  0  0  0  0  0  0  0
   -1.0068   -8.9564    3.0675 H   0  0  0  0  0  0  0  0  0  0  0  0
    3.5863   -2.9360    0.0192 H   0  0  0  0  0  0  0  0  0  0  0  0
  1 23  2  0
  1  2  1  0
  1 25  1  0
  2  3  2  0
  2 26  1  0
  3  4  1  0
  4 22  1  0
  4  5  2  0
  5  6  1  0
  5 20  1  0
  6 19  1  0
  6  7  1  0
  6 27  1  1
  7  8  1  0
  7 28  1  0
  7 29  1  0
  8 18  1  0
  8  9  1  0
  8 30  1  1
  9 10  1  0
  9 31  1  0
  9 32  1  0
 10 11  1  0
 10 17  1  0
 10 44  1  1
 11 33  1  0
 11 34  1  0
 11 12  1  0
 12 13  2  0
 12 16  1  0
 13 35  1  0
 13 14  1  0
 14 24  1  0
 14 15  1  0
 15 36  1  0
 15 16  2  0
 17 18  1  0
 17 37  1  0
 17 38  1  0
 18 19  1  0
 18 39  1  6
 19 40  1  0
 19 41  1  0
 20 21  2  0
 20 42  1  0
 21 22  1  0
 22 23  1  0
 23 43  1  0
M  CHG  1  10   1
M  END
>  <i_m_ct_stereo_status>  (431) 
1

>  <s_m_source_file>  (431) 
/var/tmp/pbs.5076255.sched01/tmp277fsmq3/144xeprw1xa.sdf

>  <i_m_source_file_index>  (431) 
34

>  <i_lp_mmshare_version>  (431) 
48012

>  <i_f3d_flags>  (431) 
0

>  <s_epik_input>  (431) 
bjFbY0hdW2NIXVtjSF1uKGMxMiluW2NIXWMyW0NASF0oW0NIMl0zKVtDSDJdW0NASF0oW0NASF0zNClbQ0gyXU4oW0NIMl00KVtDSDJdYzVbY0hdbltjSF1bbkhdNQ==

>  <s_epik_cmdline>  (431) 
J2VwaWtfcHl0aG9uJywgJy1waHQnLCAnMi4wJywgJy1waCcsICc3LjAnLCAnLXRuJywgJzgnLCAnLW1hJywgJzIwMCcsICctaW1hZScsICc8aW5maWxlLm1hZT4nLCAnLW9tYWUnLCAnPG91dGZpbGUubWFlPic=

>  <r_lp_tautomer_probability>  (431) 
0.5

>  <r_epik_Ionization_Penalty>  (431) 
0.00788818

>  <r_epik_Ionization_Penalty_Charging>  (431) 
0.00788788

>  <r_epik_Ionization_Penalty_Neutral>  (431) 
2.99014e-07

>  <r_epik_State_Penalty>  (431) 
0.298795

>  <r_epik_Charging_Adjusted_Penalty>  (431) 
0.306683

>  <i_epik_Tot_Q>  (431) 
1

>  <i_epik_Tot_abs_Q>  (431) 
1

>  <s_lp_Force_Field>  (431) 
OPLS3e

>  <r_lp_Energy>  (431) 
17.7861

>  <b_lp_Chiralities_Consistent>  (431) 
1

>  <s_lp_Variant>  (431) 
107:0-1

>  <s_i_glide_gridfile>  (431) 
pfpi4k_grid

>  <i_i_glide_lignum>  (431) 
34

>  <i_i_glide_rotatable_bonds>  (431) 
3

>  <r_i_docking_score>  (431) 
-4.19893

>  <r_i_glide_ligand_efficiency>  (431) 
-0.182562

>  <r_i_glide_ligand_efficiency_sa>  (431) 
-0.519183

>  <r_i_glide_ligand_efficiency_ln>  (431) 
-1.01534

>  <r_i_glide_gscore>  (431) 
-4.19893

>  <r_i_glide_lipo>  (431) 
-0.527469

>  <r_i_glide_hbond>  (431) 
-0.179302

>  <r_i_glide_metal>  (431) 
-0

>  <r_i_glide_rewards>  (431) 
-1.41129

>  <r_i_glide_evdw>  (431) 
-33.1984

>  <r_i_glide_ecoul>  (431) 
-6.36208

>  <r_i_glide_erotb>  (431) 
0.580292

>  <r_i_glide_esite>  (431) 
-0.0469368

>  <r_i_glide_emodel>  (431) 
-48.8511

>  <r_i_glide_energy>  (431) 
-39.5605

>  <r_i_glide_einternal>  (431) 
2.14152

>  <r_i_glide_intrahb_reward>  (431) 
-0

>  <i_i_glide_confnum>  (431) 
4

>  <i_i_glide_posenum>  (431) 
4

>  <r_i_glide_eff_state_penalty>  (431) 
0

>  <ligand_id>  (431) 
107

>  <original_smiles>  (431) 
c1cnc2c(C3CC4CN(Cc5cnc[nH]5)CC4C3)cnn2c1

>  <smiles>  (431) 
[H]c1nc2c(C3([H])C([H])([H])C4([H])C([H])(C3([H])[H])C([H])([H])[N+]([H])(C([H])([H])c3nc([H])n([H])c3[H])C4([H])[H])c([H])nn2c([H])c1[H]

$$$$
107:0:1
     RDKit          3D

 44 48  0  0  1  0  0  0  0  0999 V2000
    0.4733    0.9342    2.8121 C   0  0  0  0  0  0  0  0  0  0  0  0
    1.4881    0.4318    1.9597 C   0  0  0  0  0  0  0  0  0  0  0  0
    2.0484   -0.7670    2.0857 N   0  0  0  0  0  0  0  0  0  0  0  0
    1.6010   -1.5467    3.0864 C   0  0  0  0  0  0  0  0  0  0  0  0
    1.9289   -2.8160    3.4994 C   0  0  0  0  0  0  0  0  0  0  0  0
    2.9441   -3.7757    2.9347 C   0  0  2  0  0  0  0  0  0  0  0  0
    4.3499   -3.1801    2.7987 C   0  0  0  0  0  0  0  0  0  0  0  0
    5.0557   -4.0362    1.7365 C   0  0  2  0  0  0  0  0  0  0  0  0
    5.8540   -3.2148    0.7161 C   0  0  0  0  0  0  0  0  0  0  0  0
    4.9382   -3.0153   -0.4225 N   0  0  1  0  0  0  0  0  0  0  0  0
    5.6015   -2.6212   -1.6801 C   0  0  0  0  0  0  0  0  0  0  0  0
    4.5985   -2.0984   -2.6546 C   0  0  0  0  0  0  0  0  0  0  0  0
    3.7813   -2.7903   -3.5209 C   0  0  0  0  0  0  0  0  0  0  0  0
    3.0324   -1.8226   -4.1717 N   0  0  0  0  0  0  0  0  0  0  0  0
    3.4098   -0.6377   -3.6898 C   0  0  0  0  0  0  0  0  0  0  0  0
    4.3543   -0.7308   -2.7598 N   0  0  0  0  0  0  0  0  0  0  0  0
    4.1579   -4.2619   -0.5190 C   0  0  0  0  0  0  0  0  0  0  0  0
    3.9456   -4.7212    0.9240 C   0  0  2  0  0  0  0  0  0  0  0  0
    2.6142   -4.2489    1.5186 C   0  0  0  0  0  0  0  0  0  0  0  0
    1.0801   -3.0396    4.6179 C   0  0  0  0  0  0  0  0  0  0  0  0
    0.2741   -2.0409    4.9055 N   0  0  0  0  0  0  0  0  0  0  0  0
    0.5889   -1.0996    3.9659 N   0  0  0  0  0  0  0  0  0  0  0  0
    0.0268    0.1352    3.8398 C   0  0  0  0  0  0  0  0  0  0  0  0
    2.3227   -1.9855   -4.8800 H   0  0  0  0  0  0  0  0  0  0  0  0
    0.0575    1.9279    2.6485 H   0  0  0  0  0  0  0  0  0  0  0  0
    1.8458    1.0436    1.1365 H   0  0  0  0  0  0  0  0  0  0  0  0
    3.0118   -4.6577    3.5749 H   0  0  0  0  0  0  0  0  0  0  0  0
    4.2817   -2.1547    2.4341 H   0  0  0  0  0  0  0  0  0  0  0  0
    4.8865   -3.1469    3.7492 H   0  0  0  0  0  0  0  0  0  0  0  0
    5.6905   -4.7791    2.2235 H   0  0  0  0  0  0  0  0  0  0  0  0
    6.2490   -2.2791    1.1174 H   0  0  0  0  0  0  0  0  0  0  0  0
    6.6999   -3.8085    0.3743 H   0  0  0  0  0  0  0  0  0  0  0  0
    6.3373   -1.8499   -1.4677 H   0  0  0  0  0  0  0  0  0  0  0  0
    6.1577   -3.4614   -2.1028 H   0  0  0  0  0  0  0  0  0  0  0  0
    3.6640   -3.8538   -3.6917 H   0  0  0  0  0  0  0  0  0  0  0  0
    2.9826    0.2963   -4.0255 H   0  0  0  0  0  0  0  0  0  0  0  0
    3.2294   -4.1483   -1.0846 H   0  0  0  0  0  0  0  0  0  0  0  0
    4.7593   -5.0105   -1.0323 H   0  0  0  0  0  0  0  0  0  0  0  0
    4.0226   -5.8076    0.9962 H   0  0  0  0  0  0  0  0  0  0  0  0
    1.8467   -5.0259    1.5012 H   0  0  0  0  0  0  0  0  0  0  0  0
    2.2335   -3.4062    0.9374 H   0  0  0  0  0  0  0  0  0  0  0  0
    1.0504   -3.9327    5.2278 H   0  0  0  0  0  0  0  0  0  0  0  0
   -0.7432    0.4228    4.5487 H   0  0  0  0  0  0  0  0  0  0  0  0
    4.2911   -2.2828   -0.1549 H   0  0  0  0  0  0  0  0  0  0  0  0
  1 23  2  0
  1  2  1  0
  1 25  1  0
  2  3  2  0
  2 26  1  0
  3  4  1  0
  4 22  1  0
  4  5  2  0
  5  6  1  0
  5 20  1  0
  6 19  1  0
  6  7  1  0
  6 27  1  1
  7  8  1  0
  7 28  1  0
  7 29  1  0
  8 18  1  0
  8  9  1  0
  8 30  1  1
  9 10  1  0
  9 31  1  0
  9 32  1  0
 10 11  1  0
 10 17  1  0
 10 44  1  1
 11 33  1  0
 11 34  1  0
 11 12  1  0
 12 13  2  0
 12 16  1  0
 13 35  1  0
 13 14  1  0
 14 24  1  0
 14 15  1  0
 15 36  1  0
 15 16  2  0
 17 18  1  0
 17 37  1  0
 17 38  1  0
 18 19  1  0
 18 39  1  6
 19 40  1  0
 19 41  1  0
 20 21  2  0
 20 42  1  0
 21 22  1  0
 22 23  1  0
 23 43  1  0
M  CHG  1  10   1
M  END
>  <i_m_ct_stereo_status>  (432) 
1

>  <s_m_source_file>  (432) 
/var/tmp/pbs.5076255.sched01/tmp277fsmq3/144xeprw1xa.sdf

>  <i_m_source_file_index>  (432) 
34

>  <i_lp_mmshare_version>  (432) 
48012

>  <i_f3d_flags>  (432) 
0

>  <s_epik_input>  (432) 
bjFbY0hdW2NIXVtjSF1uKGMxMiluW2NIXWMyW0NASF0oW0NIMl0zKVtDSDJdW0NASF0oW0NASF0zNClbQ0gyXU4oW0NIMl00KVtDSDJdYzVbY0hdbltjSF1bbkhdNQ==

>  <s_epik_cmdline>  (432) 
J2VwaWtfcHl0aG9uJywgJy1waHQnLCAnMi4wJywgJy1waCcsICc3LjAnLCAnLXRuJywgJzgnLCAnLW1hJywgJzIwMCcsICctaW1hZScsICc8aW5maWxlLm1hZT4nLCAnLW9tYWUnLCAnPG91dGZpbGUubWFlPic=

>  <r_lp_tautomer_probability>  (432) 
0.5

>  <r_epik_Ionization_Penalty>  (432) 
0.00788818

>  <r_epik_Ionization_Penalty_Charging>  (432) 
0.00788788

>  <r_epik_Ionization_Penalty_Neutral>  (432) 
2.99014e-07

>  <r_epik_State_Penalty>  (432) 
0.298795

>  <r_epik_Charging_Adjusted_Penalty>  (432) 
0.306683

>  <i_epik_Tot_Q>  (432) 
1

>  <i_epik_Tot_abs_Q>  (432) 
1

>  <s_lp_Force_Field>  (432) 
OPLS3e

>  <r_lp_Energy>  (432) 
17.7861

>  <b_lp_Chiralities_Consistent>  (432) 
1

>  <s_lp_Variant>  (432) 
107:0-1

>  <s_i_glide_gridfile>  (432) 
pfpi4k_grid

>  <i_i_glide_lignum>  (432) 
34

>  <i_i_glide_rotatable_bonds>  (432) 
3

>  <r_i_docking_score>  (432) 
-4.05856

>  <r_i_glide_ligand_efficiency>  (432) 
-0.176459

>  <r_i_glide_ligand_efficiency_sa>  (432) 
-0.501826

>  <r_i_glide_ligand_efficiency_ln>  (432) 
-0.981395

>  <r_i_glide_gscore>  (432) 
-4.05856

>  <r_i_glide_lipo>  (432) 
-0.431239

>  <r_i_glide_hbond>  (432) 
-0.32

>  <r_i_glide_metal>  (432) 
-0

>  <r_i_glide_rewards>  (432) 
-1.63563

>  <r_i_glide_evdw>  (432) 
-29.1508

>  <r_i_glide_ecoul>  (432) 
-5.17192

>  <r_i_glide_erotb>  (432) 
0.580292

>  <r_i_glide_esite>  (432) 
-0.0186504

>  <r_i_glide_emodel>  (432) 
-44.4069

>  <r_i_glide_energy>  (432) 
-34.3227

>  <r_i_glide_einternal>  (432) 
0.441157

>  <r_i_glide_intrahb_reward>  (432) 
-0

>  <i_i_glide_confnum>  (432) 
3

>  <i_i_glide_posenum>  (432) 
5

>  <r_i_glide_eff_state_penalty>  (432) 
0

>  <ligand_id>  (432) 
107

>  <original_smiles>  (432) 
c1cnc2c(C3CC4CN(Cc5cnc[nH]5)CC4C3)cnn2c1

>  <smiles>  (432) 
[H]c1nc2c(C3([H])C([H])([H])C4([H])C([H])(C3([H])[H])C([H])([H])[N+]([H])(C([H])([H])c3nc([H])n([H])c3[H])C4([H])[H])c([H])nn2c([H])c1[H]

$$$$
107:0:2
     RDKit          3D

 44 48  0  0  1  0  0  0  0  0999 V2000
    0.6253  -10.6628    3.5989 C   0  0  0  0  0  0  0  0  0  0  0  0
    2.0390  -10.7132    3.6281 C   0  0  0  0  0  0  0  0  0  0  0  0
    2.8313   -9.7516    3.1620 N   0  0  0  0  0  0  0  0  0  0  0  0
    2.2325   -8.6743    2.6228 C   0  0  0  0  0  0  0  0  0  0  0  0
    2.7187   -7.5157    2.0622 C   0  0  0  0  0  0  0  0  0  0  0  0
    4.1487   -7.0801    1.8614 C   0  0  2  0  0  0  0  0  0  0  0  0
    4.5633   -5.9124    2.7634 C   0  0  0  0  0  0  0  0  0  0  0  0
    5.7908   -5.2892    2.0774 C   0  0  2  0  0  0  0  0  0  0  0  0
    5.7915   -3.7588    2.0684 C   0  0  0  0  0  0  0  0  0  0  0  0
    5.1956   -3.3861    0.7779 N   0  0  1  0  0  0  0  0  0  0  0  0
    5.4294   -1.9862    0.3805 C   0  0  0  0  0  0  0  0  0  0  0  0
    4.7077   -1.6928   -0.8902 C   0  0  0  0  0  0  0  0  0  0  0  0
    3.4178   -2.0006   -1.2672 C   0  0  0  0  0  0  0  0  0  0  0  0
    3.2813   -1.5159   -2.5564 N   0  0  0  0  0  0  0  0  0  0  0  0
    4.4432   -0.9587   -2.8857 C   0  0  0  0  0  0  0  0  0  0  0  0
    5.3619   -1.0502   -1.9284 N   0  0  0  0  0  0  0  0  0  0  0  0
    5.6738   -4.3918   -0.1879 C   0  0  0  0  0  0  0  0  0  0  0  0
    5.7145   -5.7002    0.6005 C   0  0  2  0  0  0  0  0  0  0  0  0
    4.4472   -6.5556    0.4530 C   0  0  0  0  0  0  0  0  0  0  0  0
    1.5459   -6.7980    1.7058 C   0  0  0  0  0  0  0  0  0  0  0  0
    0.4135   -7.3909    2.0050 N   0  0  0  0  0  0  0  0  0  0  0  0
    0.8204   -8.5716    2.5668 N   0  0  0  0  0  0  0  0  0  0  0  0
    0.0145   -9.5612    3.0462 C   0  0  0  0  0  0  0  0  0  0  0  0
    2.4419   -1.5413   -3.1164 H   0  0  0  0  0  0  0  0  0  0  0  0
    0.0259  -11.4656    4.0216 H   0  0  0  0  0  0  0  0  0  0  0  0
    2.5321  -11.5789    4.0647 H   0  0  0  0  0  0  0  0  0  0  0  0
    4.8222   -7.9151    2.0587 H   0  0  0  0  0  0  0  0  0  0  0  0
    3.7574   -5.1754    2.8027 H   0  0  0  0  0  0  0  0  0  0  0  0
    4.7684   -6.2236    3.7904 H   0  0  0  0  0  0  0  0  0  0  0  0
    6.7051   -5.6747    2.5326 H   0  0  0  0  0  0  0  0  0  0  0  0
    5.2828   -3.3069    2.9209 H   0  0  0  0  0  0  0  0  0  0  0  0
    6.8212   -3.4093    2.0735 H   0  0  0  0  0  0  0  0  0  0  0  0
    5.1057   -1.3039    1.1699 H   0  0  0  0  0  0  0  0  0  0  0  0
    6.5003   -1.8164    0.2488 H   0  0  0  0  0  0  0  0  0  0  0  0
    2.6059   -2.4967   -0.7513 H   0  0  0  0  0  0  0  0  0  0  0  0
    4.6151   -0.4776   -3.8359 H   0  0  0  0  0  0  0  0  0  0  0  0
    5.0714   -4.4514   -1.0994 H   0  0  0  0  0  0  0  0  0  0  0  0
    6.6867   -4.1289   -0.4895 H   0  0  0  0  0  0  0  0  0  0  0  0
    6.5942   -6.2754    0.3202 H   0  0  0  0  0  0  0  0  0  0  0  0
    4.5582   -7.3579   -0.2786 H   0  0  0  0  0  0  0  0  0  0  0  0
    3.6279   -5.9225    0.1051 H   0  0  0  0  0  0  0  0  0  0  0  0
    1.5195   -5.8295    1.2308 H   0  0  0  0  0  0  0  0  0  0  0  0
   -1.0616   -9.4303    2.9859 H   0  0  0  0  0  0  0  0  0  0  0  0
    4.1995   -3.5269    0.8627 H   0  0  0  0  0  0  0  0  0  0  0  0
  1 23  2  0
  1  2  1  0
  1 25  1  0
  2  3  2  0
  2 26  1  0
  3  4  1  0
  4 22  1  0
  4  5  2  0
  5  6  1  0
  5 20  1  0
  6 19  1  0
  6  7  1  0
  6 27  1  1
  7  8  1  0
  7 28  1  0
  7 29  1  0
  8 18  1  0
  8  9  1  0
  8 30  1  1
  9 10  1  0
  9 31  1  0
  9 32  1  0
 10 11  1  0
 10 17  1  0
 10 44  1  1
 11 33  1  0
 11 34  1  0
 11 12  1  0
 12 13  2  0
 12 16  1  0
 13 35  1  0
 13 14  1  0
 14 24  1  0
 14 15  1  0
 15 36  1  0
 15 16  2  0
 17 18  1  0
 17 37  1  0
 17 38  1  0
 18 19  1  0
 18 39  1  6
 19 40  1  0
 19 41  1  0
 20 21  2  0
 20 42  1  0
 21 22  1  0
 22 23  1  0
 23 43  1  0
M  CHG  1  10   1
M  END
>  <i_m_ct_stereo_status>  (433) 
1

>  <s_m_source_file>  (433) 
/var/tmp/pbs.5076255.sched01/tmp277fsmq3/144xeprw1xa.sdf

>  <i_m_source_file_index>  (433) 
34

>  <i_lp_mmshare_version>  (433) 
48012

>  <i_f3d_flags>  (433) 
0

>  <s_epik_input>  (433) 
bjFbY0hdW2NIXVtjSF1uKGMxMiluW2NIXWMyW0NASF0oW0NIMl0zKVtDSDJdW0NASF0oW0NASF0zNClbQ0gyXU4oW0NIMl00KVtDSDJdYzVbY0hdbltjSF1bbkhdNQ==

>  <s_epik_cmdline>  (433) 
J2VwaWtfcHl0aG9uJywgJy1waHQnLCAnMi4wJywgJy1waCcsICc3LjAnLCAnLXRuJywgJzgnLCAnLW1hJywgJzIwMCcsICctaW1hZScsICc8aW5maWxlLm1hZT4nLCAnLW9tYWUnLCAnPG91dGZpbGUubWFlPic=

>  <r_lp_tautomer_probability>  (433) 
0.5

>  <r_epik_Ionization_Penalty>  (433) 
0.00788818

>  <r_epik_Ionization_Penalty_Charging>  (433) 
0.00788788

>  <r_epik_Ionization_Penalty_Neutral>  (433) 
2.99014e-07

>  <r_epik_State_Penalty>  (433) 
0.298795

>  <r_epik_Charging_Adjusted_Penalty>  (433) 
0.306683

>  <i_epik_Tot_Q>  (433) 
1

>  <i_epik_Tot_abs_Q>  (433) 
1

>  <s_lp_Force_Field>  (433) 
OPLS3e

>  <r_lp_Energy>  (433) 
17.7861

>  <b_lp_Chiralities_Consistent>  (433) 
1

>  <s_lp_Variant>  (433) 
107:0-1

>  <s_i_glide_gridfile>  (433) 
pfpi4k_grid

>  <i_i_glide_lignum>  (433) 
34

>  <i_i_glide_rotatable_bonds>  (433) 
3

>  <r_i_docking_score>  (433) 
-3.28193

>  <r_i_glide_ligand_efficiency>  (433) 
-0.142693

>  <r_i_glide_ligand_efficiency_sa>  (433) 
-0.405799

>  <r_i_glide_ligand_efficiency_ln>  (433) 
-0.793601

>  <r_i_glide_gscore>  (433) 
-3.28193

>  <r_i_glide_lipo>  (433) 
-0.50149

>  <r_i_glide_hbond>  (433) 
-0.00095387

>  <r_i_glide_metal>  (433) 
-0

>  <r_i_glide_rewards>  (433) 
-1.31505

>  <r_i_glide_evdw>  (433) 
-28.3023

>  <r_i_glide_ecoul>  (433) 
-3.59344

>  <r_i_glide_erotb>  (433) 
0.580292

>  <r_i_glide_esite>  (433) 
-0.0906001

>  <r_i_glide_emodel>  (433) 
-39.5817

>  <r_i_glide_energy>  (433) 
-31.8958

>  <r_i_glide_einternal>  (433) 
1.19833

>  <r_i_glide_intrahb_reward>  (433) 
-0

>  <i_i_glide_confnum>  (433) 
4

>  <i_i_glide_posenum>  (433) 
39

>  <r_i_glide_eff_state_penalty>  (433) 
0

>  <ligand_id>  (433) 
107

>  <original_smiles>  (433) 
c1cnc2c(C3CC4CN(Cc5cnc[nH]5)CC4C3)cnn2c1

>  <smiles>  (433) 
[H]c1nc2c(C3([H])C([H])([H])C4([H])C([H])(C3([H])[H])C([H])([H])[N+]([H])(C([H])([H])c3nc([H])n([H])c3[H])C4([H])[H])c([H])nn2c([H])c1[H]

$$$$
107:1:0
     RDKit          3D

 44 48  0  0  1  0  0  0  0  0999 V2000
   -0.8287   -7.8980    3.5793 C   0  0  0  0  0  0  0  0  0  0  0  0
   -0.0610   -7.9500    2.3956 C   0  0  0  0  0  0  0  0  0  0  0  0
    0.8274   -7.0288    2.0388 N   0  0  0  0  0  0  0  0  0  0  0  0
    1.0238   -5.9928    2.8850 C   0  0  0  0  0  0  0  0  0  0  0  0
    1.8295   -4.8936    2.8437 C   0  0  0  0  0  0  0  0  0  0  0  0
    2.8427   -4.5000    1.8026 C   0  0  1  0  0  0  0  0  0  0  0  0
    3.4419   -3.1023    2.0194 C   0  0  0  0  0  0  0  0  0  0  0  0
    4.8318   -3.1345    1.3700 C   0  0  2  0  0  0  0  0  0  0  0  0
    4.7335   -2.6001   -0.0289 C   0  0  0  0  0  0  0  0  0  0  0  0
    4.6219   -3.7378   -0.9598 N   0  0  1  0  0  0  0  0  0  0  0  0
    4.9691   -3.4354   -2.3831 C   0  0  0  0  0  0  0  0  0  0  0  0
    4.3221   -2.1899   -2.9478 C   0  0  0  0  0  0  0  0  0  0  0  0
    4.1431   -0.9425   -2.3979 C   0  0  0  0  0  0  0  0  0  0  0  0
    3.3683   -0.2508   -3.2916 N   0  0  0  0  0  0  0  0  0  0  0  0
    3.2299   -0.9799   -4.3988 C   0  0  0  0  0  0  0  0  0  0  0  0
    3.7744   -2.1821   -4.2522 N   0  0  0  0  0  0  0  0  0  0  0  0
    5.3888   -4.8264   -0.3181 C   0  0  0  0  0  0  0  0  0  0  0  0
    5.2389   -4.6098    1.2071 C   0  0  2  0  0  0  0  0  0  0  0  0
    4.0745   -5.4190    1.8030 C   0  0  0  0  0  0  0  0  0  0  0  0
    1.4786   -4.1931    4.0399 C   0  0  0  0  0  0  0  0  0  0  0  0
    0.5718   -4.7813    4.7776 N   0  0  0  0  0  0  0  0  0  0  0  0
    0.2765   -5.9108    4.0760 N   0  0  0  0  0  0  0  0  0  0  0  0
   -0.6446   -6.8345    4.4387 C   0  0  0  0  0  0  0  0  0  0  0  0
    2.9811    0.6707   -3.1486 H   0  0  0  0  0  0  0  0  0  0  0  0
   -1.5284   -8.6772    3.8283 H   0  0  0  0  0  0  0  0  0  0  0  0
   -0.1703   -8.7995    1.7146 H   0  0  0  0  0  0  0  0  0  0  0  0
    2.3810   -4.5288    0.8040 H   0  0  0  0  0  0  0  0  0  0  0  0
    2.7643   -2.3281    1.6621 H   0  0  0  0  0  0  0  0  0  0  0  0
    3.6150   -2.8678    3.0668 H   0  0  0  0  0  0  0  0  0  0  0  0
    5.5478   -2.5357    1.9450 H   0  0  0  0  0  0  0  0  0  0  0  0
    3.8787   -1.9131   -0.1086 H   0  0  0  0  0  0  0  0  0  0  0  0
    5.6332   -2.0604   -0.2589 H   0  0  0  0  0  0  0  0  0  0  0  0
    6.0420   -3.3464   -2.5337 H   0  0  0  0  0  0  0  0  0  0  0  0
    4.6865   -4.2994   -2.9858 H   0  0  0  0  0  0  0  0  0  0  0  0
    4.3925   -0.4894   -1.4287 H   0  0  0  0  0  0  0  0  0  0  0  0
    2.7252   -0.5892   -5.2958 H   0  0  0  0  0  0  0  0  0  0  0  0
    5.1233   -5.8372   -0.6792 H   0  0  0  0  0  0  0  0  0  0  0  0
    6.4427   -4.6509   -0.5528 H   0  0  0  0  0  0  0  0  0  0  0  0
    6.1961   -4.8116    1.7251 H   0  0  0  0  0  0  0  0  0  0  0  0
    4.3578   -5.6381    2.8310 H   0  0  0  0  0  0  0  0  0  0  0  0
    3.8947   -6.3568    1.2703 H   0  0  0  0  0  0  0  0  0  0  0  0
    1.8898   -3.2512    4.3723 H   0  0  0  0  0  0  0  0  0  0  0  0
   -1.1955   -6.6783    5.3599 H   0  0  0  0  0  0  0  0  0  0  0  0
    3.6547   -4.0311   -0.9075 H   0  0  0  0  0  0  0  0  0  0  0  0
  1 23  2  0
  1  2  1  0
  1 25  1  0
  2  3  2  0
  2 26  1  0
  3  4  1  0
  4 22  1  0
  4  5  2  0
  5  6  1  0
  5 20  1  0
  6 19  1  0
  6  7  1  0
  6 27  1  6
  7  8  1  0
  7 28  1  0
  7 29  1  0
  8 18  1  0
  8  9  1  0
  8 30  1  1
  9 10  1  0
  9 31  1  0
  9 32  1  0
 10 11  1  0
 10 17  1  0
 10 44  1  6
 11 33  1  0
 11 34  1  0
 11 12  1  0
 12 13  2  0
 12 16  1  0
 13 35  1  0
 13 14  1  0
 14 24  1  0
 14 15  1  0
 15 36  1  0
 15 16  2  0
 17 18  1  0
 17 37  1  0
 17 38  1  0
 18 19  1  0
 18 39  1  1
 19 40  1  0
 19 41  1  0
 20 21  2  0
 20 42  1  0
 21 22  1  0
 22 23  1  0
 23 43  1  0
M  CHG  1  10   1
M  END
>  <i_m_ct_stereo_status>  (434) 
1

>  <s_m_source_file>  (434) 
/var/tmp/pbs.5076255.sched01/tmp277fsmq3/144xeprw1xa.sdf

>  <i_m_source_file_index>  (434) 
35

>  <i_lp_mmshare_version>  (434) 
48012

>  <i_f3d_flags>  (434) 
0

>  <s_epik_input>  (434) 
bjFbY0hdW2NIXVtjSF1uKGMxMiluW2NIXWMyW0NASF0oW0NIMl0zKVtDSDJdW0NASF0oW0NASF0zNClbQ0gyXU4oW0NIMl00KVtDSDJdYzVbY0hdbltjSF1bbkhdNQ==

>  <s_epik_cmdline>  (434) 
J2VwaWtfcHl0aG9uJywgJy1waHQnLCAnMi4wJywgJy1waCcsICc3LjAnLCAnLXRuJywgJzgnLCAnLW1hJywgJzIwMCcsICctaW1hZScsICc8aW5maWxlLm1hZT4nLCAnLW9tYWUnLCAnPG91dGZpbGUubWFlPic=

>  <r_lp_tautomer_probability>  (434) 
0.5

>  <r_epik_Ionization_Penalty>  (434) 
0.00788818

>  <r_epik_Ionization_Penalty_Charging>  (434) 
0.00788788

>  <r_epik_Ionization_Penalty_Neutral>  (434) 
2.99014e-07

>  <r_epik_State_Penalty>  (434) 
0.298795

>  <r_epik_Charging_Adjusted_Penalty>  (434) 
0.306683

>  <i_epik_Tot_Q>  (434) 
1

>  <i_epik_Tot_abs_Q>  (434) 
1

>  <s_lp_Force_Field>  (434) 
OPLS3e

>  <r_lp_Energy>  (434) 
19.5613

>  <b_lp_Chiralities_Consistent>  (434) 
1

>  <s_lp_Variant>  (434) 
107:0-2

>  <s_i_glide_gridfile>  (434) 
pfpi4k_grid

>  <i_i_glide_lignum>  (434) 
35

>  <i_i_glide_rotatable_bonds>  (434) 
3

>  <r_i_docking_score>  (434) 
-4.53266

>  <r_i_glide_ligand_efficiency>  (434) 
-0.197072

>  <r_i_glide_ligand_efficiency_sa>  (434) 
-0.560447

>  <r_i_glide_ligand_efficiency_ln>  (434) 
-1.09604

>  <r_i_glide_gscore>  (434) 
-4.53266

>  <r_i_glide_lipo>  (434) 
-0.336541

>  <r_i_glide_hbond>  (434) 
-0.608

>  <r_i_glide_metal>  (434) 
-0

>  <r_i_glide_rewards>  (434) 
-1.39285

>  <r_i_glide_evdw>  (434) 
-28.4177

>  <r_i_glide_ecoul>  (434) 
-8.51644

>  <r_i_glide_erotb>  (434) 
0.580292

>  <r_i_glide_esite>  (434) 
-0.0772175

>  <r_i_glide_emodel>  (434) 
-44.8504

>  <r_i_glide_energy>  (434) 
-36.9341

>  <r_i_glide_einternal>  (434) 
2.39964

>  <r_i_glide_intrahb_reward>  (434) 
-0

>  <i_i_glide_confnum>  (434) 
1

>  <i_i_glide_posenum>  (434) 
38

>  <r_i_glide_eff_state_penalty>  (434) 
0

>  <ligand_id>  (434) 
107

>  <original_smiles>  (434) 
c1cnc2c(C3CC4CN(Cc5cnc[nH]5)CC4C3)cnn2c1

>  <smiles>  (434) 
[H]c1nc2c(C3([H])C([H])([H])C4([H])C([H])(C3([H])[H])C([H])([H])[N+]([H])(C([H])([H])c3nc([H])n([H])c3[H])C4([H])[H])c([H])nn2c([H])c1[H]

$$$$
107:1:1
     RDKit          3D

 44 48  0  0  1  0  0  0  0  0999 V2000
    3.5230  -10.2123    2.7940 C   0  0  0  0  0  0  0  0  0  0  0  0
    3.0823   -9.0722    2.0610 C   0  0  0  0  0  0  0  0  0  0  0  0
    3.8771   -8.0937    1.6457 N   0  0  0  0  0  0  0  0  0  0  0  0
    5.1898   -8.2111    1.9457 C   0  0  0  0  0  0  0  0  0  0  0  0
    6.2806   -7.4125    1.7064 C   0  0  0  0  0  0  0  0  0  0  0  0
    6.3579   -6.0788    0.9988 C   0  0  1  0  0  0  0  0  0  0  0  0
    5.5634   -4.9861    1.7088 C   0  0  0  0  0  0  0  0  0  0  0  0
    6.2088   -3.6502    1.2838 C   0  0  2  0  0  0  0  0  0  0  0  0
    5.4742   -3.0164    0.1172 C   0  0  0  0  0  0  0  0  0  0  0  0
    6.1947   -3.4284   -1.1010 N   0  0  1  0  0  0  0  0  0  0  0  0
    5.9030   -2.6295   -2.3179 C   0  0  0  0  0  0  0  0  0  0  0  0
    4.4615   -2.6988   -2.7204 C   0  0  0  0  0  0  0  0  0  0  0  0
    3.3473   -2.2860   -2.0341 C   0  0  0  0  0  0  0  0  0  0  0  0
    2.2714   -2.6527   -2.8092 N   0  0  0  0  0  0  0  0  0  0  0  0
    2.7559   -3.1657   -3.9260 C   0  0  0  0  0  0  0  0  0  0  0  0
    4.0797   -3.2273   -3.9494 N   0  0  0  0  0  0  0  0  0  0  0  0
    7.6144   -3.4563   -0.7145 C   0  0  0  0  0  0  0  0  0  0  0  0
    7.6074   -3.9602    0.7329 C   0  0  2  0  0  0  0  0  0  0  0  0
    7.7739   -5.4817    0.8847 C   0  0  0  0  0  0  0  0  0  0  0  0
    7.3599   -8.1365    2.2914 C   0  0  0  0  0  0  0  0  0  0  0  0
    7.0167   -9.2634    2.8663 N   0  0  0  0  0  0  0  0  0  0  0  0
    5.6792   -9.3292    2.6634 N   0  0  0  0  0  0  0  0  0  0  0  0
    4.8565  -10.3277    3.0778 C   0  0  0  0  0  0  0  0  0  0  0  0
    1.3032   -2.5032   -2.5560 H   0  0  0  0  0  0  0  0  0  0  0  0
    2.8313  -11.0004    3.0859 H   0  0  0  0  0  0  0  0  0  0  0  0
    2.0311   -8.9830    1.8104 H   0  0  0  0  0  0  0  0  0  0  0  0
    5.9447   -6.1903   -0.0031 H   0  0  0  0  0  0  0  0  0  0  0  0
    4.4904   -5.0595    1.4961 H   0  0  0  0  0  0  0  0  0  0  0  0
    5.6726   -5.0818    2.7887 H   0  0  0  0  0  0  0  0  0  0  0  0
    6.2136   -2.9525    2.1216 H   0  0  0  0  0  0  0  0  0  0  0  0
    4.4319   -3.3378    0.1539 H   0  0  0  0  0  0  0  0  0  0  0  0
    5.5218   -1.9333    0.1986 H   0  0  0  0  0  0  0  0  0  0  0  0
    6.1768   -1.5791   -2.1589 H   0  0  0  0  0  0  0  0  0  0  0  0
    6.5159   -2.9846   -3.1387 H   0  0  0  0  0  0  0  0  0  0  0  0
    3.1840   -1.8166   -1.0645 H   0  0  0  0  0  0  0  0  0  0  0  0
    2.1141   -3.4768   -4.7366 H   0  0  0  0  0  0  0  0  0  0  0  0
    8.2558   -4.0340   -1.3746 H   0  0  0  0  0  0  0  0  0  0  0  0
    8.0145   -2.4334   -0.7280 H   0  0  0  0  0  0  0  0  0  0  0  0
    8.3958   -3.4547    1.2874 H   0  0  0  0  0  0  0  0  0  0  0  0
    8.3183   -5.6230    1.8210 H   0  0  0  0  0  0  0  0  0  0  0  0
    8.3612   -5.9504    0.0931 H   0  0  0  0  0  0  0  0  0  0  0  0
    8.4030   -7.8528    2.3091 H   0  0  0  0  0  0  0  0  0  0  0  0
    5.3025  -11.1688    3.6073 H   0  0  0  0  0  0  0  0  0  0  0  0
    5.9146   -4.3802   -1.2803 H   0  0  0  0  0  0  0  0  0  0  0  0
  1 23  2  0
  1  2  1  0
  1 25  1  0
  2  3  2  0
  2 26  1  0
  3  4  1  0
  4 22  1  0
  4  5  2  0
  5  6  1  0
  5 20  1  0
  6 19  1  0
  6  7  1  0
  6 27  1  6
  7  8  1  0
  7 28  1  0
  7 29  1  0
  8 18  1  0
  8  9  1  0
  8 30  1  1
  9 10  1  0
  9 31  1  0
  9 32  1  0
 10 11  1  0
 10 17  1  0
 10 44  1  6
 11 33  1  0
 11 34  1  0
 11 12  1  0
 12 13  2  0
 12 16  1  0
 13 35  1  0
 13 14  1  0
 14 24  1  0
 14 15  1  0
 15 36  1  0
 15 16  2  0
 17 18  1  0
 17 37  1  0
 17 38  1  0
 18 19  1  0
 18 39  1  1
 19 40  1  0
 19 41  1  0
 20 21  2  0
 20 42  1  0
 21 22  1  0
 22 23  1  0
 23 43  1  0
M  CHG  1  10   1
M  END
>  <i_m_ct_stereo_status>  (435) 
1

>  <s_m_source_file>  (435) 
/var/tmp/pbs.5076255.sched01/tmp277fsmq3/144xeprw1xa.sdf

>  <i_m_source_file_index>  (435) 
35

>  <i_lp_mmshare_version>  (435) 
48012

>  <i_f3d_flags>  (435) 
0

>  <s_epik_input>  (435) 
bjFbY0hdW2NIXVtjSF1uKGMxMiluW2NIXWMyW0NASF0oW0NIMl0zKVtDSDJdW0NASF0oW0NASF0zNClbQ0gyXU4oW0NIMl00KVtDSDJdYzVbY0hdbltjSF1bbkhdNQ==

>  <s_epik_cmdline>  (435) 
J2VwaWtfcHl0aG9uJywgJy1waHQnLCAnMi4wJywgJy1waCcsICc3LjAnLCAnLXRuJywgJzgnLCAnLW1hJywgJzIwMCcsICctaW1hZScsICc8aW5maWxlLm1hZT4nLCAnLW9tYWUnLCAnPG91dGZpbGUubWFlPic=

>  <r_lp_tautomer_probability>  (435) 
0.5

>  <r_epik_Ionization_Penalty>  (435) 
0.00788818

>  <r_epik_Ionization_Penalty_Charging>  (435) 
0.00788788

>  <r_epik_Ionization_Penalty_Neutral>  (435) 
2.99014e-07

>  <r_epik_State_Penalty>  (435) 
0.298795

>  <r_epik_Charging_Adjusted_Penalty>  (435) 
0.306683

>  <i_epik_Tot_Q>  (435) 
1

>  <i_epik_Tot_abs_Q>  (435) 
1

>  <s_lp_Force_Field>  (435) 
OPLS3e

>  <r_lp_Energy>  (435) 
19.5613

>  <b_lp_Chiralities_Consistent>  (435) 
1

>  <s_lp_Variant>  (435) 
107:0-2

>  <s_i_glide_gridfile>  (435) 
pfpi4k_grid

>  <i_i_glide_lignum>  (435) 
35

>  <i_i_glide_rotatable_bonds>  (435) 
3

>  <r_i_docking_score>  (435) 
-4.23336

>  <r_i_glide_ligand_efficiency>  (435) 
-0.184059

>  <r_i_glide_ligand_efficiency_sa>  (435) 
-0.52344

>  <r_i_glide_ligand_efficiency_ln>  (435) 
-1.02367

>  <r_i_glide_gscore>  (435) 
-4.23336

>  <r_i_glide_lipo>  (435) 
-0.87111

>  <r_i_glide_hbond>  (435) 
-0.0791757

>  <r_i_glide_metal>  (435) 
-0

>  <r_i_glide_rewards>  (435) 
-1.5013

>  <r_i_glide_evdw>  (435) 
-30.4022

>  <r_i_glide_ecoul>  (435) 
-5.51181

>  <r_i_glide_erotb>  (435) 
0.580292

>  <r_i_glide_esite>  (435) 
-0.0151894

>  <r_i_glide_emodel>  (435) 
-45.5698

>  <r_i_glide_energy>  (435) 
-35.914

>  <r_i_glide_einternal>  (435) 
0.663911

>  <r_i_glide_intrahb_reward>  (435) 
-0

>  <i_i_glide_confnum>  (435) 
4

>  <i_i_glide_posenum>  (435) 
20

>  <r_i_glide_eff_state_penalty>  (435) 
0

>  <ligand_id>  (435) 
107

>  <original_smiles>  (435) 
c1cnc2c(C3CC4CN(Cc5cnc[nH]5)CC4C3)cnn2c1

>  <smiles>  (435) 
[H]c1nc2c(C3([H])C([H])([H])C4([H])C([H])(C3([H])[H])C([H])([H])[N+]([H])(C([H])([H])c3nc([H])n([H])c3[H])C4([H])[H])c([H])nn2c([H])c1[H]

$$$$
107:1:2
     RDKit          3D

 44 48  0  0  1  0  0  0  0  0999 V2000
   -1.2962   -8.8207    2.8798 C   0  0  0  0  0  0  0  0  0  0  0  0
   -1.1773   -7.4559    2.5350 C   0  0  0  0  0  0  0  0  0  0  0  0
   -0.0464   -6.8544    2.1629 N   0  0  0  0  0  0  0  0  0  0  0  0
    1.0594   -7.6281    2.1372 C   0  0  0  0  0  0  0  0  0  0  0  0
    2.3800   -7.3765    1.8291 C   0  0  0  0  0  0  0  0  0  0  0  0
    3.0389   -6.0829    1.4114 C   0  0  1  0  0  0  0  0  0  0  0  0
    3.4173   -5.1895    2.5995 C   0  0  0  0  0  0  0  0  0  0  0  0
    4.5514   -4.2714    2.1066 C   0  0  2  0  0  0  0  0  0  0  0  0
    4.0659   -2.9017    1.6158 C   0  0  0  0  0  0  0  0  0  0  0  0
    3.8975   -3.0544    0.1638 N   0  0  1  0  0  0  0  0  0  0  0  0
    3.7861   -1.7836   -0.5785 C   0  0  0  0  0  0  0  0  0  0  0  0
    3.4311   -2.0484   -2.0047 C   0  0  0  0  0  0  0  0  0  0  0  0
    2.6227   -3.0329   -2.5344 C   0  0  0  0  0  0  0  0  0  0  0  0
    2.6375   -2.8214   -3.8994 N   0  0  0  0  0  0  0  0  0  0  0  0
    3.4139   -1.7619   -4.1267 C   0  0  0  0  0  0  0  0  0  0  0  0
    3.9524   -1.2532   -3.0257 N   0  0  0  0  0  0  0  0  0  0  0  0
    4.9875   -3.9438   -0.2749 C   0  0  0  0  0  0  0  0  0  0  0  0
    5.1564   -4.9523    0.8631 C   0  0  2  0  0  0  0  0  0  0  0  0
    4.3664   -6.2514    0.6515 C   0  0  0  0  0  0  0  0  0  0  0  0
    3.0065   -8.6436    2.0121 C   0  0  0  0  0  0  0  0  0  0  0  0
    2.2104   -9.6066    2.4008 N   0  0  0  0  0  0  0  0  0  0  0  0
    0.9964   -9.0025    2.4845 N   0  0  0  0  0  0  0  0  0  0  0  0
   -0.1646   -9.6005    2.8554 C   0  0  0  0  0  0  0  0  0  0  0  0
    2.1145   -3.3507   -4.5821 H   0  0  0  0  0  0  0  0  0  0  0  0
   -2.2445   -9.2612    3.1753 H   0  0  0  0  0  0  0  0  0  0  0  0
   -2.0682   -6.8380    2.5639 H   0  0  0  0  0  0  0  0  0  0  0  0
    2.3527   -5.5251    0.7706 H   0  0  0  0  0  0  0  0  0  0  0  0
    2.5614   -4.6448    3.0051 H   0  0  0  0  0  0  0  0  0  0  0  0
    3.8121   -5.8083    3.4095 H   0  0  0  0  0  0  0  0  0  0  0  0
    5.2917   -4.1377    2.8978 H   0  0  0  0  0  0  0  0  0  0  0  0
    3.1606   -2.5482    2.1102 H   0  0  0  0  0  0  0  0  0  0  0  0
    4.8484   -2.1646    1.7951 H   0  0  0  0  0  0  0  0  0  0  0  0
    3.0261   -1.1476   -0.1158 H   0  0  0  0  0  0  0  0  0  0  0  0
    4.7282   -1.2363   -0.5183 H   0  0  0  0  0  0  0  0  0  0  0  0
    2.0575   -3.8381   -2.0805 H   0  0  0  0  0  0  0  0  0  0  0  0
    3.5794   -1.3528   -5.1111 H   0  0  0  0  0  0  0  0  0  0  0  0
    4.8050   -4.4119   -1.2452 H   0  0  0  0  0  0  0  0  0  0  0  0
    5.9021   -3.3574   -0.3656 H   0  0  0  0  0  0  0  0  0  0  0  0
    6.2133   -5.1846    0.9960 H   0  0  0  0  0  0  0  0  0  0  0  0
    4.9691   -7.0462    1.0896 H   0  0  0  0  0  0  0  0  0  0  0  0
    4.2126   -6.5139   -0.3963 H   0  0  0  0  0  0  0  0  0  0  0  0
    4.0494   -8.8834    1.8731 H   0  0  0  0  0  0  0  0  0  0  0  0
   -0.1436  -10.6580    3.1006 H   0  0  0  0  0  0  0  0  0  0  0  0
    3.0402   -3.5678    0.0235 H   0  0  0  0  0  0  0  0  0  0  0  0
  1 23  2  0
  1  2  1  0
  1 25  1  0
  2  3  2  0
  2 26  1  0
  3  4  1  0
  4 22  1  0
  4  5  2  0
  5  6  1  0
  5 20  1  0
  6 19  1  0
  6  7  1  0
  6 27  1  6
  7  8  1  0
  7 28  1  0
  7 29  1  0
  8 18  1  0
  8  9  1  0
  8 30  1  1
  9 10  1  0
  9 31  1  0
  9 32  1  0
 10 11  1  0
 10 17  1  0
 10 44  1  1
 11 33  1  0
 11 34  1  0
 11 12  1  0
 12 13  2  0
 12 16  1  0
 13 35  1  0
 13 14  1  0
 14 24  1  0
 14 15  1  0
 15 36  1  0
 15 16  2  0
 17 18  1  0
 17 37  1  0
 17 38  1  0
 18 19  1  0
 18 39  1  1
 19 40  1  0
 19 41  1  0
 20 21  2  0
 20 42  1  0
 21 22  1  0
 22 23  1  0
 23 43  1  0
M  CHG  1  10   1
M  END
>  <i_m_ct_stereo_status>  (436) 
1

>  <s_m_source_file>  (436) 
/var/tmp/pbs.5076255.sched01/tmp277fsmq3/144xeprw1xa.sdf

>  <i_m_source_file_index>  (436) 
35

>  <i_lp_mmshare_version>  (436) 
48012

>  <i_f3d_flags>  (436) 
0

>  <s_epik_input>  (436) 
bjFbY0hdW2NIXVtjSF1uKGMxMiluW2NIXWMyW0NASF0oW0NIMl0zKVtDSDJdW0NASF0oW0NASF0zNClbQ0gyXU4oW0NIMl00KVtDSDJdYzVbY0hdbltjSF1bbkhdNQ==

>  <s_epik_cmdline>  (436) 
J2VwaWtfcHl0aG9uJywgJy1waHQnLCAnMi4wJywgJy1waCcsICc3LjAnLCAnLXRuJywgJzgnLCAnLW1hJywgJzIwMCcsICctaW1hZScsICc8aW5maWxlLm1hZT4nLCAnLW9tYWUnLCAnPG91dGZpbGUubWFlPic=

>  <r_lp_tautomer_probability>  (436) 
0.5

>  <r_epik_Ionization_Penalty>  (436) 
0.00788818

>  <r_epik_Ionization_Penalty_Charging>  (436) 
0.00788788

>  <r_epik_Ionization_Penalty_Neutral>  (436) 
2.99014e-07

>  <r_epik_State_Penalty>  (436) 
0.298795

>  <r_epik_Charging_Adjusted_Penalty>  (436) 
0.306683

>  <i_epik_Tot_Q>  (436) 
1

>  <i_epik_Tot_abs_Q>  (436) 
1

>  <s_lp_Force_Field>  (436) 
OPLS3e

>  <r_lp_Energy>  (436) 
19.5613

>  <b_lp_Chiralities_Consistent>  (436) 
1

>  <s_lp_Variant>  (436) 
107:0-2

>  <s_i_glide_gridfile>  (436) 
pfpi4k_grid

>  <i_i_glide_lignum>  (436) 
35

>  <i_i_glide_rotatable_bonds>  (436) 
3

>  <r_i_docking_score>  (436) 
-3.54542

>  <r_i_glide_ligand_efficiency>  (436) 
-0.154149

>  <r_i_glide_ligand_efficiency_sa>  (436) 
-0.438379

>  <r_i_glide_ligand_efficiency_ln>  (436) 
-0.857315

>  <r_i_glide_gscore>  (436) 
-3.54542

>  <r_i_glide_lipo>  (436) 
-0.28077

>  <r_i_glide_hbond>  (436) 
-0.107551

>  <r_i_glide_metal>  (436) 
-0

>  <r_i_glide_rewards>  (436) 
-1.30308

>  <r_i_glide_evdw>  (436) 
-34.6264

>  <r_i_glide_ecoul>  (436) 
-4.40485

>  <r_i_glide_erotb>  (436) 
0.580292

>  <r_i_glide_esite>  (436) 
-0.0422675

>  <r_i_glide_emodel>  (436) 
-46.5912

>  <r_i_glide_energy>  (436) 
-39.0313

>  <r_i_glide_einternal>  (436) 
2.44323

>  <r_i_glide_intrahb_reward>  (436) 
-0

>  <i_i_glide_confnum>  (436) 
5

>  <i_i_glide_posenum>  (436) 
5

>  <r_i_glide_eff_state_penalty>  (436) 
0

>  <ligand_id>  (436) 
107

>  <original_smiles>  (436) 
c1cnc2c(C3CC4CN(Cc5cnc[nH]5)CC4C3)cnn2c1

>  <smiles>  (436) 
[H]c1nc2c(C3([H])C([H])([H])C4([H])C([H])(C3([H])[H])C([H])([H])[N+]([H])(C([H])([H])c3nc([H])n([H])c3[H])C4([H])[H])c([H])nn2c([H])c1[H]

$$$$
107:2:0
     RDKit          3D

 44 48  0  0  1  0  0  0  0  0999 V2000
    0.8017  -10.9377    3.2779 C   0  0  0  0  0  0  0  0  0  0  0  0
    2.2120  -10.8238    3.2927 C   0  0  0  0  0  0  0  0  0  0  0  0
    2.8762   -9.7230    2.9500 N   0  0  0  0  0  0  0  0  0  0  0  0
    2.1429   -8.6623    2.5643 C   0  0  0  0  0  0  0  0  0  0  0  0
    2.4791   -7.3906    2.1566 C   0  0  0  0  0  0  0  0  0  0  0  0
    3.8438   -6.7670    2.0016 C   0  0  2  0  0  0  0  0  0  0  0  0
    3.9728   -5.3764    2.6394 C   0  0  0  0  0  0  0  0  0  0  0  0
    5.1745   -4.7210    1.9422 C   0  0  2  0  0  0  0  0  0  0  0  0
    4.9563   -3.2482    1.5683 C   0  0  0  0  0  0  0  0  0  0  0  0
    4.4852   -3.2744    0.1723 N   0  0  1  0  0  0  0  0  0  0  0  0
    4.5882   -1.9818   -0.5382 C   0  0  0  0  0  0  0  0  0  0  0  0
    4.0862   -2.1037   -1.9373 C   0  0  0  0  0  0  0  0  0  0  0  0
    4.7178   -2.5485   -3.0811 C   0  0  0  0  0  0  0  0  0  0  0  0
    3.8372   -2.5226   -4.1603 N   0  0  0  0  0  0  0  0  0  0  0  0
    2.7057   -2.0745   -3.6294 C   0  0  0  0  0  0  0  0  0  0  0  0
    2.7879   -1.8151   -2.3225 N   0  0  0  0  0  0  0  0  0  0  0  0
    5.2194   -4.3837   -0.4670 C   0  0  0  0  0  0  0  0  0  0  0  0
    5.3462   -5.4609    0.6068 C   0  0  2  0  0  0  0  0  0  0  0  0
    4.2384   -6.5223    0.5441 C   0  0  0  0  0  0  0  0  0  0  0  0
    1.2237   -6.7786    1.9070 C   0  0  0  0  0  0  0  0  0  0  0  0
    0.1758   -7.5365    2.1292 N   0  0  0  0  0  0  0  0  0  0  0  0
    0.7287   -8.7216    2.5333 N   0  0  0  0  0  0  0  0  0  0  0  0
    0.0534   -9.8518    2.8844 C   0  0  0  0  0  0  0  0  0  0  0  0
    2.0280   -1.4617   -1.7326 H   0  0  0  0  0  0  0  0  0  0  0  0
    0.3156  -11.8629    3.5789 H   0  0  0  0  0  0  0  0  0  0  0  0
    2.8119  -11.6767    3.5962 H   0  0  0  0  0  0  0  0  0  0  0  0
    4.6004   -7.4141    2.4504 H   0  0  0  0  0  0  0  0  0  0  0  0
    3.0781   -4.7852    2.4345 H   0  0  0  0  0  0  0  0  0  0  0  0
    4.0866   -5.4204    3.7239 H   0  0  0  0  0  0  0  0  0  0  0  0
    6.0675   -4.8354    2.5579 H   0  0  0  0  0  0  0  0  0  0  0  0
    4.2812   -2.7141    2.2397 H   0  0  0  0  0  0  0  0  0  0  0  0
    5.9159   -2.7338    1.5986 H   0  0  0  0  0  0  0  0  0  0  0  0
    4.0153   -1.2221   -0.0092 H   0  0  0  0  0  0  0  0  0  0  0  0
    5.6278   -1.6448   -0.5511 H   0  0  0  0  0  0  0  0  0  0  0  0
    5.7269   -2.9191   -3.2076 H   0  0  0  0  0  0  0  0  0  0  0  0
    1.8167   -1.9166   -4.2196 H   0  0  0  0  0  0  0  0  0  0  0  0
    4.7473   -4.7487   -1.3819 H   0  0  0  0  0  0  0  0  0  0  0  0
    6.2133   -4.0232   -0.7270 H   0  0  0  0  0  0  0  0  0  0  0  0
    6.3230   -5.9411    0.5480 H   0  0  0  0  0  0  0  0  0  0  0  0
    4.5537   -7.4329    0.0312 H   0  0  0  0  0  0  0  0  0  0  0  0
    3.3810   -6.1259   -0.0051 H   0  0  0  0  0  0  0  0  0  0  0  0
    1.0772   -5.7660    1.5711 H   0  0  0  0  0  0  0  0  0  0  0  0
   -1.0309   -9.8414    2.8420 H   0  0  0  0  0  0  0  0  0  0  0  0
    3.5124   -3.5529    0.1950 H   0  0  0  0  0  0  0  0  0  0  0  0
  1 23  2  0
  1  2  1  0
  1 25  1  0
  2  3  2  0
  2 26  1  0
  3  4  1  0
  4 22  1  0
  4  5  2  0
  5  6  1  0
  5 20  1  0
  6 19  1  0
  6  7  1  0
  6 27  1  1
  7  8  1  0
  7 28  1  0
  7 29  1  0
  8 18  1  0
  8  9  1  0
  8 30  1  1
  9 10  1  0
  9 31  1  0
  9 32  1  0
 10 11  1  0
 10 17  1  0
 10 44  1  1
 11 12  1  0
 11 33  1  0
 11 34  1  0
 12 16  1  0
 12 13  2  0
 13 14  1  0
 13 35  1  0
 14 15  2  0
 15 16  1  0
 15 36  1  0
 16 24  1  0
 17 18  1  0
 17 37  1  0
 17 38  1  0
 18 19  1  0
 18 39  1  1
 19 40  1  0
 19 41  1  0
 20 21  2  0
 20 42  1  0
 21 22  1  0
 22 23  1  0
 23 43  1  0
M  CHG  1  10   1
M  END
>  <i_m_ct_stereo_status>  (437) 
1

>  <s_m_source_file>  (437) 
/var/tmp/pbs.5076255.sched01/tmp277fsmq3/144xeprw1xa.sdf

>  <i_m_source_file_index>  (437) 
36

>  <i_lp_mmshare_version>  (437) 
48012

>  <i_f3d_flags>  (437) 
0

>  <s_epik_input>  (437) 
bjFbY0hdW2NIXVtjSF1uKGMxMiluW2NIXWMyW0NASF0oW0NIMl0zKVtDSDJdW0NASF0oW0NASF0zNClbQ0gyXU4oW0NIMl00KVtDSDJdYzVbY0hdbltjSF1bbkhdNQ==

>  <s_epik_cmdline>  (437) 
J2VwaWtfcHl0aG9uJywgJy1waHQnLCAnMi4wJywgJy1waCcsICc3LjAnLCAnLXRuJywgJzgnLCAnLW1hJywgJzIwMCcsICctaW1hZScsICc8aW5maWxlLm1hZT4nLCAnLW9tYWUnLCAnPG91dGZpbGUubWFlPic=

>  <r_lp_tautomer_probability>  (437) 
0.5

>  <r_epik_Ionization_Penalty>  (437) 
0.300948

>  <r_epik_Ionization_Penalty_Charging>  (437) 
0.300937

>  <r_epik_Ionization_Penalty_Neutral>  (437) 
1.08144e-05

>  <r_epik_State_Penalty>  (437) 
0.701879

>  <r_epik_Charging_Adjusted_Penalty>  (437) 
1.00282

>  <i_epik_Tot_Q>  (437) 
1

>  <i_epik_Tot_abs_Q>  (437) 
1

>  <s_lp_Force_Field>  (437) 
OPLS3e

>  <r_lp_Energy>  (437) 
17.9654

>  <b_lp_Chiralities_Consistent>  (437) 
1

>  <s_lp_Variant>  (437) 
107:0-3

>  <s_i_glide_gridfile>  (437) 
pfpi4k_grid

>  <i_i_glide_lignum>  (437) 
36

>  <i_i_glide_rotatable_bonds>  (437) 
3

>  <r_i_docking_score>  (437) 
-5.20026

>  <r_i_glide_ligand_efficiency>  (437) 
-0.226098

>  <r_i_glide_ligand_efficiency_sa>  (437) 
-0.642993

>  <r_i_glide_ligand_efficiency_ln>  (437) 
-1.25747

>  <r_i_glide_gscore>  (437) 
-5.20026

>  <r_i_glide_lipo>  (437) 
-0.686076

>  <r_i_glide_hbond>  (437) 
-0.456

>  <r_i_glide_metal>  (437) 
-0

>  <r_i_glide_rewards>  (437) 
-1.62676

>  <r_i_glide_evdw>  (437) 
-29.5369

>  <r_i_glide_ecoul>  (437) 
-9.59745

>  <r_i_glide_erotb>  (437) 
0.580292

>  <r_i_glide_esite>  (437) 
-0.0952506

>  <r_i_glide_emodel>  (437) 
-53.4388

>  <r_i_glide_energy>  (437) 
-39.1343

>  <r_i_glide_einternal>  (437) 
0.627343

>  <r_i_glide_intrahb_reward>  (437) 
-0

>  <i_i_glide_confnum>  (437) 
5

>  <i_i_glide_posenum>  (437) 
11

>  <r_i_glide_eff_state_penalty>  (437) 
0

>  <ligand_id>  (437) 
107

>  <original_smiles>  (437) 
c1cnc2c(C3CC4CN(Cc5cnc[nH]5)CC4C3)cnn2c1

>  <smiles>  (437) 
[H]c1nc2c(C3([H])C([H])([H])C4([H])C([H])(C3([H])[H])C([H])([H])[N+]([H])(C([H])([H])c3c([H])nc([H])n3[H])C4([H])[H])c([H])nn2c([H])c1[H]

$$$$
107:2:1
     RDKit          3D

 44 48  0  0  1  0  0  0  0  0999 V2000
   -1.7284    2.3335    5.9265 C   0  0  0  0  0  0  0  0  0  0  0  0
   -0.5582    1.6607    6.3679 C   0  0  0  0  0  0  0  0  0  0  0  0
    0.3217    1.0682    5.5760 N   0  0  0  0  0  0  0  0  0  0  0  0
    0.0857    1.1339    4.2475 C   0  0  0  0  0  0  0  0  0  0  0  0
    0.7530    0.6618    3.1578 C   0  0  0  0  0  0  0  0  0  0  0  0
    2.0368   -0.1200    3.0742 C   0  0  2  0  0  0  0  0  0  0  0  0
    2.9323    0.2184    1.8742 C   0  0  0  0  0  0  0  0  0  0  0  0
    3.8683   -0.9938    1.7298 C   0  0  2  0  0  0  0  0  0  0  0  0
    4.0844   -1.4084    0.2853 C   0  0  0  0  0  0  0  0  0  0  0  0
    3.0530   -2.4451    0.0064 N   0  0  1  0  0  0  0  0  0  0  0  0
    3.2586   -3.2553   -1.2279 C   0  0  0  0  0  0  0  0  0  0  0  0
    3.4996   -2.3970   -2.4267 C   0  0  0  0  0  0  0  0  0  0  0  0
    4.2694   -2.5955   -3.5480 C   0  0  0  0  0  0  0  0  0  0  0  0
    4.2154   -1.4387   -4.3417 N   0  0  0  0  0  0  0  0  0  0  0  0
    3.4296   -0.5909   -3.6883 C   0  0  0  0  0  0  0  0  0  0  0  0
    2.9965   -1.1191   -2.5630 N   0  0  0  0  0  0  0  0  0  0  0  0
    2.9725   -3.2220    1.2623 C   0  0  0  0  0  0  0  0  0  0  0  0
    3.1484   -2.1833    2.3802 C   0  0  2  0  0  0  0  0  0  0  0  0
    1.8199   -1.6304    2.9261 C   0  0  0  0  0  0  0  0  0  0  0  0
   -0.0555    1.0897    2.0633 C   0  0  0  0  0  0  0  0  0  0  0  0
   -1.1496    1.7205    2.4031 N   0  0  0  0  0  0  0  0  0  0  0  0
   -1.0680    1.7873    3.7575 N   0  0  0  0  0  0  0  0  0  0  0  0
   -1.9659    2.3905    4.5679 C   0  0  0  0  0  0  0  0  0  0  0  0
    2.3635   -0.6734   -1.9094 H   0  0  0  0  0  0  0  0  0  0  0  0
   -2.4203    2.7928    6.6256 H   0  0  0  0  0  0  0  0  0  0  0  0
   -0.3521    1.6071    7.4368 H   0  0  0  0  0  0  0  0  0  0  0  0
    2.6289    0.0451    3.9750 H   0  0  0  0  0  0  0  0  0  0  0  0
    2.3329    0.3215    0.9673 H   0  0  0  0  0  0  0  0  0  0  0  0
    3.4615    1.1626    2.0043 H   0  0  0  0  0  0  0  0  0  0  0  0
    4.8271   -0.7848    2.1994 H   0  0  0  0  0  0  0  0  0  0  0  0
    4.0662   -0.5196   -0.3439 H   0  0  0  0  0  0  0  0  0  0  0  0
    5.0626   -1.8689    0.1579 H   0  0  0  0  0  0  0  0  0  0  0  0
    4.1146   -3.9200   -1.1007 H   0  0  0  0  0  0  0  0  0  0  0  0
    2.3945   -3.9014   -1.4015 H   0  0  0  0  0  0  0  0  0  0  0  0
    4.8726   -3.4514   -3.8395 H   0  0  0  0  0  0  0  0  0  0  0  0
    3.1928    0.4040   -4.0010 H   0  0  0  0  0  0  0  0  0  0  0  0
    2.0655   -3.8211    1.3495 H   0  0  0  0  0  0  0  0  0  0  0  0
    3.8145   -3.9123    1.2982 H   0  0  0  0  0  0  0  0  0  0  0  0
    3.7569   -2.5811    3.1929 H   0  0  0  0  0  0  0  0  0  0  0  0
    1.5274   -2.1083    3.8637 H   0  0  0  0  0  0  0  0  0  0  0  0
    1.0200   -1.8109    2.2018 H   0  0  0  0  0  0  0  0  0  0  0  0
    0.1357    0.9307    1.0081 H   0  0  0  0  0  0  0  0  0  0  0  0
   -2.8257    2.8692    4.1094 H   0  0  0  0  0  0  0  0  0  0  0  0
    2.1679   -1.9435   -0.0982 H   0  0  0  0  0  0  0  0  0  0  0  0
  1 23  2  0
  1  2  1  0
  1 25  1  0
  2  3  2  0
  2 26  1  0
  3  4  1  0
  4 22  1  0
  4  5  2  0
  5  6  1  0
  5 20  1  0
  6 19  1  0
  6  7  1  0
  6 27  1  1
  7  8  1  0
  7 28  1  0
  7 29  1  0
  8 18  1  0
  8  9  1  0
  8 30  1  1
  9 10  1  0
  9 31  1  0
  9 32  1  0
 10 11  1  0
 10 17  1  0
 10 44  1  6
 11 12  1  0
 11 33  1  0
 11 34  1  0
 12 16  1  0
 12 13  2  0
 13 14  1  0
 13 35  1  0
 14 15  2  0
 15 16  1  0
 15 36  1  0
 16 24  1  0
 17 18  1  0
 17 37  1  0
 17 38  1  0
 18 19  1  0
 18 39  1  1
 19 40  1  0
 19 41  1  0
 20 21  2  0
 20 42  1  0
 21 22  1  0
 22 23  1  0
 23 43  1  0
M  CHG  1  10   1
M  END
>  <i_m_ct_stereo_status>  (438) 
1

>  <s_m_source_file>  (438) 
/var/tmp/pbs.5076255.sched01/tmp277fsmq3/144xeprw1xa.sdf

>  <i_m_source_file_index>  (438) 
36

>  <i_lp_mmshare_version>  (438) 
48012

>  <i_f3d_flags>  (438) 
0

>  <s_epik_input>  (438) 
bjFbY0hdW2NIXVtjSF1uKGMxMiluW2NIXWMyW0NASF0oW0NIMl0zKVtDSDJdW0NASF0oW0NASF0zNClbQ0gyXU4oW0NIMl00KVtDSDJdYzVbY0hdbltjSF1bbkhdNQ==

>  <s_epik_cmdline>  (438) 
J2VwaWtfcHl0aG9uJywgJy1waHQnLCAnMi4wJywgJy1waCcsICc3LjAnLCAnLXRuJywgJzgnLCAnLW1hJywgJzIwMCcsICctaW1hZScsICc8aW5maWxlLm1hZT4nLCAnLW9tYWUnLCAnPG91dGZpbGUubWFlPic=

>  <r_lp_tautomer_probability>  (438) 
0.5

>  <r_epik_Ionization_Penalty>  (438) 
0.300948

>  <r_epik_Ionization_Penalty_Charging>  (438) 
0.300937

>  <r_epik_Ionization_Penalty_Neutral>  (438) 
1.08144e-05

>  <r_epik_State_Penalty>  (438) 
0.701879

>  <r_epik_Charging_Adjusted_Penalty>  (438) 
1.00282

>  <i_epik_Tot_Q>  (438) 
1

>  <i_epik_Tot_abs_Q>  (438) 
1

>  <s_lp_Force_Field>  (438) 
OPLS3e

>  <r_lp_Energy>  (438) 
17.9654

>  <b_lp_Chiralities_Consistent>  (438) 
1

>  <s_lp_Variant>  (438) 
107:0-3

>  <s_i_glide_gridfile>  (438) 
pfpi4k_grid

>  <i_i_glide_lignum>  (438) 
36

>  <i_i_glide_rotatable_bonds>  (438) 
3

>  <r_i_docking_score>  (438) 
-5.09463

>  <r_i_glide_ligand_efficiency>  (438) 
-0.221506

>  <r_i_glide_ligand_efficiency_sa>  (438) 
-0.629933

>  <r_i_glide_ligand_efficiency_ln>  (438) 
-1.23193

>  <r_i_glide_gscore>  (438) 
-5.09463

>  <r_i_glide_lipo>  (438) 
-0.267251

>  <r_i_glide_hbond>  (438) 
-0.628364

>  <r_i_glide_metal>  (438) 
-0

>  <r_i_glide_rewards>  (438) 
-1.63922

>  <r_i_glide_evdw>  (438) 
-30.3336

>  <r_i_glide_ecoul>  (438) 
-9.67915

>  <r_i_glide_erotb>  (438) 
0.580292

>  <r_i_glide_esite>  (438) 
-0.171538

>  <r_i_glide_emodel>  (438) 
-52.005

>  <r_i_glide_energy>  (438) 
-40.0127

>  <r_i_glide_einternal>  (438) 
3.3361

>  <r_i_glide_intrahb_reward>  (438) 
-0

>  <i_i_glide_confnum>  (438) 
2

>  <i_i_glide_posenum>  (438) 
8

>  <r_i_glide_eff_state_penalty>  (438) 
0

>  <ligand_id>  (438) 
107

>  <original_smiles>  (438) 
c1cnc2c(C3CC4CN(Cc5cnc[nH]5)CC4C3)cnn2c1

>  <smiles>  (438) 
[H]c1nc2c(C3([H])C([H])([H])C4([H])C([H])(C3([H])[H])C([H])([H])[N+]([H])(C([H])([H])c3c([H])nc([H])n3[H])C4([H])[H])c([H])nn2c([H])c1[H]

$$$$
107:2:2
     RDKit          3D

 44 48  0  0  1  0  0  0  0  0999 V2000
    0.7746    4.7621    3.7158 C   0  0  0  0  0  0  0  0  0  0  0  0
    2.1064    4.2983    3.5904 C   0  0  0  0  0  0  0  0  0  0  0  0
    2.4463    3.0168    3.4593 N   0  0  0  0  0  0  0  0  0  0  0  0
    1.4483    2.1155    3.4296 C   0  0  0  0  0  0  0  0  0  0  0  0
    1.4167    0.7426    3.3166 C   0  0  0  0  0  0  0  0  0  0  0  0
    2.5639   -0.2288    3.1794 C   0  0  2  0  0  0  0  0  0  0  0  0
    3.4330    0.0389    1.9534 C   0  0  0  0  0  0  0  0  0  0  0  0
    4.1909   -1.2775    1.7103 C   0  0  2  0  0  0  0  0  0  0  0  0
    4.2754   -1.6562    0.2374 C   0  0  0  0  0  0  0  0  0  0  0  0
    3.1097   -2.5410   -0.0049 N   0  0  1  0  0  0  0  0  0  0  0  0
    3.1510   -3.3189   -1.2718 C   0  0  0  0  0  0  0  0  0  0  0  0
    3.4448   -2.4320   -2.4418 C   0  0  0  0  0  0  0  0  0  0  0  0
    4.2016   -2.6338   -3.5740 C   0  0  0  0  0  0  0  0  0  0  0  0
    4.2108   -1.4652   -4.3350 N   0  0  0  0  0  0  0  0  0  0  0  0
    3.4738   -0.6045   -3.6568 C   0  0  0  0  0  0  0  0  0  0  0  0
    3.0043   -1.1260   -2.5345 N   0  0  0  0  0  0  0  0  0  0  0  0
    2.9934   -3.3503    1.2232 C   0  0  0  0  0  0  0  0  0  0  0  0
    3.3587   -2.3900    2.3637 C   0  0  2  0  0  0  0  0  0  0  0  0
    2.1455   -1.6941    2.9953 C   0  0  0  0  0  0  0  0  0  0  0  0
    0.0298    0.4409    3.3679 C   0  0  0  0  0  0  0  0  0  0  0  0
   -0.7606    1.4779    3.5100 N   0  0  0  0  0  0  0  0  0  0  0  0
    0.1017    2.5282    3.5451 N   0  0  0  0  0  0  0  0  0  0  0  0
   -0.2438    3.8361    3.6831 C   0  0  0  0  0  0  0  0  0  0  0  0
    2.3871   -0.6671   -1.8636 H   0  0  0  0  0  0  0  0  0  0  0  0
    0.5620    5.8208    3.7939 H   0  0  0  0  0  0  0  0  0  0  0  0
    2.9241    5.0156    3.5884 H   0  0  0  0  0  0  0  0  0  0  0  0
    3.2004   -0.1625    4.0633 H   0  0  0  0  0  0  0  0  0  0  0  0
    2.7891    0.2752    1.1013 H   0  0  0  0  0  0  0  0  0  0  0  0
    4.1003    0.8885    2.0992 H   0  0  0  0  0  0  0  0  0  0  0  0
    5.1907   -1.2207    2.1406 H   0  0  0  0  0  0  0  0  0  0  0  0
    4.3199   -0.7600   -0.3832 H   0  0  0  0  0  0  0  0  0  0  0  0
    5.1818   -2.2292    0.0483 H   0  0  0  0  0  0  0  0  0  0  0  0
    3.9212   -4.0877   -1.2112 H   0  0  0  0  0  0  0  0  0  0  0  0
    2.2005   -3.8392   -1.4191 H   0  0  0  0  0  0  0  0  0  0  0  0
    4.7468   -3.5180   -3.8851 H   0  0  0  0  0  0  0  0  0  0  0  0
    3.2598    0.4090   -3.9554 H   0  0  0  0  0  0  0  0  0  0  0  0
    2.0154   -3.8215    1.3376 H   0  0  0  0  0  0  0  0  0  0  0  0
    3.7329   -4.1486    1.1880 H   0  0  0  0  0  0  0  0  0  0  0  0
    3.9434   -2.8991    3.1300 H   0  0  0  0  0  0  0  0  0  0  0  0
    1.8343   -2.1611    3.9297 H   0  0  0  0  0  0  0  0  0  0  0  0
    1.3077   -1.7523    2.2997 H   0  0  0  0  0  0  0  0  0  0  0  0
   -0.4071   -0.5448    3.3132 H   0  0  0  0  0  0  0  0  0  0  0  0
   -1.3018    4.0719    3.7486 H   0  0  0  0  0  0  0  0  0  0  0  0
    2.2936   -1.9335   -0.0485 H   0  0  0  0  0  0  0  0  0  0  0  0
  1 23  2  0
  1  2  1  0
  1 25  1  0
  2  3  2  0
  2 26  1  0
  3  4  1  0
  4 22  1  0
  4  5  2  0
  5  6  1  0
  5 20  1  0
  6 19  1  0
  6  7  1  0
  6 27  1  1
  7  8  1  0
  7 28  1  0
  7 29  1  0
  8 18  1  0
  8  9  1  0
  8 30  1  1
  9 10  1  0
  9 31  1  0
  9 32  1  0
 10 11  1  0
 10 17  1  0
 10 44  1  6
 11 12  1  0
 11 33  1  0
 11 34  1  0
 12 16  1  0
 12 13  2  0
 13 14  1  0
 13 35  1  0
 14 15  2  0
 15 16  1  0
 15 36  1  0
 16 24  1  0
 17 18  1  0
 17 37  1  0
 17 38  1  0
 18 19  1  0
 18 39  1  1
 19 40  1  0
 19 41  1  0
 20 21  2  0
 20 42  1  0
 21 22  1  0
 22 23  1  0
 23 43  1  0
M  CHG  1  10   1
M  END
>  <i_m_ct_stereo_status>  (439) 
1

>  <s_m_source_file>  (439) 
/var/tmp/pbs.5076255.sched01/tmp277fsmq3/144xeprw1xa.sdf

>  <i_m_source_file_index>  (439) 
36

>  <i_lp_mmshare_version>  (439) 
48012

>  <i_f3d_flags>  (439) 
0

>  <s_epik_input>  (439) 
bjFbY0hdW2NIXVtjSF1uKGMxMiluW2NIXWMyW0NASF0oW0NIMl0zKVtDSDJdW0NASF0oW0NASF0zNClbQ0gyXU4oW0NIMl00KVtDSDJdYzVbY0hdbltjSF1bbkhdNQ==

>  <s_epik_cmdline>  (439) 
J2VwaWtfcHl0aG9uJywgJy1waHQnLCAnMi4wJywgJy1waCcsICc3LjAnLCAnLXRuJywgJzgnLCAnLW1hJywgJzIwMCcsICctaW1hZScsICc8aW5maWxlLm1hZT4nLCAnLW9tYWUnLCAnPG91dGZpbGUubWFlPic=

>  <r_lp_tautomer_probability>  (439) 
0.5

>  <r_epik_Ionization_Penalty>  (439) 
0.300948

>  <r_epik_Ionization_Penalty_Charging>  (439) 
0.300937

>  <r_epik_Ionization_Penalty_Neutral>  (439) 
1.08144e-05

>  <r_epik_State_Penalty>  (439) 
0.701879

>  <r_epik_Charging_Adjusted_Penalty>  (439) 
1.00282

>  <i_epik_Tot_Q>  (439) 
1

>  <i_epik_Tot_abs_Q>  (439) 
1

>  <s_lp_Force_Field>  (439) 
OPLS3e

>  <r_lp_Energy>  (439) 
17.9654

>  <b_lp_Chiralities_Consistent>  (439) 
1

>  <s_lp_Variant>  (439) 
107:0-3

>  <s_i_glide_gridfile>  (439) 
pfpi4k_grid

>  <i_i_glide_lignum>  (439) 
36

>  <i_i_glide_rotatable_bonds>  (439) 
3

>  <r_i_docking_score>  (439) 
-5.06724

>  <r_i_glide_ligand_efficiency>  (439) 
-0.220315

>  <r_i_glide_ligand_efficiency_sa>  (439) 
-0.626546

>  <r_i_glide_ligand_efficiency_ln>  (439) 
-1.2253

>  <r_i_glide_gscore>  (439) 
-5.06724

>  <r_i_glide_lipo>  (439) 
-0.311337

>  <r_i_glide_hbond>  (439) 
-0.62823

>  <r_i_glide_metal>  (439) 
-0

>  <r_i_glide_rewards>  (439) 
-1.63987

>  <r_i_glide_evdw>  (439) 
-29.3111

>  <r_i_glide_ecoul>  (439) 
-9.30705

>  <r_i_glide_erotb>  (439) 
0.580292

>  <r_i_glide_esite>  (439) 
-0.206483

>  <r_i_glide_emodel>  (439) 
-51.002

>  <r_i_glide_energy>  (439) 
-38.6181

>  <r_i_glide_einternal>  (439) 
3.03987

>  <r_i_glide_intrahb_reward>  (439) 
-0

>  <i_i_glide_confnum>  (439) 
2

>  <i_i_glide_posenum>  (439) 
3

>  <r_i_glide_eff_state_penalty>  (439) 
0

>  <ligand_id>  (439) 
107

>  <original_smiles>  (439) 
c1cnc2c(C3CC4CN(Cc5cnc[nH]5)CC4C3)cnn2c1

>  <smiles>  (439) 
[H]c1nc2c(C3([H])C([H])([H])C4([H])C([H])(C3([H])[H])C([H])([H])[N+]([H])(C([H])([H])c3c([H])nc([H])n3[H])C4([H])[H])c([H])nn2c([H])c1[H]

$$$$
107:3:0
     RDKit          3D

 44 48  0  0  1  0  0  0  0  0999 V2000
    6.5048   -2.2420    0.3812 C   0  0  0  0  0  0  0  0  0  0  0  0
    5.2452   -2.8294    0.6712 C   0  0  0  0  0  0  0  0  0  0  0  0
    5.0719   -4.0952    1.0241 N   0  0  0  0  0  0  0  0  0  0  0  0
    6.1752   -4.8718    1.1024 C   0  0  0  0  0  0  0  0  0  0  0  0
    6.3806   -6.1913    1.4283 C   0  0  0  0  0  0  0  0  0  0  0  0
    5.3651   -7.2426    1.8157 C   0  0  1  0  0  0  0  0  0  0  0  0
    4.4418   -7.6330    0.6606 C   0  0  0  0  0  0  0  0  0  0  0  0
    3.9544   -9.0609    0.9656 C   0  0  2  0  0  0  0  0  0  0  0  0
    2.5842   -9.0975    1.6210 C   0  0  0  0  0  0  0  0  0  0  0  0
    2.8403   -9.1276    3.0744 N   0  0  1  0  0  0  0  0  0  0  0  0
    1.6713   -9.5098    3.9106 C   0  0  0  0  0  0  0  0  0  0  0  0
    0.4743   -8.6536    3.6243 C   0  0  0  0  0  0  0  0  0  0  0  0
    0.3705   -7.3935    3.0618 C   0  0  0  0  0  0  0  0  0  0  0  0
   -0.9746   -7.0511    2.8945 N   0  0  0  0  0  0  0  0  0  0  0  0
   -1.6222   -8.0868    3.3975 C   0  0  0  0  0  0  0  0  0  0  0  0
   -0.8316   -9.0501    3.8607 N   0  0  0  0  0  0  0  0  0  0  0  0
    4.0329   -9.9822    3.2339 C   0  0  0  0  0  0  0  0  0  0  0  0
    4.9077   -9.6576    2.0129 C   0  0  2  0  0  0  0  0  0  0  0  0
    5.9685   -8.5846    2.2676 C   0  0  0  0  0  0  0  0  0  0  0  0
    7.7936   -6.3446    1.3064 C   0  0  0  0  0  0  0  0  0  0  0  0
    8.4385   -5.2628    0.9364 N   0  0  0  0  0  0  0  0  0  0  0  0
    7.4525   -4.3310    0.8103 N   0  0  0  0  0  0  0  0  0  0  0  0
    7.6299   -3.0367    0.4554 C   0  0  0  0  0  0  0  0  0  0  0  0
   -1.1491   -9.9170    4.2931 H   0  0  0  0  0  0  0  0  0  0  0  0
    6.5855   -1.1878    0.1215 H   0  0  0  0  0  0  0  0  0  0  0  0
    4.3506   -2.2144    0.6131 H   0  0  0  0  0  0  0  0  0  0  0  0
    4.7384   -6.8527    2.6243 H   0  0  0  0  0  0  0  0  0  0  0  0
    3.6407   -6.9082    0.4939 H   0  0  0  0  0  0  0  0  0  0  0  0
    5.0090   -7.6729   -0.2688 H   0  0  0  0  0  0  0  0  0  0  0  0
    3.9069   -9.6498    0.0538 H   0  0  0  0  0  0  0  0  0  0  0  0
    1.9828   -8.2685    1.2459 H   0  0  0  0  0  0  0  0  0  0  0  0
    2.0666  -10.0196    1.3524 H   0  0  0  0  0  0  0  0  0  0  0  0
    1.4043  -10.5479    3.7235 H   0  0  0  0  0  0  0  0  0  0  0  0
    1.9279   -9.4481    4.9672 H   0  0  0  0  0  0  0  0  0  0  0  0
    1.1484   -6.7196    2.7174 H   0  0  0  0  0  0  0  0  0  0  0  0
   -2.6997   -8.1451    3.4388 H   0  0  0  0  0  0  0  0  0  0  0  0
    4.5452   -9.8499    4.1896 H   0  0  0  0  0  0  0  0  0  0  0  0
    3.7285  -11.0269    3.1658 H   0  0  0  0  0  0  0  0  0  0  0  0
    5.3839  -10.5679    1.6456 H   0  0  0  0  0  0  0  0  0  0  0  0
    6.8181   -8.8520    1.6339 H   0  0  0  0  0  0  0  0  0  0  0  0
    6.3224   -8.5490    3.2996 H   0  0  0  0  0  0  0  0  0  0  0  0
    8.3645   -7.2429    1.4813 H   0  0  0  0  0  0  0  0  0  0  0  0
    8.6412   -2.6960    0.2634 H   0  0  0  0  0  0  0  0  0  0  0  0
    3.1395   -8.1999    3.3456 H   0  0  0  0  0  0  0  0  0  0  0  0
  1 23  2  0
  1  2  1  0
  1 25  1  0
  2  3  2  0
  2 26  1  0
  3  4  1  0
  4 22  1  0
  4  5  2  0
  5  6  1  0
  5 20  1  0
  6 19  1  0
  6  7  1  0
  6 27  1  1
  7  8  1  0
  7 28  1  0
  7 29  1  0
  8 18  1  0
  8  9  1  0
  8 30  1  6
  9 10  1  0
  9 31  1  0
  9 32  1  0
 10 11  1  0
 10 17  1  0
 10 44  1  1
 11 12  1  0
 11 33  1  0
 11 34  1  0
 12 16  1  0
 12 13  2  0
 13 14  1  0
 13 35  1  0
 14 15  2  0
 15 16  1  0
 15 36  1  0
 16 24  1  0
 17 18  1  0
 17 37  1  0
 17 38  1  0
 18 19  1  0
 18 39  1  6
 19 40  1  0
 19 41  1  0
 20 21  2  0
 20 42  1  0
 21 22  1  0
 22 23  1  0
 23 43  1  0
M  CHG  1  10   1
M  END
>  <i_m_ct_stereo_status>  (440) 
1

>  <s_m_source_file>  (440) 
/var/tmp/pbs.5076255.sched01/tmp277fsmq3/144xeprw1xa.sdf

>  <i_m_source_file_index>  (440) 
37

>  <i_lp_mmshare_version>  (440) 
48012

>  <i_f3d_flags>  (440) 
0

>  <s_epik_input>  (440) 
bjFbY0hdW2NIXVtjSF1uKGMxMiluW2NIXWMyW0NASF0oW0NIMl0zKVtDSDJdW0NASF0oW0NASF0zNClbQ0gyXU4oW0NIMl00KVtDSDJdYzVbY0hdbltjSF1bbkhdNQ==

>  <s_epik_cmdline>  (440) 
J2VwaWtfcHl0aG9uJywgJy1waHQnLCAnMi4wJywgJy1waCcsICc3LjAnLCAnLXRuJywgJzgnLCAnLW1hJywgJzIwMCcsICctaW1hZScsICc8aW5maWxlLm1hZT4nLCAnLW9tYWUnLCAnPG91dGZpbGUubWFlPic=

>  <r_lp_tautomer_probability>  (440) 
0.5

>  <r_epik_Ionization_Penalty>  (440) 
0.300948

>  <r_epik_Ionization_Penalty_Charging>  (440) 
0.300937

>  <r_epik_Ionization_Penalty_Neutral>  (440) 
1.08144e-05

>  <r_epik_State_Penalty>  (440) 
0.701879

>  <r_epik_Charging_Adjusted_Penalty>  (440) 
1.00282

>  <i_epik_Tot_Q>  (440) 
1

>  <i_epik_Tot_abs_Q>  (440) 
1

>  <s_lp_Force_Field>  (440) 
OPLS3e

>  <r_lp_Energy>  (440) 
18.6706

>  <b_lp_Chiralities_Consistent>  (440) 
1

>  <s_lp_Variant>  (440) 
107:0-4

>  <s_i_glide_gridfile>  (440) 
pfpi4k_grid

>  <i_i_glide_lignum>  (440) 
37

>  <i_i_glide_rotatable_bonds>  (440) 
3

>  <r_i_docking_score>  (440) 
-4.68793

>  <r_i_glide_ligand_efficiency>  (440) 
-0.203823

>  <r_i_glide_ligand_efficiency_sa>  (440) 
-0.579645

>  <r_i_glide_ligand_efficiency_ln>  (440) 
-1.13358

>  <r_i_glide_gscore>  (440) 
-4.68793

>  <r_i_glide_lipo>  (440) 
-0.546958

>  <r_i_glide_hbond>  (440) 
-0.32

>  <r_i_glide_metal>  (440) 
-0

>  <r_i_glide_rewards>  (440) 
-1.61952

>  <r_i_glide_evdw>  (440) 
-27.3223

>  <r_i_glide_ecoul>  (440) 
-8.23184

>  <r_i_glide_erotb>  (440) 
0.580292

>  <r_i_glide_esite>  (440) 
-0.180849

>  <r_i_glide_emodel>  (440) 
-47.0863

>  <r_i_glide_energy>  (440) 
-35.5541

>  <r_i_glide_einternal>  (440) 
3.17343

>  <r_i_glide_intrahb_reward>  (440) 
-0

>  <i_i_glide_confnum>  (440) 
3

>  <i_i_glide_posenum>  (440) 
11

>  <r_i_glide_eff_state_penalty>  (440) 
0

>  <ligand_id>  (440) 
107

>  <original_smiles>  (440) 
c1cnc2c(C3CC4CN(Cc5cnc[nH]5)CC4C3)cnn2c1

>  <smiles>  (440) 
[H]c1nc2c(C3([H])C([H])([H])C4([H])C([H])(C3([H])[H])C([H])([H])[N+]([H])(C([H])([H])c3c([H])nc([H])n3[H])C4([H])[H])c([H])nn2c([H])c1[H]

$$$$
107:3:1
     RDKit          3D

 44 48  0  0  1  0  0  0  0  0999 V2000
    3.0917   -1.2745   -3.8551 C   0  0  0  0  0  0  0  0  0  0  0  0
    2.5571   -2.5341   -3.4852 C   0  0  0  0  0  0  0  0  0  0  0  0
    2.9332   -3.2074   -2.4012 N   0  0  0  0  0  0  0  0  0  0  0  0
    3.8921   -2.6763   -1.6337 C   0  0  0  0  0  0  0  0  0  0  0  0
    4.5355   -3.0956   -0.4839 C   0  0  0  0  0  0  0  0  0  0  0  0
    4.3423   -4.3667    0.3070 C   0  0  1  0  0  0  0  0  0  0  0  0
    5.3717   -5.4481   -0.0319 C   0  0  0  0  0  0  0  0  0  0  0  0
    5.4667   -6.3853    1.1834 C   0  0  2  0  0  0  0  0  0  0  0  0
    4.5535   -7.6229    1.0791 C   0  0  0  0  0  0  0  0  0  0  0  0
    3.3098   -7.2224    1.7579 N   0  0  1  0  0  0  0  0  0  0  0  0
    2.4019   -8.3364    2.1303 C   0  0  0  0  0  0  0  0  0  0  0  0
    1.0501   -7.8395    2.5627 C   0  0  0  0  0  0  0  0  0  0  0  0
    0.6488   -6.8464    3.4428 C   0  0  0  0  0  0  0  0  0  0  0  0
   -0.7451   -6.7282    3.4333 N   0  0  0  0  0  0  0  0  0  0  0  0
   -1.1440   -7.7068    2.6287 C   0  0  0  0  0  0  0  0  0  0  0  0
   -0.1297   -8.3869    2.0784 N   0  0  0  0  0  0  0  0  0  0  0  0
    3.7455   -6.3696    2.8862 C   0  0  0  0  0  0  0  0  0  0  0  0
    4.9287   -5.5734    2.3691 C   0  0  2  0  0  0  0  0  0  0  0  0
    4.5034   -4.1974    1.8236 C   0  0  0  0  0  0  0  0  0  0  0  0
    5.4528   -2.0429   -0.2241 C   0  0  0  0  0  0  0  0  0  0  0  0
    5.4284   -1.0572   -1.0899 N   0  0  0  0  0  0  0  0  0  0  0  0
    4.4620   -1.4252   -1.9690 N   0  0  0  0  0  0  0  0  0  0  0  0
    4.0555   -0.7129   -3.0583 C   0  0  0  0  0  0  0  0  0  0  0  0
   -0.2075   -9.1397    1.4044 H   0  0  0  0  0  0  0  0  0  0  0  0
    2.7120   -0.7450   -4.7270 H   0  0  0  0  0  0  0  0  0  0  0  0
    1.7722   -2.9847   -4.0871 H   0  0  0  0  0  0  0  0  0  0  0  0
    3.3445   -4.7705    0.0990 H   0  0  0  0  0  0  0  0  0  0  0  0
    5.1050   -5.9618   -0.9583 H   0  0  0  0  0  0  0  0  0  0  0  0
    6.3527   -4.9857   -0.1698 H   0  0  0  0  0  0  0  0  0  0  0  0
    6.5013   -6.6947    1.3506 H   0  0  0  0  0  0  0  0  0  0  0  0
    4.3944   -7.9757    0.0565 H   0  0  0  0  0  0  0  0  0  0  0  0
    5.0027   -8.4422    1.6436 H   0  0  0  0  0  0  0  0  0  0  0  0
    2.2822   -9.0011    1.2720 H   0  0  0  0  0  0  0  0  0  0  0  0
    2.8475   -8.9568    2.9092 H   0  0  0  0  0  0  0  0  0  0  0  0
    1.2113   -6.1755    4.0790 H   0  0  0  0  0  0  0  0  0  0  0  0
   -2.1880   -7.9007    2.4262 H   0  0  0  0  0  0  0  0  0  0  0  0
    2.9935   -5.6707    3.2512 H   0  0  0  0  0  0  0  0  0  0  0  0
    4.0610   -7.0154    3.7089 H   0  0  0  0  0  0  0  0  0  0  0  0
    5.6549   -5.4468    3.1687 H   0  0  0  0  0  0  0  0  0  0  0  0
    5.3117   -3.5019    2.0523 H   0  0  0  0  0  0  0  0  0  0  0  0
    3.6038   -3.7739    2.2741 H   0  0  0  0  0  0  0  0  0  0  0  0
    6.1465   -1.9963    0.6019 H   0  0  0  0  0  0  0  0  0  0  0  0
    4.5091    0.2612   -3.2224 H   0  0  0  0  0  0  0  0  0  0  0  0
    2.8201   -6.6257    1.1047 H   0  0  0  0  0  0  0  0  0  0  0  0
  1 23  2  0
  1  2  1  0
  1 25  1  0
  2  3  2  0
  2 26  1  0
  3  4  1  0
  4 22  1  0
  4  5  2  0
  5  6  1  0
  5 20  1  0
  6 19  1  0
  6  7  1  0
  6 27  1  1
  7  8  1  0
  7 28  1  0
  7 29  1  0
  8 18  1  0
  8  9  1  0
  8 30  1  1
  9 10  1  0
  9 31  1  0
  9 32  1  0
 10 11  1  0
 10 17  1  0
 10 44  1  6
 11 12  1  0
 11 33  1  0
 11 34  1  0
 12 16  1  0
 12 13  2  0
 13 14  1  0
 13 35  1  0
 14 15  2  0
 15 16  1  0
 15 36  1  0
 16 24  1  0
 17 18  1  0
 17 37  1  0
 17 38  1  0
 18 19  1  0
 18 39  1  1
 19 40  1  0
 19 41  1  0
 20 21  2  0
 20 42  1  0
 21 22  1  0
 22 23  1  0
 23 43  1  0
M  CHG  1  10   1
M  END
>  <i_m_ct_stereo_status>  (441) 
1

>  <s_m_source_file>  (441) 
/var/tmp/pbs.5076255.sched01/tmp277fsmq3/144xeprw1xa.sdf

>  <i_m_source_file_index>  (441) 
37

>  <i_lp_mmshare_version>  (441) 
48012

>  <i_f3d_flags>  (441) 
0

>  <s_epik_input>  (441) 
bjFbY0hdW2NIXVtjSF1uKGMxMiluW2NIXWMyW0NASF0oW0NIMl0zKVtDSDJdW0NASF0oW0NASF0zNClbQ0gyXU4oW0NIMl00KVtDSDJdYzVbY0hdbltjSF1bbkhdNQ==

>  <s_epik_cmdline>  (441) 
J2VwaWtfcHl0aG9uJywgJy1waHQnLCAnMi4wJywgJy1waCcsICc3LjAnLCAnLXRuJywgJzgnLCAnLW1hJywgJzIwMCcsICctaW1hZScsICc8aW5maWxlLm1hZT4nLCAnLW9tYWUnLCAnPG91dGZpbGUubWFlPic=

>  <r_lp_tautomer_probability>  (441) 
0.5

>  <r_epik_Ionization_Penalty>  (441) 
0.300948

>  <r_epik_Ionization_Penalty_Charging>  (441) 
0.300937

>  <r_epik_Ionization_Penalty_Neutral>  (441) 
1.08144e-05

>  <r_epik_State_Penalty>  (441) 
0.701879

>  <r_epik_Charging_Adjusted_Penalty>  (441) 
1.00282

>  <i_epik_Tot_Q>  (441) 
1

>  <i_epik_Tot_abs_Q>  (441) 
1

>  <s_lp_Force_Field>  (441) 
OPLS3e

>  <r_lp_Energy>  (441) 
18.6706

>  <b_lp_Chiralities_Consistent>  (441) 
1

>  <s_lp_Variant>  (441) 
107:0-4

>  <s_i_glide_gridfile>  (441) 
pfpi4k_grid

>  <i_i_glide_lignum>  (441) 
37

>  <i_i_glide_rotatable_bonds>  (441) 
3

>  <r_i_docking_score>  (441) 
-4.57877

>  <r_i_glide_ligand_efficiency>  (441) 
-0.199077

>  <r_i_glide_ligand_efficiency_sa>  (441) 
-0.566149

>  <r_i_glide_ligand_efficiency_ln>  (441) 
-1.10719

>  <r_i_glide_gscore>  (441) 
-4.57877

>  <r_i_glide_lipo>  (441) 
-0.791451

>  <r_i_glide_hbond>  (441) 
-0.462525

>  <r_i_glide_metal>  (441) 
-0

>  <r_i_glide_rewards>  (441) 
-1.29962

>  <r_i_glide_evdw>  (441) 
-29.9303

>  <r_i_glide_ecoul>  (441) 
-6.11029

>  <r_i_glide_erotb>  (441) 
0.580292

>  <r_i_glide_esite>  (441) 
-0.192409

>  <r_i_glide_emodel>  (441) 
-48.4487

>  <r_i_glide_energy>  (441) 
-36.0406

>  <r_i_glide_einternal>  (441) 
1.1448

>  <r_i_glide_intrahb_reward>  (441) 
-0

>  <i_i_glide_confnum>  (441) 
1

>  <i_i_glide_posenum>  (441) 
4

>  <r_i_glide_eff_state_penalty>  (441) 
0

>  <ligand_id>  (441) 
107

>  <original_smiles>  (441) 
c1cnc2c(C3CC4CN(Cc5cnc[nH]5)CC4C3)cnn2c1

>  <smiles>  (441) 
[H]c1nc2c(C3([H])C([H])([H])C4([H])C([H])(C3([H])[H])C([H])([H])[N+]([H])(C([H])([H])c3c([H])nc([H])n3[H])C4([H])[H])c([H])nn2c([H])c1[H]

$$$$
107:3:2
     RDKit          3D

 44 48  0  0  1  0  0  0  0  0999 V2000
    5.9344   -2.8990   -0.6817 C   0  0  0  0  0  0  0  0  0  0  0  0
    4.7191   -3.5455   -0.3494 C   0  0  0  0  0  0  0  0  0  0  0  0
    4.6352   -4.6654    0.3675 N   0  0  0  0  0  0  0  0  0  0  0  0
    5.7907   -5.2116    0.7864 C   0  0  0  0  0  0  0  0  0  0  0  0
    6.0872   -6.3397    1.5175 C   0  0  0  0  0  0  0  0  0  0  0  0
    5.1496   -7.3622    2.1142 C   0  0  1  0  0  0  0  0  0  0  0  0
    5.6487   -8.8129    2.0139 C   0  0  0  0  0  0  0  0  0  0  0  0
    4.9602   -9.5845    3.1533 C   0  0  2  0  0  0  0  0  0  0  0  0
    3.6865  -10.3197    2.7256 C   0  0  0  0  0  0  0  0  0  0  0  0
    2.5882   -9.3925    3.0131 N   0  0  1  0  0  0  0  0  0  0  0  0
    1.2403  -10.0026    2.9959 C   0  0  0  0  0  0  0  0  0  0  0  0
    0.1902   -8.9476    2.9414 C   0  0  0  0  0  0  0  0  0  0  0  0
    0.1688   -7.7399    2.2729 C   0  0  0  0  0  0  0  0  0  0  0  0
   -1.0282   -7.0697    2.5302 N   0  0  0  0  0  0  0  0  0  0  0  0
   -1.6951   -7.9181    3.3121 C   0  0  0  0  0  0  0  0  0  0  0  0
   -1.0256   -9.0356    3.6015 N   0  0  0  0  0  0  0  0  0  0  0  0
    2.9669   -8.7176    4.2665 C   0  0  0  0  0  0  0  0  0  0  0  0
    4.4884   -8.5327    4.1752 C   0  0  2  0  0  0  0  0  0  0  0  0
    4.9141   -7.1634    3.6176 C   0  0  0  0  0  0  0  0  0  0  0  0
    7.5106   -6.3201    1.5907 C   0  0  0  0  0  0  0  0  0  0  0  0
    8.0848   -5.3080    0.9813 N   0  0  0  0  0  0  0  0  0  0  0  0
    7.0315   -4.6040    0.4817 N   0  0  0  0  0  0  0  0  0  0  0  0
    7.1164   -3.4561   -0.2471 C   0  0  0  0  0  0  0  0  0  0  0  0
   -1.3608   -9.7986    4.1948 H   0  0  0  0  0  0  0  0  0  0  0  0
    5.9310   -1.9890   -1.2722 H   0  0  0  0  0  0  0  0  0  0  0  0
    3.7771   -3.1183   -0.6865 H   0  0  0  0  0  0  0  0  0  0  0  0
    4.1816   -7.3051    1.6098 H   0  0  0  0  0  0  0  0  0  0  0  0
    5.4857   -9.2431    1.0235 H   0  0  0  0  0  0  0  0  0  0  0  0
    6.7214   -8.8609    2.2030 H   0  0  0  0  0  0  0  0  0  0  0  0
    5.6573  -10.3004    3.5884 H   0  0  0  0  0  0  0  0  0  0  0  0
    3.6829  -10.6221    1.6807 H   0  0  0  0  0  0  0  0  0  0  0  0
    3.5559  -11.2182    3.3280 H   0  0  0  0  0  0  0  0  0  0  0  0
    1.1311  -10.6512    2.1263 H   0  0  0  0  0  0  0  0  0  0  0  0
    1.1032  -10.6267    3.8773 H   0  0  0  0  0  0  0  0  0  0  0  0
    0.9284   -7.2859    1.6449 H   0  0  0  0  0  0  0  0  0  0  0  0
   -2.6875   -7.7161    3.6795 H   0  0  0  0  0  0  0  0  0  0  0  0
    2.4157   -7.7900    4.4350 H   0  0  0  0  0  0  0  0  0  0  0  0
    2.7412   -9.3878    5.0963 H   0  0  0  0  0  0  0  0  0  0  0  0
    4.9338   -8.6946    5.1566 H   0  0  0  0  0  0  0  0  0  0  0  0
    5.8514   -6.8820    4.1015 H   0  0  0  0  0  0  0  0  0  0  0  0
    4.1968   -6.3672    3.8269 H   0  0  0  0  0  0  0  0  0  0  0  0
    8.1380   -7.0466    2.0880 H   0  0  0  0  0  0  0  0  0  0  0  0
    8.1042   -3.0557   -0.4520 H   0  0  0  0  0  0  0  0  0  0  0  0
    2.6269   -8.6951    2.2829 H   0  0  0  0  0  0  0  0  0  0  0  0
  1 23  2  0
  1  2  1  0
  1 25  1  0
  2  3  2  0
  2 26  1  0
  3  4  1  0
  4 22  1  0
  4  5  2  0
  5  6  1  0
  5 20  1  0
  6 19  1  0
  6  7  1  0
  6 27  1  6
  7  8  1  0
  7 28  1  0
  7 29  1  0
  8 18  1  0
  8  9  1  0
  8 30  1  1
  9 10  1  0
  9 31  1  0
  9 32  1  0
 10 11  1  0
 10 17  1  0
 10 44  1  6
 11 12  1  0
 11 33  1  0
 11 34  1  0
 12 16  1  0
 12 13  2  0
 13 14  1  0
 13 35  1  0
 14 15  2  0
 15 16  1  0
 15 36  1  0
 16 24  1  0
 17 18  1  0
 17 37  1  0
 17 38  1  0
 18 19  1  0
 18 39  1  1
 19 40  1  0
 19 41  1  0
 20 21  2  0
 20 42  1  0
 21 22  1  0
 22 23  1  0
 23 43  1  0
M  CHG  1  10   1
M  END
>  <i_m_ct_stereo_status>  (442) 
1

>  <s_m_source_file>  (442) 
/var/tmp/pbs.5076255.sched01/tmp277fsmq3/144xeprw1xa.sdf

>  <i_m_source_file_index>  (442) 
37

>  <i_lp_mmshare_version>  (442) 
48012

>  <i_f3d_flags>  (442) 
0

>  <s_epik_input>  (442) 
bjFbY0hdW2NIXVtjSF1uKGMxMiluW2NIXWMyW0NASF0oW0NIMl0zKVtDSDJdW0NASF0oW0NASF0zNClbQ0gyXU4oW0NIMl00KVtDSDJdYzVbY0hdbltjSF1bbkhdNQ==

>  <s_epik_cmdline>  (442) 
J2VwaWtfcHl0aG9uJywgJy1waHQnLCAnMi4wJywgJy1waCcsICc3LjAnLCAnLXRuJywgJzgnLCAnLW1hJywgJzIwMCcsICctaW1hZScsICc8aW5maWxlLm1hZT4nLCAnLW9tYWUnLCAnPG91dGZpbGUubWFlPic=

>  <r_lp_tautomer_probability>  (442) 
0.5

>  <r_epik_Ionization_Penalty>  (442) 
0.300948

>  <r_epik_Ionization_Penalty_Charging>  (442) 
0.300937

>  <r_epik_Ionization_Penalty_Neutral>  (442) 
1.08144e-05

>  <r_epik_State_Penalty>  (442) 
0.701879

>  <r_epik_Charging_Adjusted_Penalty>  (442) 
1.00282

>  <i_epik_Tot_Q>  (442) 
1

>  <i_epik_Tot_abs_Q>  (442) 
1

>  <s_lp_Force_Field>  (442) 
OPLS3e

>  <r_lp_Energy>  (442) 
18.6706

>  <b_lp_Chiralities_Consistent>  (442) 
1

>  <s_lp_Variant>  (442) 
107:0-4

>  <s_i_glide_gridfile>  (442) 
pfpi4k_grid

>  <i_i_glide_lignum>  (442) 
37

>  <i_i_glide_rotatable_bonds>  (442) 
3

>  <r_i_docking_score>  (442) 
-4.47833

>  <r_i_glide_ligand_efficiency>  (442) 
-0.19471

>  <r_i_glide_ligand_efficiency_sa>  (442) 
-0.55373

>  <r_i_glide_ligand_efficiency_ln>  (442) 
-1.0829

>  <r_i_glide_gscore>  (442) 
-4.47833

>  <r_i_glide_lipo>  (442) 
-0.42764

>  <r_i_glide_hbond>  (442) 
-0.32

>  <r_i_glide_metal>  (442) 
-0

>  <r_i_glide_rewards>  (442) 
-1.61105

>  <r_i_glide_evdw>  (442) 
-26.0945

>  <r_i_glide_ecoul>  (442) 
-8.18394

>  <r_i_glide_erotb>  (442) 
0.580292

>  <r_i_glide_esite>  (442) 
-0.167618

>  <r_i_glide_emodel>  (442) 
-46.9791

>  <r_i_glide_energy>  (442) 
-34.2784

>  <r_i_glide_einternal>  (442) 
1.02329

>  <r_i_glide_intrahb_reward>  (442) 
-0

>  <i_i_glide_confnum>  (442) 
2

>  <i_i_glide_posenum>  (442) 
17

>  <r_i_glide_eff_state_penalty>  (442) 
0

>  <ligand_id>  (442) 
107

>  <original_smiles>  (442) 
c1cnc2c(C3CC4CN(Cc5cnc[nH]5)CC4C3)cnn2c1

>  <smiles>  (442) 
[H]c1nc2c(C3([H])C([H])([H])C4([H])C([H])(C3([H])[H])C([H])([H])[N+]([H])(C([H])([H])c3c([H])nc([H])n3[H])C4([H])[H])c([H])nn2c([H])c1[H]

$$$$
107:4:0
     RDKit          3D

 44 48  0  0  1  0  0  0  0  0999 V2000
    6.6742  -10.4649    3.0069 C   0  0  0  0  0  0  0  0  0  0  0  0
    7.4386   -9.3651    3.4860 C   0  0  0  0  0  0  0  0  0  0  0  0
    7.2497   -8.1114    3.1236 N   0  0  0  0  0  0  0  0  0  0  0  0
    6.2529   -7.8519    2.2374 C   0  0  0  0  0  0  0  0  0  0  0  0
    5.7783   -6.7102    1.6581 C   0  0  0  0  0  0  0  0  0  0  0  0
    6.2430   -5.2779    1.8173 C   0  0  2  0  0  0  0  0  0  0  0  0
    5.1085   -4.2631    2.0255 C   0  0  0  0  0  0  0  0  0  0  0  0
    5.7189   -2.8979    1.6484 C   0  0  2  0  0  0  0  0  0  0  0  0
    4.7928   -1.9770    0.8557 C   0  0  0  0  0  0  0  0  0  0  0  0
    5.6924   -1.4310   -0.1744 N   0  0  0  0  0  0  0  0  0  0  0  0
    4.9816   -0.8128   -1.2945 C   0  0  0  0  0  0  0  0  0  0  0  0
    4.0812   -1.7397   -2.0753 C   0  0  0  0  0  0  0  0  0  0  0  0
    3.8585   -3.1055   -1.9781 C   0  0  0  0  0  0  0  0  0  0  0  0
    2.9264   -3.4242   -2.9134 N   0  0  0  0  0  0  0  0  0  0  0  0
    2.5476   -2.3352   -3.5779 C   0  0  0  0  0  0  0  0  0  0  0  0
    3.2425   -1.3054   -3.0809 N   0  0  0  0  0  0  0  0  0  0  0  0
    6.6623   -2.4552   -0.5799 C   0  0  0  0  0  0  0  0  0  0  0  0
    6.9133   -3.2005    0.7285 C   0  0  2  0  0  0  0  0  0  0  0  0
    6.9855   -4.7324    0.5914 C   0  0  0  0  0  0  0  0  0  0  0  0
    4.7111   -7.1771    0.8364 C   0  0  0  0  0  0  0  0  0  0  0  0
    4.5153   -8.4708    0.8736 N   0  0  0  0  0  0  0  0  0  0  0  0
    5.4667   -8.9201    1.7389 N   0  0  0  0  0  0  0  0  0  0  0  0
    5.6659  -10.2069    2.1077 C   0  0  0  0  0  0  0  0  0  0  0  0
    3.1135   -0.3302   -3.3494 H   0  0  0  0  0  0  0  0  0  0  0  0
    6.8665  -11.4798    3.3366 H   0  0  0  0  0  0  0  0  0  0  0  0
    8.2415   -9.5521    4.1960 H   0  0  0  0  0  0  0  0  0  0  0  0
    6.9173   -5.2112    2.6741 H   0  0  0  0  0  0  0  0  0  0  0  0
    4.2746   -4.5029    1.3598 H   0  0  0  0  0  0  0  0  0  0  0  0
    4.7144   -4.2881    3.0424 H   0  0  0  0  0  0  0  0  0  0  0  0
    6.0789   -2.3853    2.5427 H   0  0  0  0  0  0  0  0  0  0  0  0
    3.9860   -2.5697    0.4373 H   0  0  0  0  0  0  0  0  0  0  0  0
    4.3167   -1.1942    1.4621 H   0  0  0  0  0  0  0  0  0  0  0  0
    4.3856    0.0214   -0.9180 H   0  0  0  0  0  0  0  0  0  0  0  0
    5.7111   -0.3773   -1.9899 H   0  0  0  0  0  0  0  0  0  0  0  0
    4.2751   -3.8633   -1.3192 H   0  0  0  0  0  0  0  0  0  0  0  0
    1.7859   -2.2927   -4.3399 H   0  0  0  0  0  0  0  0  0  0  0  0
    6.2639   -3.1346   -1.3249 H   0  0  0  0  0  0  0  0  0  0  0  0
    7.5761   -2.0235   -1.0052 H   0  0  0  0  0  0  0  0  0  0  0  0
    7.8204   -2.8254    1.2026 H   0  0  0  0  0  0  0  0  0  0  0  0
    8.0114   -5.1025    0.5241 H   0  0  0  0  0  0  0  0  0  0  0  0
    6.4623   -5.0571   -0.3126 H   0  0  0  0  0  0  0  0  0  0  0  0
    4.0875   -6.5723    0.2004 H   0  0  0  0  0  0  0  0  0  0  0  0
    5.0185  -10.9701    1.6823 H   0  0  0  0  0  0  0  0  0  0  0  0
    2.5724   -4.3815   -3.0336 H   0  0  0  0  0  0  0  0  0  0  0  0
  1 23  2  0
  1  2  1  0
  1 25  1  0
  2  3  2  0
  2 26  1  0
  3  4  1  0
  4 22  1  0
  4  5  2  0
  5  6  1  0
  5 20  1  0
  6 19  1  0
  6  7  1  0
  6 27  1  1
  7  8  1  0
  7 28  1  0
  7 29  1  0
  8 18  1  0
  8  9  1  0
  8 30  1  1
  9 10  1  0
  9 31  1  0
  9 32  1  0
 10 11  1  0
 10 17  1  0
 11 12  1  0
 11 33  1  0
 11 34  1  0
 12 16  1  0
 12 13  2  0
 13 14  1  0
 13 35  1  0
 14 15  2  0
 14 44  1  0
 15 16  1  0
 15 36  1  0
 16 24  1  0
 17 18  1  0
 17 37  1  0
 17 38  1  0
 18 19  1  0
 18 39  1  1
 19 40  1  0
 19 41  1  0
 20 21  2  0
 20 42  1  0
 21 22  1  0
 22 23  1  0
 23 43  1  0
M  CHG  1  14   1
M  END
>  <i_m_ct_stereo_status>  (443) 
1

>  <s_m_source_file>  (443) 
/var/tmp/pbs.5076255.sched01/tmp277fsmq3/144xeprw1xa.sdf

>  <i_m_source_file_index>  (443) 
38

>  <i_lp_mmshare_version>  (443) 
48012

>  <i_f3d_flags>  (443) 
0

>  <s_epik_input>  (443) 
bjFbY0hdW2NIXVtjSF1uKGMxMiluW2NIXWMyW0NASF0oW0NIMl0zKVtDSDJdW0NASF0oW0NASF0zNClbQ0gyXU4oW0NIMl00KVtDSDJdYzVbY0hdbltjSF1bbkhdNQ==

>  <s_epik_cmdline>  (443) 
J2VwaWtfcHl0aG9uJywgJy1waHQnLCAnMi4wJywgJy1waCcsICc3LjAnLCAnLXRuJywgJzgnLCAnLW1hJywgJzIwMCcsICctaW1hZScsICc8aW5maWxlLm1hZT4nLCAnLW9tYWUnLCAnPG91dGZpbGUubWFlPic=

>  <r_epik_Ionization_Penalty>  (443) 
0.640894

>  <r_epik_Ionization_Penalty_Charging>  (443) 
0

>  <r_epik_Ionization_Penalty_Neutral>  (443) 
0.640894

>  <r_epik_State_Penalty>  (443) 
1.71227

>  <r_epik_Charging_Adjusted_Penalty>  (443) 
1.71227

>  <i_epik_Tot_Q>  (443) 
1

>  <i_epik_Tot_abs_Q>  (443) 
1

>  <s_lp_Force_Field>  (443) 
OPLS3e

>  <r_lp_Energy>  (443) 
21.6983

>  <b_lp_Chiralities_Consistent>  (443) 
1

>  <s_lp_Variant>  (443) 
107:0-5

>  <s_i_glide_gridfile>  (443) 
pfpi4k_grid

>  <i_i_glide_lignum>  (443) 
38

>  <i_i_glide_rotatable_bonds>  (443) 
3

>  <r_i_docking_score>  (443) 
-4.31762

>  <r_i_glide_ligand_efficiency>  (443) 
-0.187723

>  <r_i_glide_ligand_efficiency_sa>  (443) 
-0.533858

>  <r_i_glide_ligand_efficiency_ln>  (443) 
-1.04404

>  <r_i_glide_gscore>  (443) 
-4.31762

>  <r_i_glide_lipo>  (443) 
-0.598134

>  <r_i_glide_hbond>  (443) 
0

>  <r_i_glide_metal>  (443) 
-0

>  <r_i_glide_rewards>  (443) 
-1.72837

>  <r_i_glide_evdw>  (443) 
-24.8866

>  <r_i_glide_ecoul>  (443) 
-8.80177

>  <r_i_glide_erotb>  (443) 
0.580292

>  <r_i_glide_esite>  (443) 
-0.00680922

>  <r_i_glide_emodel>  (443) 
-43.955

>  <r_i_glide_energy>  (443) 
-33.6884

>  <r_i_glide_einternal>  (443) 
5.96423

>  <r_i_glide_intrahb_reward>  (443) 
-0

>  <i_i_glide_confnum>  (443) 
5

>  <i_i_glide_posenum>  (443) 
6

>  <r_i_glide_eff_state_penalty>  (443) 
0

>  <ligand_id>  (443) 
107

>  <original_smiles>  (443) 
c1cnc2c(C3CC4CN(Cc5cnc[nH]5)CC4C3)cnn2c1

>  <smiles>  (443) 
[H]c1nc2c(C3([H])C([H])([H])C4([H])C([H])([H])N(C([H])([H])c5c([H])[n+]([H])c([H])n5[H])C([H])([H])C4([H])C3([H])[H])c([H])nn2c([H])c1[H]

$$$$
107:4:1
     RDKit          3D

 44 48  0  0  1  0  0  0  0  0999 V2000
   -0.5712   -9.5677    2.9299 C   0  0  0  0  0  0  0  0  0  0  0  0
    0.7869   -9.7561    3.2955 C   0  0  0  0  0  0  0  0  0  0  0  0
    1.7872   -8.9795    2.8920 N   0  0  0  0  0  0  0  0  0  0  0  0
    1.4705   -7.9589    2.0776 C   0  0  0  0  0  0  0  0  0  0  0  0
    2.2082   -6.9914    1.4584 C   0  0  0  0  0  0  0  0  0  0  0  0
    3.6915   -6.7181    1.4916 C   0  0  2  0  0  0  0  0  0  0  0  0
    4.0992   -5.6770    2.5438 C   0  0  0  0  0  0  0  0  0  0  0  0
    5.4884   -5.1814    2.0922 C   0  0  2  0  0  0  0  0  0  0  0  0
    5.6925   -3.6721    2.2044 C   0  0  0  0  0  0  0  0  0  0  0  0
    6.4404   -3.3211    0.9983 N   0  0  0  0  0  0  0  0  0  0  0  0
    6.4818   -1.8836    0.7042 C   0  0  0  0  0  0  0  0  0  0  0  0
    5.1324   -1.2104    0.7036 C   0  0  0  0  0  0  0  0  0  0  0  0
    3.9871   -1.4255   -0.0288 C   0  0  0  0  0  0  0  0  0  0  0  0
    3.0168   -0.6431    0.5062 N   0  0  0  0  0  0  0  0  0  0  0  0
    3.5166    0.1219    1.4800 C   0  0  0  0  0  0  0  0  0  0  0  0
    4.7987   -0.2549    1.6231 N   0  0  0  0  0  0  0  0  0  0  0  0
    5.8820   -4.1413   -0.0686 C   0  0  0  0  0  0  0  0  0  0  0  0
    5.6081   -5.4878    0.5997 C   0  0  2  0  0  0  0  0  0  0  0  0
    4.2765   -6.1427    0.1884 C   0  0  0  0  0  0  0  0  0  0  0  0
    1.2328   -6.2592    0.7321 C   0  0  0  0  0  0  0  0  0  0  0  0
   -0.0076   -6.6521    0.8891 N   0  0  0  0  0  0  0  0  0  0  0  0
    0.1196   -7.7201    1.7131 N   0  0  0  0  0  0  0  0  0  0  0  0
   -0.9011   -8.5051    2.1304 C   0  0  0  0  0  0  0  0  0  0  0  0
    5.4215    0.1104    2.3379 H   0  0  0  0  0  0  0  0  0  0  0  0
   -1.3431  -10.2455    3.2520 H   0  0  0  0  0  0  0  0  0  0  0  0
    1.0583  -10.5883    3.9486 H   0  0  0  0  0  0  0  0  0  0  0  0
    4.2246   -7.6437    1.7117 H   0  0  0  0  0  0  0  0  0  0  0  0
    3.3836   -4.8509    2.5383 H   0  0  0  0  0  0  0  0  0  0  0  0
    4.1135   -6.0872    3.5556 H   0  0  0  0  0  0  0  0  0  0  0  0
    6.2820   -5.7160    2.6128 H   0  0  0  0  0  0  0  0  0  0  0  0
    4.7192   -3.1871    2.2199 H   0  0  0  0  0  0  0  0  0  0  0  0
    6.1952   -3.3714    3.1169 H   0  0  0  0  0  0  0  0  0  0  0  0
    7.1150   -1.3855    1.4449 H   0  0  0  0  0  0  0  0  0  0  0  0
    6.9651   -1.7296   -0.2676 H   0  0  0  0  0  0  0  0  0  0  0  0
    3.7432   -2.1077   -0.8356 H   0  0  0  0  0  0  0  0  0  0  0  0
    3.0021    0.8796    2.0495 H   0  0  0  0  0  0  0  0  0  0  0  0
    4.9277   -3.7536   -0.3923 H   0  0  0  0  0  0  0  0  0  0  0  0
    6.5367   -4.1916   -0.9411 H   0  0  0  0  0  0  0  0  0  0  0  0
    6.4426   -6.1723    0.4308 H   0  0  0  0  0  0  0  0  0  0  0  0
    4.4002   -6.9025   -0.5811 H   0  0  0  0  0  0  0  0  0  0  0  0
    3.6204   -5.3822   -0.2332 H   0  0  0  0  0  0  0  0  0  0  0  0
    1.4258   -5.4012    0.1122 H   0  0  0  0  0  0  0  0  0  0  0  0
   -1.9104   -8.2897    1.7856 H   0  0  0  0  0  0  0  0  0  0  0  0
    2.0338   -0.6426    0.1489 H   0  0  0  0  0  0  0  0  0  0  0  0
  1 23  2  0
  1  2  1  0
  1 25  1  0
  2  3  2  0
  2 26  1  0
  3  4  1  0
  4 22  1  0
  4  5  2  0
  5  6  1  0
  5 20  1  0
  6 19  1  0
  6  7  1  0
  6 27  1  1
  7  8  1  0
  7 28  1  0
  7 29  1  0
  8 18  1  0
  8  9  1  0
  8 30  1  1
  9 10  1  0
  9 31  1  0
  9 32  1  0
 10 11  1  0
 10 17  1  0
 11 12  1  0
 11 33  1  0
 11 34  1  0
 12 16  1  0
 12 13  2  0
 13 14  1  0
 13 35  1  0
 14 15  2  0
 14 44  1  0
 15 16  1  0
 15 36  1  0
 16 24  1  0
 17 18  1  0
 17 37  1  0
 17 38  1  0
 18 19  1  0
 18 39  1  1
 19 40  1  0
 19 41  1  0
 20 21  2  0
 20 42  1  0
 21 22  1  0
 22 23  1  0
 23 43  1  0
M  CHG  1  14   1
M  END
>  <i_m_ct_stereo_status>  (444) 
1

>  <s_m_source_file>  (444) 
/var/tmp/pbs.5076255.sched01/tmp277fsmq3/144xeprw1xa.sdf

>  <i_m_source_file_index>  (444) 
38

>  <i_lp_mmshare_version>  (444) 
48012

>  <i_f3d_flags>  (444) 
0

>  <s_epik_input>  (444) 
bjFbY0hdW2NIXVtjSF1uKGMxMiluW2NIXWMyW0NASF0oW0NIMl0zKVtDSDJdW0NASF0oW0NASF0zNClbQ0gyXU4oW0NIMl00KVtDSDJdYzVbY0hdbltjSF1bbkhdNQ==

>  <s_epik_cmdline>  (444) 
J2VwaWtfcHl0aG9uJywgJy1waHQnLCAnMi4wJywgJy1waCcsICc3LjAnLCAnLXRuJywgJzgnLCAnLW1hJywgJzIwMCcsICctaW1hZScsICc8aW5maWxlLm1hZT4nLCAnLW9tYWUnLCAnPG91dGZpbGUubWFlPic=

>  <r_epik_Ionization_Penalty>  (444) 
0.640894

>  <r_epik_Ionization_Penalty_Charging>  (444) 
0

>  <r_epik_Ionization_Penalty_Neutral>  (444) 
0.640894

>  <r_epik_State_Penalty>  (444) 
1.71227

>  <r_epik_Charging_Adjusted_Penalty>  (444) 
1.71227

>  <i_epik_Tot_Q>  (444) 
1

>  <i_epik_Tot_abs_Q>  (444) 
1

>  <s_lp_Force_Field>  (444) 
OPLS3e

>  <r_lp_Energy>  (444) 
21.6983

>  <b_lp_Chiralities_Consistent>  (444) 
1

>  <s_lp_Variant>  (444) 
107:0-5

>  <s_i_glide_gridfile>  (444) 
pfpi4k_grid

>  <i_i_glide_lignum>  (444) 
38

>  <i_i_glide_rotatable_bonds>  (444) 
3

>  <r_i_docking_score>  (444) 
-4.29178

>  <r_i_glide_ligand_efficiency>  (444) 
-0.186599

>  <r_i_glide_ligand_efficiency_sa>  (444) 
-0.530663

>  <r_i_glide_ligand_efficiency_ln>  (444) 
-1.03779

>  <r_i_glide_gscore>  (444) 
-4.29178

>  <r_i_glide_lipo>  (444) 
-0.513226

>  <r_i_glide_hbond>  (444) 
-0.36

>  <r_i_glide_metal>  (444) 
-0

>  <r_i_glide_rewards>  (444) 
-1.34583

>  <r_i_glide_evdw>  (444) 
-24.5306

>  <r_i_glide_ecoul>  (444) 
-8.25108

>  <r_i_glide_erotb>  (444) 
0.580292

>  <r_i_glide_esite>  (444) 
-0.188819

>  <r_i_glide_emodel>  (444) 
-42.9969

>  <r_i_glide_energy>  (444) 
-32.7817

>  <r_i_glide_einternal>  (444) 
5.73275

>  <r_i_glide_intrahb_reward>  (444) 
-0

>  <i_i_glide_confnum>  (444) 
5

>  <i_i_glide_posenum>  (444) 
39

>  <r_i_glide_eff_state_penalty>  (444) 
0

>  <ligand_id>  (444) 
107

>  <original_smiles>  (444) 
c1cnc2c(C3CC4CN(Cc5cnc[nH]5)CC4C3)cnn2c1

>  <smiles>  (444) 
[H]c1nc2c(C3([H])C([H])([H])C4([H])C([H])([H])N(C([H])([H])c5c([H])[n+]([H])c([H])n5[H])C([H])([H])C4([H])C3([H])[H])c([H])nn2c([H])c1[H]

$$$$
107:4:2
     RDKit          3D

 44 48  0  0  1  0  0  0  0  0999 V2000
   -0.3395   -9.1097    3.4021 C   0  0  0  0  0  0  0  0  0  0  0  0
    0.8659   -8.8830    4.1173 C   0  0  0  0  0  0  0  0  0  0  0  0
    1.8037   -8.0267    3.7362 N   0  0  0  0  0  0  0  0  0  0  0  0
    1.5787   -7.3320    2.5978 C   0  0  0  0  0  0  0  0  0  0  0  0
    2.3078   -6.3967    1.9076 C   0  0  0  0  0  0  0  0  0  0  0  0
    3.6564   -5.7957    2.2262 C   0  0  2  0  0  0  0  0  0  0  0  0
    3.6185   -4.2726    2.4166 C   0  0  0  0  0  0  0  0  0  0  0  0
    5.0758   -3.8133    2.2045 C   0  0  2  0  0  0  0  0  0  0  0  0
    5.2287   -2.5341    1.3708 C   0  0  0  0  0  0  0  0  0  0  0  0
    6.3959   -2.8265    0.5424 N   0  0  0  0  0  0  0  0  0  0  0  0
    6.5414   -1.9138   -0.5954 C   0  0  0  0  0  0  0  0  0  0  0  0
    5.3667   -1.8449   -1.5484 C   0  0  0  0  0  0  0  0  0  0  0  0
    4.6933   -2.8189   -2.2610 C   0  0  0  0  0  0  0  0  0  0  0  0
    3.6312   -2.2076   -2.8692 N   0  0  0  0  0  0  0  0  0  0  0  0
    3.6537   -0.8960   -2.6307 C   0  0  0  0  0  0  0  0  0  0  0  0
    4.7027   -0.6601   -1.8327 N   0  0  0  0  0  0  0  0  0  0  0  0
    6.3030   -4.2317    0.1614 C   0  0  0  0  0  0  0  0  0  0  0  0
    5.7817   -4.9235    1.4164 C   0  0  2  0  0  0  0  0  0  0  0  0
    4.7075   -5.9914    1.1287 C   0  0  0  0  0  0  0  0  0  0  0  0
    1.4912   -6.0903    0.7913 C   0  0  0  0  0  0  0  0  0  0  0  0
    0.3078   -6.6560    0.8034 N   0  0  0  0  0  0  0  0  0  0  0  0
    0.3707   -7.4940    1.8766 N   0  0  0  0  0  0  0  0  0  0  0  0
   -0.5778   -8.3908    2.2614 C   0  0  0  0  0  0  0  0  0  0  0  0
    4.9369    0.2577   -1.4556 H   0  0  0  0  0  0  0  0  0  0  0  0
   -1.0514   -9.8537    3.7436 H   0  0  0  0  0  0  0  0  0  0  0  0
    1.0575   -9.4439    5.0274 H   0  0  0  0  0  0  0  0  0  0  0  0
    4.0483   -6.2370    3.1444 H   0  0  0  0  0  0  0  0  0  0  0  0
    2.9692   -3.8155    1.6632 H   0  0  0  0  0  0  0  0  0  0  0  0
    3.2273   -3.9770    3.3926 H   0  0  0  0  0  0  0  0  0  0  0  0
    5.5866   -3.6988    3.1620 H   0  0  0  0  0  0  0  0  0  0  0  0
    4.3527   -2.3902    0.7397 H   0  0  0  0  0  0  0  0  0  0  0  0
    5.3552   -1.6323    1.9763 H   0  0  0  0  0  0  0  0  0  0  0  0
    6.7174   -0.9119   -0.1983 H   0  0  0  0  0  0  0  0  0  0  0  0
    7.4367   -2.1992   -1.1577 H   0  0  0  0  0  0  0  0  0  0  0  0
    4.8414   -3.8956   -2.3355 H   0  0  0  0  0  0  0  0  0  0  0  0
    2.9285   -0.1685   -2.9804 H   0  0  0  0  0  0  0  0  0  0  0  0
    5.5529   -4.3727   -0.5909 H   0  0  0  0  0  0  0  0  0  0  0  0
    7.2640   -4.6221   -0.1927 H   0  0  0  0  0  0  0  0  0  0  0  0
    6.5968   -5.3431    2.0143 H   0  0  0  0  0  0  0  0  0  0  0  0
    5.1065   -7.0051    1.1126 H   0  0  0  0  0  0  0  0  0  0  0  0
    4.2365   -5.8335    0.1521 H   0  0  0  0  0  0  0  0  0  0  0  0
    1.7395   -5.3997    0.0010 H   0  0  0  0  0  0  0  0  0  0  0  0
   -1.4590   -8.5168    1.6350 H   0  0  0  0  0  0  0  0  0  0  0  0
    2.8958   -2.6934   -3.3740 H   0  0  0  0  0  0  0  0  0  0  0  0
  1 23  2  0
  1  2  1  0
  1 25  1  0
  2  3  2  0
  2 26  1  0
  3  4  1  0
  4 22  1  0
  4  5  2  0
  5  6  1  0
  5 20  1  0
  6 19  1  0
  6  7  1  0
  6 27  1  1
  7  8  1  0
  7 28  1  0
  7 29  1  0
  8 18  1  0
  8  9  1  0
  8 30  1  1
  9 10  1  0
  9 31  1  0
  9 32  1  0
 10 11  1  0
 10 17  1  0
 11 12  1  0
 11 33  1  0
 11 34  1  0
 12 16  1  0
 12 13  2  0
 13 14  1  0
 13 35  1  0
 14 15  2  0
 14 44  1  0
 15 16  1  0
 15 36  1  0
 16 24  1  0
 17 18  1  0
 17 37  1  0
 17 38  1  0
 18 19  1  0
 18 39  1  1
 19 40  1  0
 19 41  1  0
 20 21  2  0
 20 42  1  0
 21 22  1  0
 22 23  1  0
 23 43  1  0
M  CHG  1  14   1
M  END
>  <i_m_ct_stereo_status>  (445) 
1

>  <s_m_source_file>  (445) 
/var/tmp/pbs.5076255.sched01/tmp277fsmq3/144xeprw1xa.sdf

>  <i_m_source_file_index>  (445) 
38

>  <i_lp_mmshare_version>  (445) 
48012

>  <i_f3d_flags>  (445) 
0

>  <s_epik_input>  (445) 
bjFbY0hdW2NIXVtjSF1uKGMxMiluW2NIXWMyW0NASF0oW0NIMl0zKVtDSDJdW0NASF0oW0NASF0zNClbQ0gyXU4oW0NIMl00KVtDSDJdYzVbY0hdbltjSF1bbkhdNQ==

>  <s_epik_cmdline>  (445) 
J2VwaWtfcHl0aG9uJywgJy1waHQnLCAnMi4wJywgJy1waCcsICc3LjAnLCAnLXRuJywgJzgnLCAnLW1hJywgJzIwMCcsICctaW1hZScsICc8aW5maWxlLm1hZT4nLCAnLW9tYWUnLCAnPG91dGZpbGUubWFlPic=

>  <r_epik_Ionization_Penalty>  (445) 
0.640894

>  <r_epik_Ionization_Penalty_Charging>  (445) 
0

>  <r_epik_Ionization_Penalty_Neutral>  (445) 
0.640894

>  <r_epik_State_Penalty>  (445) 
1.71227

>  <r_epik_Charging_Adjusted_Penalty>  (445) 
1.71227

>  <i_epik_Tot_Q>  (445) 
1

>  <i_epik_Tot_abs_Q>  (445) 
1

>  <s_lp_Force_Field>  (445) 
OPLS3e

>  <r_lp_Energy>  (445) 
21.6983

>  <b_lp_Chiralities_Consistent>  (445) 
1

>  <s_lp_Variant>  (445) 
107:0-5

>  <s_i_glide_gridfile>  (445) 
pfpi4k_grid

>  <i_i_glide_lignum>  (445) 
38

>  <i_i_glide_rotatable_bonds>  (445) 
3

>  <r_i_docking_score>  (445) 
-3.96669

>  <r_i_glide_ligand_efficiency>  (445) 
-0.172465

>  <r_i_glide_ligand_efficiency_sa>  (445) 
-0.490467

>  <r_i_glide_ligand_efficiency_ln>  (445) 
-0.959183

>  <r_i_glide_gscore>  (445) 
-3.96669

>  <r_i_glide_lipo>  (445) 
-0.382412

>  <r_i_glide_hbond>  (445) 
-0.157373

>  <r_i_glide_metal>  (445) 
-0

>  <r_i_glide_rewards>  (445) 
-1.29962

>  <r_i_glide_evdw>  (445) 
-26.3681

>  <r_i_glide_ecoul>  (445) 
-8.25243

>  <r_i_glide_erotb>  (445) 
0.580292

>  <r_i_glide_esite>  (445) 
-0.15131

>  <r_i_glide_emodel>  (445) 
-43.8212

>  <r_i_glide_energy>  (445) 
-34.6206

>  <r_i_glide_einternal>  (445) 
5.46365

>  <r_i_glide_intrahb_reward>  (445) 
-0

>  <i_i_glide_confnum>  (445) 
5

>  <i_i_glide_posenum>  (445) 
37

>  <r_i_glide_eff_state_penalty>  (445) 
0

>  <ligand_id>  (445) 
107

>  <original_smiles>  (445) 
c1cnc2c(C3CC4CN(Cc5cnc[nH]5)CC4C3)cnn2c1

>  <smiles>  (445) 
[H]c1nc2c(C3([H])C([H])([H])C4([H])C([H])([H])N(C([H])([H])c5c([H])[n+]([H])c([H])n5[H])C([H])([H])C4([H])C3([H])[H])c([H])nn2c([H])c1[H]

$$$$
107:5:0
     RDKit          3D

 44 48  0  0  1  0  0  0  0  0999 V2000
    3.2343   -1.2140   -3.4460 C   0  0  0  0  0  0  0  0  0  0  0  0
    2.6140   -2.4608   -3.1814 C   0  0  0  0  0  0  0  0  0  0  0  0
    2.9509   -3.2615   -2.1781 N   0  0  0  0  0  0  0  0  0  0  0  0
    3.9617   -2.8731   -1.3853 C   0  0  0  0  0  0  0  0  0  0  0  0
    4.5858   -3.4477   -0.3035 C   0  0  0  0  0  0  0  0  0  0  0  0
    4.3101   -4.7761    0.3632 C   0  0  1  0  0  0  0  0  0  0  0  0
    5.5663   -5.5468    0.8026 C   0  0  0  0  0  0  0  0  0  0  0  0
    5.0996   -6.5061    1.9060 C   0  0  2  0  0  0  0  0  0  0  0  0
    4.7335   -7.9141    1.4221 C   0  0  0  0  0  0  0  0  0  0  0  0
    3.5992   -8.2776    2.2617 N   0  0  0  0  0  0  0  0  0  0  0  0
    2.8704   -9.4397    1.7547 C   0  0  0  0  0  0  0  0  0  0  0  0
    1.9230  -10.0325    2.7550 C   0  0  0  0  0  0  0  0  0  0  0  0
    0.6031   -9.7745    3.0434 C   0  0  0  0  0  0  0  0  0  0  0  0
    0.2345  -10.6209    4.0630 N   0  0  0  0  0  0  0  0  0  0  0  0
    1.2763  -11.3926    4.4008 C   0  0  0  0  0  0  0  0  0  0  0  0
    2.2923  -11.0462    3.6057 N   0  0  0  0  0  0  0  0  0  0  0  0
    2.7799   -7.0717    2.2520 C   0  0  0  0  0  0  0  0  0  0  0  0
    3.7914   -5.9405    2.4539 C   0  0  2  0  0  0  0  0  0  0  0  0
    3.4925   -4.6600    1.6558 C   0  0  0  0  0  0  0  0  0  0  0  0
    5.5714   -2.4875    0.0626 C   0  0  0  0  0  0  0  0  0  0  0  0
    5.6238   -1.4232   -0.7070 N   0  0  0  0  0  0  0  0  0  0  0  0
    4.6165   -1.6369   -1.6045 N   0  0  0  0  0  0  0  0  0  0  0  0
    4.2439   -0.7991   -2.6111 C   0  0  0  0  0  0  0  0  0  0  0  0
    3.2113  -11.4762    3.6267 H   0  0  0  0  0  0  0  0  0  0  0  0
    2.8913   -0.5761   -4.2561 H   0  0  0  0  0  0  0  0  0  0  0  0
    1.7998   -2.8021   -3.8168 H   0  0  0  0  0  0  0  0  0  0  0  0
    3.7551   -5.4235   -0.3178 H   0  0  0  0  0  0  0  0  0  0  0  0
    6.0599   -6.0528   -0.0259 H   0  0  0  0  0  0  0  0  0  0  0  0
    6.2994   -4.8696    1.2420 H   0  0  0  0  0  0  0  0  0  0  0  0
    5.8461   -6.5700    2.6974 H   0  0  0  0  0  0  0  0  0  0  0  0
    4.4427   -7.8984    0.3705 H   0  0  0  0  0  0  0  0  0  0  0  0
    5.5607   -8.6154    1.5375 H   0  0  0  0  0  0  0  0  0  0  0  0
    2.3062   -9.1719    0.8590 H   0  0  0  0  0  0  0  0  0  0  0  0
    3.5757  -10.2154    1.4530 H   0  0  0  0  0  0  0  0  0  0  0  0
   -0.0793   -9.0623    2.6045 H   0  0  0  0  0  0  0  0  0  0  0  0
    1.3000  -12.1498    5.1671 H   0  0  0  0  0  0  0  0  0  0  0  0
    2.2931   -6.9664    1.2813 H   0  0  0  0  0  0  0  0  0  0  0  0
    2.0126   -7.0953    3.0249 H   0  0  0  0  0  0  0  0  0  0  0  0
    3.8837   -5.7227    3.5174 H   0  0  0  0  0  0  0  0  0  0  0  0
    3.8476   -3.8054    2.2349 H   0  0  0  0  0  0  0  0  0  0  0  0
    2.4289   -4.5037    1.4681 H   0  0  0  0  0  0  0  0  0  0  0  0
    6.2640   -2.5653    0.8890 H   0  0  0  0  0  0  0  0  0  0  0  0
    4.7597    0.1524   -2.6990 H   0  0  0  0  0  0  0  0  0  0  0  0
   -0.6977  -10.6745    4.4957 H   0  0  0  0  0  0  0  0  0  0  0  0
  1 23  2  0
  1  2  1  0
  1 25  1  0
  2  3  2  0
  2 26  1  0
  3  4  1  0
  4 22  1  0
  4  5  2  0
  5  6  1  0
  5 20  1  0
  6 19  1  0
  6  7  1  0
  6 27  1  6
  7  8  1  0
  7 28  1  0
  7 29  1  0
  8 18  1  0
  8  9  1  0
  8 30  1  1
  9 10  1  0
  9 31  1  0
  9 32  1  0
 10 11  1  0
 10 17  1  0
 11 12  1  0
 11 33  1  0
 11 34  1  0
 12 16  1  0
 12 13  2  0
 13 14  1  0
 13 35  1  0
 14 15  2  0
 14 44  1  0
 15 16  1  0
 15 36  1  0
 16 24  1  0
 17 18  1  0
 17 37  1  0
 17 38  1  0
 18 19  1  0
 18 39  1  1
 19 40  1  0
 19 41  1  0
 20 21  2  0
 20 42  1  0
 21 22  1  0
 22 23  1  0
 23 43  1  0
M  CHG  1  14   1
M  END
>  <i_m_ct_stereo_status>  (446) 
1

>  <s_m_source_file>  (446) 
/var/tmp/pbs.5076255.sched01/tmp277fsmq3/144xeprw1xa.sdf

>  <i_m_source_file_index>  (446) 
39

>  <i_lp_mmshare_version>  (446) 
48012

>  <i_f3d_flags>  (446) 
0

>  <s_epik_input>  (446) 
bjFbY0hdW2NIXVtjSF1uKGMxMiluW2NIXWMyW0NASF0oW0NIMl0zKVtDSDJdW0NASF0oW0NASF0zNClbQ0gyXU4oW0NIMl00KVtDSDJdYzVbY0hdbltjSF1bbkhdNQ==

>  <s_epik_cmdline>  (446) 
J2VwaWtfcHl0aG9uJywgJy1waHQnLCAnMi4wJywgJy1waCcsICc3LjAnLCAnLXRuJywgJzgnLCAnLW1hJywgJzIwMCcsICctaW1hZScsICc8aW5maWxlLm1hZT4nLCAnLW9tYWUnLCAnPG91dGZpbGUubWFlPic=

>  <r_epik_Ionization_Penalty>  (446) 
0.640894

>  <r_epik_Ionization_Penalty_Charging>  (446) 
0

>  <r_epik_Ionization_Penalty_Neutral>  (446) 
0.640894

>  <r_epik_State_Penalty>  (446) 
1.71227

>  <r_epik_Charging_Adjusted_Penalty>  (446) 
1.71227

>  <i_epik_Tot_Q>  (446) 
1

>  <i_epik_Tot_abs_Q>  (446) 
1

>  <s_lp_Force_Field>  (446) 
OPLS3e

>  <r_lp_Energy>  (446) 
22.6083

>  <b_lp_Chiralities_Consistent>  (446) 
1

>  <s_lp_Variant>  (446) 
107:0-6

>  <s_i_glide_gridfile>  (446) 
pfpi4k_grid

>  <i_i_glide_lignum>  (446) 
39

>  <i_i_glide_rotatable_bonds>  (446) 
3

>  <r_i_docking_score>  (446) 
-4.2744

>  <r_i_glide_ligand_efficiency>  (446) 
-0.185844

>  <r_i_glide_ligand_efficiency_sa>  (446) 
-0.528514

>  <r_i_glide_ligand_efficiency_ln>  (446) 
-1.03359

>  <r_i_glide_gscore>  (446) 
-4.2744

>  <r_i_glide_lipo>  (446) 
-0.641437

>  <r_i_glide_hbond>  (446) 
-0.2

>  <r_i_glide_metal>  (446) 
-0

>  <r_i_glide_rewards>  (446) 
-1.43513

>  <r_i_glide_evdw>  (446) 
-30.1243

>  <r_i_glide_ecoul>  (446) 
-6.31621

>  <r_i_glide_erotb>  (446) 
0.580292

>  <r_i_glide_esite>  (446) 
-0.124486

>  <r_i_glide_emodel>  (446) 
-49.8465

>  <r_i_glide_energy>  (446) 
-36.4405

>  <r_i_glide_einternal>  (446) 
1.42443

>  <r_i_glide_intrahb_reward>  (446) 
-0

>  <i_i_glide_confnum>  (446) 
1

>  <i_i_glide_posenum>  (446) 
31

>  <r_i_glide_eff_state_penalty>  (446) 
0

>  <ligand_id>  (446) 
107

>  <original_smiles>  (446) 
c1cnc2c(C3CC4CN(Cc5cnc[nH]5)CC4C3)cnn2c1

>  <smiles>  (446) 
[H]c1nc2c(C3([H])C([H])([H])C4([H])C([H])([H])N(C([H])([H])c5c([H])[n+]([H])c([H])n5[H])C([H])([H])C4([H])C3([H])[H])c([H])nn2c([H])c1[H]

$$$$
107:5:1
     RDKit          3D

 44 48  0  0  1  0  0  0  0  0999 V2000
   -1.0064   -8.3130    3.8212 C   0  0  0  0  0  0  0  0  0  0  0  0
   -0.8152   -7.8747    2.4872 C   0  0  0  0  0  0  0  0  0  0  0  0
    0.1413   -7.0285    2.1048 N   0  0  0  0  0  0  0  0  0  0  0  0
    1.0136   -6.6299    3.0514 C   0  0  0  0  0  0  0  0  0  0  0  0
    2.1138   -5.8126    3.0233 C   0  0  0  0  0  0  0  0  0  0  0  0
    2.7413   -5.0909    1.8544 C   0  0  1  0  0  0  0  0  0  0  0  0
    2.7011   -3.5603    1.9784 C   0  0  0  0  0  0  0  0  0  0  0  0
    3.8178   -3.0395    1.0627 C   0  0  2  0  0  0  0  0  0  0  0  0
    3.3632   -2.6721   -0.3529 C   0  0  0  0  0  0  0  0  0  0  0  0
    4.4869   -3.0751   -1.1885 N   0  0  0  0  0  0  0  0  0  0  0  0
    4.1228   -3.1337   -2.6051 C   0  0  0  0  0  0  0  0  0  0  0  0
    3.8746   -1.7884   -3.2117 C   0  0  0  0  0  0  0  0  0  0  0  0
    4.3154   -0.5438   -2.8395 C   0  0  0  0  0  0  0  0  0  0  0  0
    3.8176    0.3443   -3.7492 N   0  0  0  0  0  0  0  0  0  0  0  0
    3.0586   -0.2843   -4.6428 C   0  0  0  0  0  0  0  0  0  0  0  0
    3.0940   -1.5801   -4.3168 N   0  0  0  0  0  0  0  0  0  0  0  0
    4.8279   -4.3903   -0.6594 C   0  0  0  0  0  0  0  0  0  0  0  0
    4.7926   -4.1946    0.8589 C   0  0  2  0  0  0  0  0  0  0  0  0
    4.2359   -5.3891    1.6550 C   0  0  0  0  0  0  0  0  0  0  0  0
    2.5496   -5.7883    4.3789 C   0  0  0  0  0  0  0  0  0  0  0  0
    1.8238   -6.5051    5.2052 N   0  0  0  0  0  0  0  0  0  0  0  0
    0.8704   -7.0450    4.3965 N   0  0  0  0  0  0  0  0  0  0  0  0
   -0.1309   -7.8820    4.7863 C   0  0  0  0  0  0  0  0  0  0  0  0
    2.5656   -2.2785   -4.8303 H   0  0  0  0  0  0  0  0  0  0  0  0
   -1.7976   -9.0047    4.0804 H   0  0  0  0  0  0  0  0  0  0  0  0
   -1.4818   -8.2331    1.7055 H   0  0  0  0  0  0  0  0  0  0  0  0
    2.2276   -5.3688    0.9339 H   0  0  0  0  0  0  0  0  0  0  0  0
    1.7318   -3.1336    1.7328 H   0  0  0  0  0  0  0  0  0  0  0  0
    2.9271   -3.2586    3.0004 H   0  0  0  0  0  0  0  0  0  0  0  0
    4.3199   -2.1842    1.5120 H   0  0  0  0  0  0  0  0  0  0  0  0
    2.4690   -3.2340   -0.6291 H   0  0  0  0  0  0  0  0  0  0  0  0
    3.1361   -1.6109   -0.4576 H   0  0  0  0  0  0  0  0  0  0  0  0
    4.9317   -3.6036   -3.1646 H   0  0  0  0  0  0  0  0  0  0  0  0
    3.2359   -3.7496   -2.7497 H   0  0  0  0  0  0  0  0  0  0  0  0
    4.9423   -0.2381   -2.0179 H   0  0  0  0  0  0  0  0  0  0  0  0
    2.4976    0.1678   -5.4478 H   0  0  0  0  0  0  0  0  0  0  0  0
    4.0811   -5.1239   -0.9543 H   0  0  0  0  0  0  0  0  0  0  0  0
    5.7977   -4.7350   -1.0138 H   0  0  0  0  0  0  0  0  0  0  0  0
    5.7861   -3.9218    1.2122 H   0  0  0  0  0  0  0  0  0  0  0  0
    4.7443   -5.4133    2.6181 H   0  0  0  0  0  0  0  0  0  0  0  0
    4.4135   -6.3509    1.1729 H   0  0  0  0  0  0  0  0  0  0  0  0
    3.3972   -5.2397    4.7709 H   0  0  0  0  0  0  0  0  0  0  0  0
   -0.1808   -8.1735    5.8352 H   0  0  0  0  0  0  0  0  0  0  0  0
    3.9094    1.3531   -3.7051 H   0  0  0  0  0  0  0  0  0  0  0  0
  1 23  2  0
  1  2  1  0
  1 25  1  0
  2  3  2  0
  2 26  1  0
  3  4  1  0
  4 22  1  0
  4  5  2  0
  5  6  1  0
  5 20  1  0
  6 19  1  0
  6  7  1  0
  6 27  1  6
  7  8  1  0
  7 28  1  0
  7 29  1  0
  8 18  1  0
  8  9  1  0
  8 30  1  1
  9 10  1  0
  9 31  1  0
  9 32  1  0
 10 11  1  0
 10 17  1  0
 11 12  1  0
 11 33  1  0
 11 34  1  0
 12 16  1  0
 12 13  2  0
 13 14  1  0
 13 35  1  0
 14 15  2  0
 14 44  1  0
 15 16  1  0
 15 36  1  0
 16 24  1  0
 17 18  1  0
 17 37  1  0
 17 38  1  0
 18 19  1  0
 18 39  1  1
 19 40  1  0
 19 41  1  0
 20 21  2  0
 20 42  1  0
 21 22  1  0
 22 23  1  0
 23 43  1  0
M  CHG  1  14   1
M  END
>  <i_m_ct_stereo_status>  (447) 
1

>  <s_m_source_file>  (447) 
/var/tmp/pbs.5076255.sched01/tmp277fsmq3/144xeprw1xa.sdf

>  <i_m_source_file_index>  (447) 
39

>  <i_lp_mmshare_version>  (447) 
48012

>  <i_f3d_flags>  (447) 
0

>  <s_epik_input>  (447) 
bjFbY0hdW2NIXVtjSF1uKGMxMiluW2NIXWMyW0NASF0oW0NIMl0zKVtDSDJdW0NASF0oW0NASF0zNClbQ0gyXU4oW0NIMl00KVtDSDJdYzVbY0hdbltjSF1bbkhdNQ==

>  <s_epik_cmdline>  (447) 
J2VwaWtfcHl0aG9uJywgJy1waHQnLCAnMi4wJywgJy1waCcsICc3LjAnLCAnLXRuJywgJzgnLCAnLW1hJywgJzIwMCcsICctaW1hZScsICc8aW5maWxlLm1hZT4nLCAnLW9tYWUnLCAnPG91dGZpbGUubWFlPic=

>  <r_epik_Ionization_Penalty>  (447) 
0.640894

>  <r_epik_Ionization_Penalty_Charging>  (447) 
0

>  <r_epik_Ionization_Penalty_Neutral>  (447) 
0.640894

>  <r_epik_State_Penalty>  (447) 
1.71227

>  <r_epik_Charging_Adjusted_Penalty>  (447) 
1.71227

>  <i_epik_Tot_Q>  (447) 
1

>  <i_epik_Tot_abs_Q>  (447) 
1

>  <s_lp_Force_Field>  (447) 
OPLS3e

>  <r_lp_Energy>  (447) 
22.6083

>  <b_lp_Chiralities_Consistent>  (447) 
1

>  <s_lp_Variant>  (447) 
107:0-6

>  <s_i_glide_gridfile>  (447) 
pfpi4k_grid

>  <i_i_glide_lignum>  (447) 
39

>  <i_i_glide_rotatable_bonds>  (447) 
3

>  <r_i_docking_score>  (447) 
-3.98492

>  <r_i_glide_ligand_efficiency>  (447) 
-0.173257

>  <r_i_glide_ligand_efficiency_sa>  (447) 
-0.492721

>  <r_i_glide_ligand_efficiency_ln>  (447) 
-0.963589

>  <r_i_glide_gscore>  (447) 
-3.98492

>  <r_i_glide_lipo>  (447) 
-0.295774

>  <r_i_glide_hbond>  (447) 
0

>  <r_i_glide_metal>  (447) 
-0

>  <r_i_glide_rewards>  (447) 
-1.72857

>  <r_i_glide_evdw>  (447) 
-26.8301

>  <r_i_glide_ecoul>  (447) 
-7.43398

>  <r_i_glide_erotb>  (447) 
0.580292

>  <r_i_glide_esite>  (447) 
-0.0842674

>  <r_i_glide_emodel>  (447) 
-47.3568

>  <r_i_glide_energy>  (447) 
-34.264

>  <r_i_glide_einternal>  (447) 
0.234917

>  <r_i_glide_intrahb_reward>  (447) 
-0

>  <i_i_glide_confnum>  (447) 
1

>  <i_i_glide_posenum>  (447) 
39

>  <r_i_glide_eff_state_penalty>  (447) 
0

>  <ligand_id>  (447) 
107

>  <original_smiles>  (447) 
c1cnc2c(C3CC4CN(Cc5cnc[nH]5)CC4C3)cnn2c1

>  <smiles>  (447) 
[H]c1nc2c(C3([H])C([H])([H])C4([H])C([H])([H])N(C([H])([H])c5c([H])[n+]([H])c([H])n5[H])C([H])([H])C4([H])C3([H])[H])c([H])nn2c([H])c1[H]

$$$$
107:5:2
     RDKit          3D

 44 48  0  0  1  0  0  0  0  0999 V2000
   -0.9076   -9.0545    3.1476 C   0  0  0  0  0  0  0  0  0  0  0  0
   -0.8480   -7.8854    2.3559 C   0  0  0  0  0  0  0  0  0  0  0  0
    0.2756   -7.3280    1.9201 N   0  0  0  0  0  0  0  0  0  0  0  0
    1.4293   -7.9517    2.2483 C   0  0  0  0  0  0  0  0  0  0  0  0
    2.7547   -7.6737    1.9914 C   0  0  0  0  0  0  0  0  0  0  0  0
    3.3601   -6.5327    1.2094 C   0  0  1  0  0  0  0  0  0  0  0  0
    2.5490   -5.2392    1.3097 C   0  0  0  0  0  0  0  0  0  0  0  0
    3.5156   -4.0995    0.9858 C   0  0  2  0  0  0  0  0  0  0  0  0
    3.4909   -3.6530   -0.4769 C   0  0  0  0  0  0  0  0  0  0  0  0
    4.8861   -3.3394   -0.7585 N   0  0  0  0  0  0  0  0  0  0  0  0
    5.1417   -3.2259   -2.1922 C   0  0  0  0  0  0  0  0  0  0  0  0
    4.4307   -2.0722   -2.8327 C   0  0  0  0  0  0  0  0  0  0  0  0
    4.4498   -0.7266   -2.5574 C   0  0  0  0  0  0  0  0  0  0  0  0
    3.6057   -0.1215   -3.4502 N   0  0  0  0  0  0  0  0  0  0  0  0
    3.0498   -1.0364   -4.2419 C   0  0  0  0  0  0  0  0  0  0  0  0
    3.5437   -2.2227   -3.8722 N   0  0  0  0  0  0  0  0  0  0  0  0
    5.6001   -4.4635   -0.1613 C   0  0  0  0  0  0  0  0  0  0  0  0
    4.9235   -4.6486    1.1996 C   0  0  2  0  0  0  0  0  0  0  0  0
    4.7666   -6.1097    1.6547 C   0  0  0  0  0  0  0  0  0  0  0  0
    3.4513   -8.7305    2.6402 C   0  0  0  0  0  0  0  0  0  0  0  0
    2.6855   -9.5871    3.2737 N   0  0  0  0  0  0  0  0  0  0  0  0
    1.4242   -9.1280    3.0353 N   0  0  0  0  0  0  0  0  0  0  0  0
    0.2659   -9.6843    3.4849 C   0  0  0  0  0  0  0  0  0  0  0  0
    3.2561   -3.1118   -4.2639 H   0  0  0  0  0  0  0  0  0  0  0  0
   -1.8557   -9.4583    3.4916 H   0  0  0  0  0  0  0  0  0  0  0  0
   -1.7697   -7.3877    2.0803 H   0  0  0  0  0  0  0  0  0  0  0  0
    3.4214   -6.8047    0.1560 H   0  0  0  0  0  0  0  0  0  0  0  0
    1.6727   -5.2534    0.6615 H   0  0  0  0  0  0  0  0  0  0  0  0
    2.2040   -5.1116    2.3374 H   0  0  0  0  0  0  0  0  0  0  0  0
    3.3319   -3.2431    1.6345 H   0  0  0  0  0  0  0  0  0  0  0  0
    3.1560   -4.4684   -1.1201 H   0  0  0  0  0  0  0  0  0  0  0  0
    2.8354   -2.7970   -0.6397 H   0  0  0  0  0  0  0  0  0  0  0  0
    6.2134   -3.0855   -2.3491 H   0  0  0  0  0  0  0  0  0  0  0  0
    4.8619   -4.1471   -2.7066 H   0  0  0  0  0  0  0  0  0  0  0  0
    4.9838   -0.1728   -1.7955 H   0  0  0  0  0  0  0  0  0  0  0  0
    2.3121   -0.8378   -4.9978 H   0  0  0  0  0  0  0  0  0  0  0  0
    5.4651   -5.3615   -0.7668 H   0  0  0  0  0  0  0  0  0  0  0  0
    6.6688   -4.2687   -0.0708 H   0  0  0  0  0  0  0  0  0  0  0  0
    5.4494   -4.0664    1.9554 H   0  0  0  0  0  0  0  0  0  0  0  0
    4.8244   -6.1390    2.7440 H   0  0  0  0  0  0  0  0  0  0  0  0
    5.5477   -6.7692    1.2713 H   0  0  0  0  0  0  0  0  0  0  0  0
    4.5210   -8.8703    2.6740 H   0  0  0  0  0  0  0  0  0  0  0  0
    0.3250  -10.5840    4.0927 H   0  0  0  0  0  0  0  0  0  0  0  0
    3.3513    0.8626   -3.4524 H   0  0  0  0  0  0  0  0  0  0  0  0
  1 23  2  0
  1  2  1  0
  1 25  1  0
  2  3  2  0
  2 26  1  0
  3  4  1  0
  4 22  1  0
  4  5  2  0
  5  6  1  0
  5 20  1  0
  6 19  1  0
  6  7  1  0
  6 27  1  6
  7  8  1  0
  7 28  1  0
  7 29  1  0
  8 18  1  0
  8  9  1  0
  8 30  1  1
  9 10  1  0
  9 31  1  0
  9 32  1  0
 10 11  1  0
 10 17  1  0
 11 12  1  0
 11 33  1  0
 11 34  1  0
 12 16  1  0
 12 13  2  0
 13 14  1  0
 13 35  1  0
 14 15  2  0
 14 44  1  0
 15 16  1  0
 15 36  1  0
 16 24  1  0
 17 18  1  0
 17 37  1  0
 17 38  1  0
 18 19  1  0
 18 39  1  1
 19 40  1  0
 19 41  1  0
 20 21  2  0
 20 42  1  0
 21 22  1  0
 22 23  1  0
 23 43  1  0
M  CHG  1  14   1
M  END
>  <i_m_ct_stereo_status>  (448) 
1

>  <s_m_source_file>  (448) 
/var/tmp/pbs.5076255.sched01/tmp277fsmq3/144xeprw1xa.sdf

>  <i_m_source_file_index>  (448) 
39

>  <i_lp_mmshare_version>  (448) 
48012

>  <i_f3d_flags>  (448) 
0

>  <s_epik_input>  (448) 
bjFbY0hdW2NIXVtjSF1uKGMxMiluW2NIXWMyW0NASF0oW0NIMl0zKVtDSDJdW0NASF0oW0NASF0zNClbQ0gyXU4oW0NIMl00KVtDSDJdYzVbY0hdbltjSF1bbkhdNQ==

>  <s_epik_cmdline>  (448) 
J2VwaWtfcHl0aG9uJywgJy1waHQnLCAnMi4wJywgJy1waCcsICc3LjAnLCAnLXRuJywgJzgnLCAnLW1hJywgJzIwMCcsICctaW1hZScsICc8aW5maWxlLm1hZT4nLCAnLW9tYWUnLCAnPG91dGZpbGUubWFlPic=

>  <r_epik_Ionization_Penalty>  (448) 
0.640894

>  <r_epik_Ionization_Penalty_Charging>  (448) 
0

>  <r_epik_Ionization_Penalty_Neutral>  (448) 
0.640894

>  <r_epik_State_Penalty>  (448) 
1.71227

>  <r_epik_Charging_Adjusted_Penalty>  (448) 
1.71227

>  <i_epik_Tot_Q>  (448) 
1

>  <i_epik_Tot_abs_Q>  (448) 
1

>  <s_lp_Force_Field>  (448) 
OPLS3e

>  <r_lp_Energy>  (448) 
22.6083

>  <b_lp_Chiralities_Consistent>  (448) 
1

>  <s_lp_Variant>  (448) 
107:0-6

>  <s_i_glide_gridfile>  (448) 
pfpi4k_grid

>  <i_i_glide_lignum>  (448) 
39

>  <i_i_glide_rotatable_bonds>  (448) 
3

>  <r_i_docking_score>  (448) 
-3.70226

>  <r_i_glide_ligand_efficiency>  (448) 
-0.160968

>  <r_i_glide_ligand_efficiency_sa>  (448) 
-0.457771

>  <r_i_glide_ligand_efficiency_ln>  (448) 
-0.89524

>  <r_i_glide_gscore>  (448) 
-3.70226

>  <r_i_glide_lipo>  (448) 
-0.419652

>  <r_i_glide_hbond>  (448) 
0

>  <r_i_glide_metal>  (448) 
-0

>  <r_i_glide_rewards>  (448) 
-1.4104

>  <r_i_glide_evdw>  (448) 
-29.0973

>  <r_i_glide_ecoul>  (448) 
-6.45506

>  <r_i_glide_erotb>  (448) 
0.580292

>  <r_i_glide_esite>  (448) 
-0.0293777

>  <r_i_glide_emodel>  (448) 
-47.582

>  <r_i_glide_energy>  (448) 
-35.5524

>  <r_i_glide_einternal>  (448) 
0.504601

>  <r_i_glide_intrahb_reward>  (448) 
-0

>  <i_i_glide_confnum>  (448) 
4

>  <i_i_glide_posenum>  (448) 
4

>  <r_i_glide_eff_state_penalty>  (448) 
0

>  <ligand_id>  (448) 
107

>  <original_smiles>  (448) 
c1cnc2c(C3CC4CN(Cc5cnc[nH]5)CC4C3)cnn2c1

>  <smiles>  (448) 
[H]c1nc2c(C3([H])C([H])([H])C4([H])C([H])([H])N(C([H])([H])c5c([H])[n+]([H])c([H])n5[H])C([H])([H])C4([H])C3([H])[H])c([H])nn2c([H])c1[H]

$$$$
107:6:0
     RDKit          3D

 43 47  0  0  1  0  0  0  0  0999 V2000
    0.8114  -10.5104    3.3928 C   0  0  0  0  0  0  0  0  0  0  0  0
    2.1249  -10.3776    2.8790 C   0  0  0  0  0  0  0  0  0  0  0  0
    2.7032   -9.2129    2.6002 N   0  0  0  0  0  0  0  0  0  0  0  0
    1.9830   -8.0948    2.8322 C   0  0  0  0  0  0  0  0  0  0  0  0
    2.2443   -6.7542    2.6857 C   0  0  0  0  0  0  0  0  0  0  0  0
    3.4906   -6.0687    2.1862 C   0  0  2  0  0  0  0  0  0  0  0  0
    3.7151   -4.6529    2.7549 C   0  0  0  0  0  0  0  0  0  0  0  0
    4.6496   -3.9454    1.7683 C   0  0  2  0  0  0  0  0  0  0  0  0
    4.3050   -2.4861    1.4006 C   0  0  0  0  0  0  0  0  0  0  0  0
    4.6090   -2.4303   -0.0279 N   0  0  0  0  0  0  0  0  0  0  0  0
    4.0441   -1.2450   -0.6813 C   0  0  0  0  0  0  0  0  0  0  0  0
    4.0764   -1.3004   -2.1960 C   0  0  0  0  0  0  0  0  0  0  0  0
    4.4688   -2.2637   -3.1135 C   0  0  0  0  0  0  0  0  0  0  0  0
    4.2006   -1.8254   -4.4048 N   0  0  0  0  0  0  0  0  0  0  0  0
    3.7136   -0.6052   -4.2651 C   0  0  0  0  0  0  0  0  0  0  0  0
    3.6054   -0.2566   -2.9964 N   0  0  0  0  0  0  0  0  0  0  0  0
    4.0205   -3.6770   -0.5324 C   0  0  0  0  0  0  0  0  0  0  0  0
    4.4756   -4.7072    0.4708 C   0  0  2  0  0  0  0  0  0  0  0  0
    3.4783   -5.8451    0.6755 C   0  0  0  0  0  0  0  0  0  0  0  0
    1.0486   -6.1255    3.1242 C   0  0  0  0  0  0  0  0  0  0  0  0
    0.1015   -6.9475    3.5033 N   0  0  0  0  0  0  0  0  0  0  0  0
    0.6671   -8.1789    3.3444 N   0  0  0  0  0  0  0  0  0  0  0  0
    0.0809   -9.3761    3.6290 C   0  0  0  0  0  0  0  0  0  0  0  0
    3.2693    0.6569   -2.6967 H   0  0  0  0  0  0  0  0  0  0  0  0
    0.3897  -11.4844    3.6002 H   0  0  0  0  0  0  0  0  0  0  0  0
    2.7104  -11.2711    2.6766 H   0  0  0  0  0  0  0  0  0  0  0  0
    4.3720   -6.6711    2.4161 H   0  0  0  0  0  0  0  0  0  0  0  0
    2.7837   -4.0936    2.7778 H   0  0  0  0  0  0  0  0  0  0  0  0
    4.1299   -4.6638    3.7583 H   0  0  0  0  0  0  0  0  0  0  0  0
    5.6957   -4.0158    2.0749 H   0  0  0  0  0  0  0  0  0  0  0  0
    3.2368   -2.2961    1.5415 H   0  0  0  0  0  0  0  0  0  0  0  0
    4.8615   -1.7531    1.9906 H   0  0  0  0  0  0  0  0  0  0  0  0
    3.0196   -1.0684   -0.3266 H   0  0  0  0  0  0  0  0  0  0  0  0
    4.5976   -0.3574   -0.3441 H   0  0  0  0  0  0  0  0  0  0  0  0
    4.8892   -3.2402   -3.0062 H   0  0  0  0  0  0  0  0  0  0  0  0
    3.4655    0.0148   -5.1317 H   0  0  0  0  0  0  0  0  0  0  0  0
    2.9334   -3.5722   -0.5934 H   0  0  0  0  0  0  0  0  0  0  0  0
    4.4279   -4.0389   -1.4473 H   0  0  0  0  0  0  0  0  0  0  0  0
    5.4435   -5.1021    0.1477 H   0  0  0  0  0  0  0  0  0  0  0  0
    3.7344   -6.7344    0.0926 H   0  0  0  0  0  0  0  0  0  0  0  0
    2.4905   -5.5195    0.3472 H   0  0  0  0  0  0  0  0  0  0  0  0
    0.8623   -5.0636    3.1633 H   0  0  0  0  0  0  0  0  0  0  0  0
   -0.9311   -9.3727    4.0323 H   0  0  0  0  0  0  0  0  0  0  0  0
  1 23  2  0
  1  2  1  0
  1 25  1  0
  2  3  2  0
  2 26  1  0
  3  4  1  0
  4 22  1  0
  4  5  2  0
  5  6  1  0
  5 20  1  0
  6 19  1  0
  6  7  1  0
  6 27  1  6
  7  8  1  0
  7 28  1  0
  7 29  1  0
  8 18  1  0
  8  9  1  0
  8 30  1  1
  9 10  1  0
  9 31  1  0
  9 32  1  0
 10 11  1  0
 10 17  1  0
 11 12  1  0
 11 33  1  0
 11 34  1  0
 12 16  1  0
 12 13  2  0
 13 14  1  0
 13 35  1  0
 14 15  2  0
 15 16  1  0
 15 36  1  0
 16 24  1  0
 17 18  1  0
 17 37  1  0
 17 38  1  0
 18 19  1  0
 18 39  1  6
 19 40  1  0
 19 41  1  0
 20 21  2  0
 20 42  1  0
 21 22  1  0
 22 23  1  0
 23 43  1  0
M  END
>  <i_m_ct_stereo_status>  (449) 
1

>  <s_m_source_file>  (449) 
/var/tmp/pbs.5076255.sched01/tmp277fsmq3/144xeprw1xa.sdf

>  <i_m_source_file_index>  (449) 
40

>  <i_lp_mmshare_version>  (449) 
48012

>  <i_f3d_flags>  (449) 
0

>  <s_epik_input>  (449) 
bjFbY0hdW2NIXVtjSF1uKGMxMiluW2NIXWMyW0NASF0oW0NIMl0zKVtDSDJdW0NASF0oW0NASF0zNClbQ0gyXU4oW0NIMl00KVtDSDJdYzVbY0hdbltjSF1bbkhdNQ==

>  <s_epik_cmdline>  (449) 
J2VwaWtfcHl0aG9uJywgJy1waHQnLCAnMi4wJywgJy1waCcsICc3LjAnLCAnLXRuJywgJzgnLCAnLW1hJywgJzIwMCcsICctaW1hZScsICc8aW5maWxlLm1hZT4nLCAnLW9tYWUnLCAnPG91dGZpbGUubWFlPic=

>  <r_lp_tautomer_probability>  (449) 
0.5

>  <r_epik_Ionization_Penalty>  (449) 
1.42637

>  <r_epik_Ionization_Penalty_Charging>  (449) 
0.424887

>  <r_epik_Ionization_Penalty_Neutral>  (449) 
1.00149

>  <r_epik_State_Penalty>  (449) 
2.04471

>  <r_epik_Charging_Adjusted_Penalty>  (449) 
2.4696

>  <i_epik_Tot_Q>  (449) 
0

>  <i_epik_Tot_abs_Q>  (449) 
0

>  <s_lp_Force_Field>  (449) 
OPLS3e

>  <r_lp_Energy>  (449) 
16.2918

>  <b_lp_Chiralities_Consistent>  (449) 
1

>  <s_lp_Variant>  (449) 
107:0-7

>  <s_i_glide_gridfile>  (449) 
pfpi4k_grid

>  <i_i_glide_lignum>  (449) 
40

>  <i_i_glide_rotatable_bonds>  (449) 
3

>  <r_i_docking_score>  (449) 
-4.72694

>  <r_i_glide_ligand_efficiency>  (449) 
-0.205519

>  <r_i_glide_ligand_efficiency_sa>  (449) 
-0.584469

>  <r_i_glide_ligand_efficiency_ln>  (449) 
-1.14302

>  <r_i_glide_gscore>  (449) 
-4.72694

>  <r_i_glide_lipo>  (449) 
-0.333814

>  <r_i_glide_hbond>  (449) 
-0.585118

>  <r_i_glide_metal>  (449) 
-0

>  <r_i_glide_rewards>  (449) 
-1.60873

>  <r_i_glide_evdw>  (449) 
-28.0145

>  <r_i_glide_ecoul>  (449) 
-8.98319

>  <r_i_glide_erotb>  (449) 
0.583626

>  <r_i_glide_esite>  (449) 
-0.034695

>  <r_i_glide_emodel>  (449) 
-45.4435

>  <r_i_glide_energy>  (449) 
-36.9977

>  <r_i_glide_einternal>  (449) 
3.38962

>  <r_i_glide_intrahb_reward>  (449) 
-0

>  <i_i_glide_confnum>  (449) 
2

>  <i_i_glide_posenum>  (449) 
16

>  <r_i_glide_eff_state_penalty>  (449) 
0

>  <ligand_id>  (449) 
107

>  <original_smiles>  (449) 
c1cnc2c(C3CC4CN(Cc5cnc[nH]5)CC4C3)cnn2c1

>  <smiles>  (449) 
[H]c1nc2c(C3([H])C([H])([H])C4([H])C([H])([H])N(C([H])([H])c5c([H])nc([H])n5[H])C([H])([H])C4([H])C3([H])[H])c([H])nn2c([H])c1[H]

$$$$
107:6:1
     RDKit          3D

 43 47  0  0  1  0  0  0  0  0999 V2000
    0.7469   -9.9785    3.8213 C   0  0  0  0  0  0  0  0  0  0  0  0
    1.3070   -9.7560    2.5427 C   0  0  0  0  0  0  0  0  0  0  0  0
    2.3509   -8.9642    2.3084 N   0  0  0  0  0  0  0  0  0  0  0  0
    2.9108   -8.3552    3.3680 C   0  0  0  0  0  0  0  0  0  0  0  0
    3.9723   -7.4843    3.5127 C   0  0  0  0  0  0  0  0  0  0  0  0
    4.9022   -6.9146    2.4695 C   0  0  2  0  0  0  0  0  0  0  0  0
    5.5065   -5.5467    2.8346 C   0  0  0  0  0  0  0  0  0  0  0  0
    5.9195   -4.9128    1.4975 C   0  0  2  0  0  0  0  0  0  0  0  0
    5.5902   -3.4236    1.3230 C   0  0  0  0  0  0  0  0  0  0  0  0
    5.2234   -3.3277   -0.0842 N   0  0  0  0  0  0  0  0  0  0  0  0
    4.5427   -2.0742   -0.4024 C   0  0  0  0  0  0  0  0  0  0  0  0
    4.2105   -1.9379   -1.8563 C   0  0  0  0  0  0  0  0  0  0  0  0
    4.9210   -2.2803   -2.9854 C   0  0  0  0  0  0  0  0  0  0  0  0
    4.1788   -1.9533   -4.1265 N   0  0  0  0  0  0  0  0  0  0  0  0
    3.0480   -1.4492   -3.6531 C   0  0  0  0  0  0  0  0  0  0  0  0
    3.0167   -1.4089   -2.3167 N   0  0  0  0  0  0  0  0  0  0  0  0
    4.3607   -4.4829   -0.2999 C   0  0  0  0  0  0  0  0  0  0  0  0
    5.1033   -5.6118    0.4178 C   0  0  2  0  0  0  0  0  0  0  0  0
    4.2214   -6.6474    1.1233 C   0  0  0  0  0  0  0  0  0  0  0  0
    4.0130   -7.2293    4.9089 C   0  0  0  0  0  0  0  0  0  0  0  0
    3.0821   -7.8345    5.6093 N   0  0  0  0  0  0  0  0  0  0  0  0
    2.3904   -8.5470    4.6713 N   0  0  0  0  0  0  0  0  0  0  0  0
    1.3190   -9.3537    4.9063 C   0  0  0  0  0  0  0  0  0  0  0  0
    2.2349   -1.0824   -1.7446 H   0  0  0  0  0  0  0  0  0  0  0  0
   -0.1085  -10.6337    3.9588 H   0  0  0  0  0  0  0  0  0  0  0  0
    0.8738  -10.2494    1.6793 H   0  0  0  0  0  0  0  0  0  0  0  0
    5.7272   -7.6089    2.3024 H   0  0  0  0  0  0  0  0  0  0  0  0
    4.7443   -4.9283    3.3082 H   0  0  0  0  0  0  0  0  0  0  0  0
    6.3420   -5.6227    3.5311 H   0  0  0  0  0  0  0  0  0  0  0  0
    6.9790   -5.0869    1.3037 H   0  0  0  0  0  0  0  0  0  0  0  0
    4.7430   -3.1359    1.9487 H   0  0  0  0  0  0  0  0  0  0  0  0
    6.4327   -2.7757    1.5683 H   0  0  0  0  0  0  0  0  0  0  0  0
    3.6356   -1.9822    0.1959 H   0  0  0  0  0  0  0  0  0  0  0  0
    5.1868   -1.2445   -0.1105 H   0  0  0  0  0  0  0  0  0  0  0  0
    5.9029   -2.7277   -3.0712 H   0  0  0  0  0  0  0  0  0  0  0  0
    2.2403   -1.1088   -4.2888 H   0  0  0  0  0  0  0  0  0  0  0  0
    3.3811   -4.3098    0.1495 H   0  0  0  0  0  0  0  0  0  0  0  0
    4.2210   -4.6807   -1.3619 H   0  0  0  0  0  0  0  0  0  0  0  0
    5.7819   -6.1068   -0.2753 H   0  0  0  0  0  0  0  0  0  0  0  0
    4.0874   -7.5570    0.5362 H   0  0  0  0  0  0  0  0  0  0  0  0
    3.2333   -6.2243    1.3071 H   0  0  0  0  0  0  0  0  0  0  0  0
    4.7147   -6.5874    5.4218 H   0  0  0  0  0  0  0  0  0  0  0  0
    0.9722   -9.4675    5.9280 H   0  0  0  0  0  0  0  0  0  0  0  0
  1 23  2  0
  1  2  1  0
  1 25  1  0
  2  3  2  0
  2 26  1  0
  3  4  1  0
  4 22  1  0
  4  5  2  0
  5  6  1  0
  5 20  1  0
  6 19  1  0
  6  7  1  0
  6 27  1  6
  7  8  1  0
  7 28  1  0
  7 29  1  0
  8 18  1  0
  8  9  1  0
  8 30  1  6
  9 10  1  0
  9 31  1  0
  9 32  1  0
 10 11  1  0
 10 17  1  0
 11 12  1  0
 11 33  1  0
 11 34  1  0
 12 16  1  0
 12 13  2  0
 13 14  1  0
 13 35  1  0
 14 15  2  0
 15 16  1  0
 15 36  1  0
 16 24  1  0
 17 18  1  0
 17 37  1  0
 17 38  1  0
 18 19  1  0
 18 39  1  6
 19 40  1  0
 19 41  1  0
 20 21  2  0
 20 42  1  0
 21 22  1  0
 22 23  1  0
 23 43  1  0
M  END
>  <i_m_ct_stereo_status>  (450) 
1

>  <s_m_source_file>  (450) 
/var/tmp/pbs.5076255.sched01/tmp277fsmq3/144xeprw1xa.sdf

>  <i_m_source_file_index>  (450) 
40

>  <i_lp_mmshare_version>  (450) 
48012

>  <i_f3d_flags>  (450) 
0

>  <s_epik_input>  (450) 
bjFbY0hdW2NIXVtjSF1uKGMxMiluW2NIXWMyW0NASF0oW0NIMl0zKVtDSDJdW0NASF0oW0NASF0zNClbQ0gyXU4oW0NIMl00KVtDSDJdYzVbY0hdbltjSF1bbkhdNQ==

>  <s_epik_cmdline>  (450) 
J2VwaWtfcHl0aG9uJywgJy1waHQnLCAnMi4wJywgJy1waCcsICc3LjAnLCAnLXRuJywgJzgnLCAnLW1hJywgJzIwMCcsICctaW1hZScsICc8aW5maWxlLm1hZT4nLCAnLW9tYWUnLCAnPG91dGZpbGUubWFlPic=

>  <r_lp_tautomer_probability>  (450) 
0.5

>  <r_epik_Ionization_Penalty>  (450) 
1.42637

>  <r_epik_Ionization_Penalty_Charging>  (450) 
0.424887

>  <r_epik_Ionization_Penalty_Neutral>  (450) 
1.00149

>  <r_epik_State_Penalty>  (450) 
2.04471

>  <r_epik_Charging_Adjusted_Penalty>  (450) 
2.4696

>  <i_epik_Tot_Q>  (450) 
0

>  <i_epik_Tot_abs_Q>  (450) 
0

>  <s_lp_Force_Field>  (450) 
OPLS3e

>  <r_lp_Energy>  (450) 
16.2918

>  <b_lp_Chiralities_Consistent>  (450) 
1

>  <s_lp_Variant>  (450) 
107:0-7

>  <s_i_glide_gridfile>  (450) 
pfpi4k_grid

>  <i_i_glide_lignum>  (450) 
40

>  <i_i_glide_rotatable_bonds>  (450) 
3

>  <r_i_docking_score>  (450) 
-4.59048

>  <r_i_glide_ligand_efficiency>  (450) 
-0.199586

>  <r_i_glide_ligand_efficiency_sa>  (450) 
-0.567597

>  <r_i_glide_ligand_efficiency_ln>  (450) 
-1.11002

>  <r_i_glide_gscore>  (450) 
-4.59048

>  <r_i_glide_lipo>  (450) 
-0.53523

>  <r_i_glide_hbond>  (450) 
-0.432703

>  <r_i_glide_metal>  (450) 
-0

>  <r_i_glide_rewards>  (450) 
-1.6

>  <r_i_glide_evdw>  (450) 
-25.2577

>  <r_i_glide_ecoul>  (450) 
-8.3317

>  <r_i_glide_erotb>  (450) 
0.583626

>  <r_i_glide_esite>  (450) 
-0.0935396

>  <r_i_glide_emodel>  (450) 
-44.853

>  <r_i_glide_energy>  (450) 
-33.5894

>  <r_i_glide_einternal>  (450) 
0.372358

>  <r_i_glide_intrahb_reward>  (450) 
-0

>  <i_i_glide_confnum>  (450) 
2

>  <i_i_glide_posenum>  (450) 
14

>  <r_i_glide_eff_state_penalty>  (450) 
0

>  <ligand_id>  (450) 
107

>  <original_smiles>  (450) 
c1cnc2c(C3CC4CN(Cc5cnc[nH]5)CC4C3)cnn2c1

>  <smiles>  (450) 
[H]c1nc2c(C3([H])C([H])([H])C4([H])C([H])([H])N(C([H])([H])c5c([H])nc([H])n5[H])C([H])([H])C4([H])C3([H])[H])c([H])nn2c([H])c1[H]

$$$$
107:6:2
     RDKit          3D

 43 47  0  0  1  0  0  0  0  0999 V2000
   -1.5328   -7.7999    3.1673 C   0  0  0  0  0  0  0  0  0  0  0  0
   -0.6394   -7.7589    2.0768 C   0  0  0  0  0  0  0  0  0  0  0  0
    0.5211   -7.1067    2.0831 N   0  0  0  0  0  0  0  0  0  0  0  0
    0.8800   -6.4934    3.2282 C   0  0  0  0  0  0  0  0  0  0  0  0
    1.9770   -5.7477    3.6030 C   0  0  0  0  0  0  0  0  0  0  0  0
    3.2128   -5.3898    2.8163 C   0  0  2  0  0  0  0  0  0  0  0  0
    3.7941   -4.0063    3.1499 C   0  0  0  0  0  0  0  0  0  0  0  0
    4.6367   -3.6132    1.9291 C   0  0  2  0  0  0  0  0  0  0  0  0
    4.4997   -2.1628    1.4442 C   0  0  0  0  0  0  0  0  0  0  0  0
    4.5523   -2.3008   -0.0080 N   0  0  0  0  0  0  0  0  0  0  0  0
    4.1100   -1.0850   -0.6919 C   0  0  0  0  0  0  0  0  0  0  0  0
    4.0904   -1.2152   -2.1930 C   0  0  0  0  0  0  0  0  0  0  0  0
    4.5167   -2.2324   -3.0213 C   0  0  0  0  0  0  0  0  0  0  0  0
    4.2162   -1.9088   -4.3289 N   0  0  0  0  0  0  0  0  0  0  0  0
    3.6574   -0.7110   -4.2844 C   0  0  0  0  0  0  0  0  0  0  0  0
    3.5535   -0.2568   -3.0446 N   0  0  0  0  0  0  0  0  0  0  0  0
    3.6679   -3.4372   -0.2635 C   0  0  0  0  0  0  0  0  0  0  0  0
    4.1098   -4.4525    0.7760 C   0  0  2  0  0  0  0  0  0  0  0  0
    2.9774   -5.3255    1.3084 C   0  0  0  0  0  0  0  0  0  0  0  0
    1.6874   -5.3783    4.9414 C   0  0  0  0  0  0  0  0  0  0  0  0
    0.5296   -5.8015    5.3926 N   0  0  0  0  0  0  0  0  0  0  0  0
    0.0209   -6.5083    4.3485 N   0  0  0  0  0  0  0  0  0  0  0  0
   -1.1751   -7.1521    4.3296 C   0  0  0  0  0  0  0  0  0  0  0  0
    3.1527    0.6407   -2.7835 H   0  0  0  0  0  0  0  0  0  0  0  0
   -2.4690   -8.3396    3.1050 H   0  0  0  0  0  0  0  0  0  0  0  0
   -0.9037   -8.2558    1.1461 H   0  0  0  0  0  0  0  0  0  0  0  0
    3.9836   -6.1373    3.0010 H   0  0  0  0  0  0  0  0  0  0  0  0
    2.9825   -3.2910    3.2770 H   0  0  0  0  0  0  0  0  0  0  0  0
    4.3816   -4.0081    4.0669 H   0  0  0  0  0  0  0  0  0  0  0  0
    5.6880   -3.8584    2.0827 H   0  0  0  0  0  0  0  0  0  0  0  0
    3.5349   -1.7430    1.7368 H   0  0  0  0  0  0  0  0  0  0  0  0
    5.2851   -1.5108    1.8288 H   0  0  0  0  0  0  0  0  0  0  0  0
    3.1143   -0.7947   -0.3406 H   0  0  0  0  0  0  0  0  0  0  0  0
    4.7769   -0.2607   -0.4226 H   0  0  0  0  0  0  0  0  0  0  0  0
    4.9832   -3.1753   -2.8004 H   0  0  0  0  0  0  0  0  0  0  0  0
    3.3366   -0.1602   -5.1636 H   0  0  0  0  0  0  0  0  0  0  0  0
    2.6255   -3.1287   -0.1485 H   0  0  0  0  0  0  0  0  0  0  0  0
    3.7714   -3.8940   -1.2429 H   0  0  0  0  0  0  0  0  0  0  0  0
    4.9153   -5.0709    0.3761 H   0  0  0  0  0  0  0  0  0  0  0  0
    2.9447   -6.3086    0.8324 H   0  0  0  0  0  0  0  0  0  0  0  0
    2.0262   -4.8295    1.1125 H   0  0  0  0  0  0  0  0  0  0  0  0
    2.3173   -4.7814    5.5838 H   0  0  0  0  0  0  0  0  0  0  0  0
   -1.7859   -7.1136    5.2237 H   0  0  0  0  0  0  0  0  0  0  0  0
  1 23  2  0
  1  2  1  0
  1 25  1  0
  2  3  2  0
  2 26  1  0
  3  4  1  0
  4 22  1  0
  4  5  2  0
  5  6  1  0
  5 20  1  0
  6 19  1  0
  6  7  1  0
  6 27  1  6
  7  8  1  0
  7 28  1  0
  7 29  1  0
  8 18  1  0
  8  9  1  0
  8 30  1  1
  9 10  1  0
  9 31  1  0
  9 32  1  0
 10 11  1  0
 10 17  1  0
 11 12  1  0
 11 33  1  0
 11 34  1  0
 12 16  1  0
 12 13  2  0
 13 14  1  0
 13 35  1  0
 14 15  2  0
 15 16  1  0
 15 36  1  0
 16 24  1  0
 17 18  1  0
 17 37  1  0
 17 38  1  0
 18 19  1  0
 18 39  1  6
 19 40  1  0
 19 41  1  0
 20 21  2  0
 20 42  1  0
 21 22  1  0
 22 23  1  0
 23 43  1  0
M  END
>  <i_m_ct_stereo_status>  (451) 
1

>  <s_m_source_file>  (451) 
/var/tmp/pbs.5076255.sched01/tmp277fsmq3/144xeprw1xa.sdf

>  <i_m_source_file_index>  (451) 
40

>  <i_lp_mmshare_version>  (451) 
48012

>  <i_f3d_flags>  (451) 
0

>  <s_epik_input>  (451) 
bjFbY0hdW2NIXVtjSF1uKGMxMiluW2NIXWMyW0NASF0oW0NIMl0zKVtDSDJdW0NASF0oW0NASF0zNClbQ0gyXU4oW0NIMl00KVtDSDJdYzVbY0hdbltjSF1bbkhdNQ==

>  <s_epik_cmdline>  (451) 
J2VwaWtfcHl0aG9uJywgJy1waHQnLCAnMi4wJywgJy1waCcsICc3LjAnLCAnLXRuJywgJzgnLCAnLW1hJywgJzIwMCcsICctaW1hZScsICc8aW5maWxlLm1hZT4nLCAnLW9tYWUnLCAnPG91dGZpbGUubWFlPic=

>  <r_lp_tautomer_probability>  (451) 
0.5

>  <r_epik_Ionization_Penalty>  (451) 
1.42637

>  <r_epik_Ionization_Penalty_Charging>  (451) 
0.424887

>  <r_epik_Ionization_Penalty_Neutral>  (451) 
1.00149

>  <r_epik_State_Penalty>  (451) 
2.04471

>  <r_epik_Charging_Adjusted_Penalty>  (451) 
2.4696

>  <i_epik_Tot_Q>  (451) 
0

>  <i_epik_Tot_abs_Q>  (451) 
0

>  <s_lp_Force_Field>  (451) 
OPLS3e

>  <r_lp_Energy>  (451) 
16.2918

>  <b_lp_Chiralities_Consistent>  (451) 
1

>  <s_lp_Variant>  (451) 
107:0-7

>  <s_i_glide_gridfile>  (451) 
pfpi4k_grid

>  <i_i_glide_lignum>  (451) 
40

>  <i_i_glide_rotatable_bonds>  (451) 
3

>  <r_i_docking_score>  (451) 
-4.27985

>  <r_i_glide_ligand_efficiency>  (451) 
-0.18608

>  <r_i_glide_ligand_efficiency_sa>  (451) 
-0.529188

>  <r_i_glide_ligand_efficiency_ln>  (451) 
-1.03491

>  <r_i_glide_gscore>  (451) 
-4.27985

>  <r_i_glide_lipo>  (451) 
-0.198269

>  <r_i_glide_hbond>  (451) 
-0.608

>  <r_i_glide_metal>  (451) 
-0

>  <r_i_glide_rewards>  (451) 
-1.55266

>  <r_i_glide_evdw>  (451) 
-28.7662

>  <r_i_glide_ecoul>  (451) 
-6.67233

>  <r_i_glide_erotb>  (451) 
0.583626

>  <r_i_glide_esite>  (451) 
-0.0653868

>  <r_i_glide_emodel>  (451) 
-45.0465

>  <r_i_glide_energy>  (451) 
-35.4385

>  <r_i_glide_einternal>  (451) 
1.33157

>  <r_i_glide_intrahb_reward>  (451) 
-0

>  <i_i_glide_confnum>  (451) 
2

>  <i_i_glide_posenum>  (451) 
25

>  <r_i_glide_eff_state_penalty>  (451) 
0

>  <ligand_id>  (451) 
107

>  <original_smiles>  (451) 
c1cnc2c(C3CC4CN(Cc5cnc[nH]5)CC4C3)cnn2c1

>  <smiles>  (451) 
[H]c1nc2c(C3([H])C([H])([H])C4([H])C([H])([H])N(C([H])([H])c5c([H])nc([H])n5[H])C([H])([H])C4([H])C3([H])[H])c([H])nn2c([H])c1[H]

$$$$
107:7:0
     RDKit          3D

 43 47  0  0  1  0  0  0  0  0999 V2000
    0.0479    1.7758    3.5421 C   0  0  0  0  0  0  0  0  0  0  0  0
    1.0028    1.8127    2.4882 C   0  0  0  0  0  0  0  0  0  0  0  0
    1.7074    0.7761    2.0714 N   0  0  0  0  0  0  0  0  0  0  0  0
    1.4726   -0.4071    2.6836 C   0  0  0  0  0  0  0  0  0  0  0  0
    1.9887   -1.6569    2.5255 C   0  0  0  0  0  0  0  0  0  0  0  0
    3.0249   -2.1444    1.5406 C   0  0  1  0  0  0  0  0  0  0  0  0
    4.4149   -1.5457    1.7896 C   0  0  0  0  0  0  0  0  0  0  0  0
    5.4204   -2.5141    1.1403 C   0  0  2  0  0  0  0  0  0  0  0  0
    5.8048   -2.1176   -0.2858 C   0  0  0  0  0  0  0  0  0  0  0  0
    5.8735   -3.3867   -0.9906 N   0  0  0  0  0  0  0  0  0  0  0  0
    5.9148   -3.2550   -2.4457 C   0  0  0  0  0  0  0  0  0  0  0  0
    4.6801   -2.6927   -3.0662 C   0  0  0  0  0  0  0  0  0  0  0  0
    4.3226   -1.3921   -3.3591 C   0  0  0  0  0  0  0  0  0  0  0  0
    3.0073   -1.3600   -3.8274 N   0  0  0  0  0  0  0  0  0  0  0  0
    2.5988   -2.6273   -3.7577 C   0  0  0  0  0  0  0  0  0  0  0  0
    3.5555   -3.4519   -3.3604 N   0  0  0  0  0  0  0  0  0  0  0  0
    4.7494   -4.1673   -0.4841 C   0  0  0  0  0  0  0  0  0  0  0  0
    4.7167   -3.8637    1.0049 C   0  0  2  0  0  0  0  0  0  0  0  0
    3.2922   -3.6648    1.5526 C   0  0  0  0  0  0  0  0  0  0  0  0
    1.3155   -2.4316    3.5194 C   0  0  0  0  0  0  0  0  0  0  0  0
    0.4506   -1.7690    4.2456 N   0  0  0  0  0  0  0  0  0  0  0  0
    0.5344   -0.4984    3.7426 N   0  0  0  0  0  0  0  0  0  0  0  0
   -0.1744    0.5719    4.1723 C   0  0  0  0  0  0  0  0  0  0  0  0
    3.4249   -4.4330   -3.1384 H   0  0  0  0  0  0  0  0  0  0  0  0
   -0.4914    2.6703    3.8398 H   0  0  0  0  0  0  0  0  0  0  0  0
    1.1953    2.7603    1.9901 H   0  0  0  0  0  0  0  0  0  0  0  0
    2.7201   -1.8663    0.5283 H   0  0  0  0  0  0  0  0  0  0  0  0
    4.5037   -0.5182    1.4227 H   0  0  0  0  0  0  0  0  0  0  0  0
    4.6150   -1.5255    2.8630 H   0  0  0  0  0  0  0  0  0  0  0  0
    6.3175   -2.6198    1.7506 H   0  0  0  0  0  0  0  0  0  0  0  0
    5.0236   -1.4945   -0.7175 H   0  0  0  0  0  0  0  0  0  0  0  0
    6.7499   -1.5766   -0.3283 H   0  0  0  0  0  0  0  0  0  0  0  0
    6.7797   -2.6449   -2.7140 H   0  0  0  0  0  0  0  0  0  0  0  0
    6.1033   -4.2303   -2.8805 H   0  0  0  0  0  0  0  0  0  0  0  0
    4.8914   -0.4772   -3.2246 H   0  0  0  0  0  0  0  0  0  0  0  0
    1.5945   -2.9460   -3.9705 H   0  0  0  0  0  0  0  0  0  0  0  0
    3.8062   -3.7916   -0.8680 H   0  0  0  0  0  0  0  0  0  0  0  0
    4.8216   -5.2287   -0.7290 H   0  0  0  0  0  0  0  0  0  0  0  0
    5.2423   -4.6466    1.5490 H   0  0  0  0  0  0  0  0  0  0  0  0
    3.3094   -4.0422    2.5729 H   0  0  0  0  0  0  0  0  0  0  0  0
    2.5243   -4.2236    1.0111 H   0  0  0  0  0  0  0  0  0  0  0  0
    1.4433   -3.4851    3.7211 H   0  0  0  0  0  0  0  0  0  0  0  0
   -0.8737    0.4318    4.9908 H   0  0  0  0  0  0  0  0  0  0  0  0
  1 23  2  0
  1  2  1  0
  1 25  1  0
  2  3  2  0
  2 26  1  0
  3  4  1  0
  4 22  1  0
  4  5  2  0
  5  6  1  0
  5 20  1  0
  6 19  1  0
  6  7  1  0
  6 27  1  6
  7  8  1  0
  7 28  1  0
  7 29  1  0
  8 18  1  0
  8  9  1  0
  8 30  1  1
  9 10  1  0
  9 31  1  0
  9 32  1  0
 10 11  1  0
 10 17  1  0
 11 12  1  0
 11 33  1  0
 11 34  1  0
 12 16  1  0
 12 13  2  0
 13 14  1  0
 13 35  1  0
 14 15  2  0
 15 16  1  0
 15 36  1  0
 16 24  1  0
 17 18  1  0
 17 37  1  0
 17 38  1  0
 18 19  1  0
 18 39  1  1
 19 40  1  0
 19 41  1  0
 20 21  2  0
 20 42  1  0
 21 22  1  0
 22 23  1  0
 23 43  1  0
M  END
>  <i_m_ct_stereo_status>  (452) 
1

>  <s_m_source_file>  (452) 
/var/tmp/pbs.5076255.sched01/tmp277fsmq3/144xeprw1xa.sdf

>  <i_m_source_file_index>  (452) 
41

>  <i_lp_mmshare_version>  (452) 
48012

>  <i_f3d_flags>  (452) 
0

>  <s_epik_input>  (452) 
bjFbY0hdW2NIXVtjSF1uKGMxMiluW2NIXWMyW0NASF0oW0NIMl0zKVtDSDJdW0NASF0oW0NASF0zNClbQ0gyXU4oW0NIMl00KVtDSDJdYzVbY0hdbltjSF1bbkhdNQ==

>  <s_epik_cmdline>  (452) 
J2VwaWtfcHl0aG9uJywgJy1waHQnLCAnMi4wJywgJy1waCcsICc3LjAnLCAnLXRuJywgJzgnLCAnLW1hJywgJzIwMCcsICctaW1hZScsICc8aW5maWxlLm1hZT4nLCAnLW9tYWUnLCAnPG91dGZpbGUubWFlPic=

>  <r_lp_tautomer_probability>  (452) 
0.5

>  <r_epik_Ionization_Penalty>  (452) 
1.42637

>  <r_epik_Ionization_Penalty_Charging>  (452) 
0.424887

>  <r_epik_Ionization_Penalty_Neutral>  (452) 
1.00149

>  <r_epik_State_Penalty>  (452) 
2.04471

>  <r_epik_Charging_Adjusted_Penalty>  (452) 
2.4696

>  <i_epik_Tot_Q>  (452) 
0

>  <i_epik_Tot_abs_Q>  (452) 
0

>  <s_lp_Force_Field>  (452) 
OPLS3e

>  <r_lp_Energy>  (452) 
15.691

>  <b_lp_Chiralities_Consistent>  (452) 
1

>  <s_lp_Variant>  (452) 
107:0-8

>  <s_i_glide_gridfile>  (452) 
pfpi4k_grid

>  <i_i_glide_lignum>  (452) 
41

>  <i_i_glide_rotatable_bonds>  (452) 
3

>  <r_i_docking_score>  (452) 
-4.31528

>  <r_i_glide_ligand_efficiency>  (452) 
-0.187621

>  <r_i_glide_ligand_efficiency_sa>  (452) 
-0.533569

>  <r_i_glide_ligand_efficiency_ln>  (452) 
-1.04347

>  <r_i_glide_gscore>  (452) 
-4.31528

>  <r_i_glide_lipo>  (452) 
-0.663134

>  <r_i_glide_hbond>  (452) 
-0.32

>  <r_i_glide_metal>  (452) 
-0

>  <r_i_glide_rewards>  (452) 
-1.60317

>  <r_i_glide_evdw>  (452) 
-31.2016

>  <r_i_glide_ecoul>  (452) 
-4.73981

>  <r_i_glide_erotb>  (452) 
0.583626

>  <r_i_glide_esite>  (452) 
-0.0415514

>  <r_i_glide_emodel>  (452) 
-42.7587

>  <r_i_glide_energy>  (452) 
-35.9414

>  <r_i_glide_einternal>  (452) 
6.18921

>  <r_i_glide_intrahb_reward>  (452) 
-0

>  <i_i_glide_confnum>  (452) 
6

>  <i_i_glide_posenum>  (452) 
19

>  <r_i_glide_eff_state_penalty>  (452) 
0

>  <ligand_id>  (452) 
107

>  <original_smiles>  (452) 
c1cnc2c(C3CC4CN(Cc5cnc[nH]5)CC4C3)cnn2c1

>  <smiles>  (452) 
[H]c1nc2c(C3([H])C([H])([H])C4([H])C([H])([H])N(C([H])([H])c5c([H])nc([H])n5[H])C([H])([H])C4([H])C3([H])[H])c([H])nn2c([H])c1[H]

$$$$
107:7:1
     RDKit          3D

 43 47  0  0  1  0  0  0  0  0999 V2000
   -0.9811   -8.2406    3.8585 C   0  0  0  0  0  0  0  0  0  0  0  0
   -0.7755   -7.8381    2.5183 C   0  0  0  0  0  0  0  0  0  0  0  0
    0.1680   -6.9786    2.1254 N   0  0  0  0  0  0  0  0  0  0  0  0
    1.0119   -6.5354    3.0724 C   0  0  0  0  0  0  0  0  0  0  0  0
    2.0976   -5.6919    3.0384 C   0  0  0  0  0  0  0  0  0  0  0  0
    2.7304   -4.9962    1.8605 C   0  0  1  0  0  0  0  0  0  0  0  0
    2.6791   -3.4626    1.9442 C   0  0  0  0  0  0  0  0  0  0  0  0
    3.8007   -2.9584    1.0255 C   0  0  2  0  0  0  0  0  0  0  0  0
    3.3588   -2.6348   -0.4043 C   0  0  0  0  0  0  0  0  0  0  0  0
    4.4924   -3.0593   -1.2163 N   0  0  0  0  0  0  0  0  0  0  0  0
    4.1448   -3.1521   -2.6299 C   0  0  0  0  0  0  0  0  0  0  0  0
    3.8679   -1.8255   -3.2513 C   0  0  0  0  0  0  0  0  0  0  0  0
    4.3337   -0.5634   -2.9455 C   0  0  0  0  0  0  0  0  0  0  0  0
    3.8169    0.3707   -3.8518 N   0  0  0  0  0  0  0  0  0  0  0  0
    3.0152   -0.3315   -4.6297 C   0  0  0  0  0  0  0  0  0  0  0  0
    3.0109   -1.6332   -4.3212 N   0  0  0  0  0  0  0  0  0  0  0  0
    4.8371   -4.3542   -0.6500 C   0  0  0  0  0  0  0  0  0  0  0  0
    4.7865   -4.1124    0.8615 C   0  0  2  0  0  0  0  0  0  0  0  0
    4.2298   -5.2881    1.6818 C   0  0  0  0  0  0  0  0  0  0  0  0
    2.5107   -5.6166    4.3984 C   0  0  0  0  0  0  0  0  0  0  0  0
    1.7870   -6.3221    5.2370 N   0  0  0  0  0  0  0  0  0  0  0  0
    0.8565   -6.9089    4.4285 N   0  0  0  0  0  0  0  0  0  0  0  0
   -0.1308   -7.7578    4.8289 C   0  0  0  0  0  0  0  0  0  0  0  0
    2.4539   -2.3225   -4.8088 H   0  0  0  0  0  0  0  0  0  0  0  0
   -1.7699   -8.9417    4.1259 H   0  0  0  0  0  0  0  0  0  0  0  0
   -1.4246   -8.2271    1.7375 H   0  0  0  0  0  0  0  0  0  0  0  0
    2.2287   -5.3001    0.9412 H   0  0  0  0  0  0  0  0  0  0  0  0
    1.7079   -3.0471    1.6858 H   0  0  0  0  0  0  0  0  0  0  0  0
    2.8962   -3.1338    2.9605 H   0  0  0  0  0  0  0  0  0  0  0  0
    4.2925   -2.0860    1.4546 H   0  0  0  0  0  0  0  0  0  0  0  0
    2.4693   -3.2068   -0.6759 H   0  0  0  0  0  0  0  0  0  0  0  0
    3.1283   -1.5775   -0.5423 H   0  0  0  0  0  0  0  0  0  0  0  0
    4.9661   -3.6243   -3.1662 H   0  0  0  0  0  0  0  0  0  0  0  0
    3.2819   -3.8020   -2.7631 H   0  0  0  0  0  0  0  0  0  0  0  0
    5.0282   -0.2602   -2.1694 H   0  0  0  0  0  0  0  0  0  0  0  0
    2.4260    0.1089   -5.4202 H   0  0  0  0  0  0  0  0  0  0  0  0
    4.0944   -5.0969   -0.9372 H   0  0  0  0  0  0  0  0  0  0  0  0
    5.8141   -4.6963   -0.9900 H   0  0  0  0  0  0  0  0  0  0  0  0
    5.7751   -3.8208    1.2149 H   0  0  0  0  0  0  0  0  0  0  0  0
    4.7291   -5.2839    2.6512 H   0  0  0  0  0  0  0  0  0  0  0  0
    4.4199   -6.2605    1.2249 H   0  0  0  0  0  0  0  0  0  0  0  0
    3.3398   -5.0392    4.7890 H   0  0  0  0  0  0  0  0  0  0  0  0
   -0.1896   -8.0150    5.8814 H   0  0  0  0  0  0  0  0  0  0  0  0
  1 23  2  0
  1  2  1  0
  1 25  1  0
  2  3  2  0
  2 26  1  0
  3  4  1  0
  4 22  1  0
  4  5  2  0
  5  6  1  0
  5 20  1  0
  6 19  1  0
  6  7  1  0
  6 27  1  6
  7  8  1  0
  7 28  1  0
  7 29  1  0
  8 18  1  0
  8  9  1  0
  8 30  1  1
  9 10  1  0
  9 31  1  0
  9 32  1  0
 10 11  1  0
 10 17  1  0
 11 12  1  0
 11 33  1  0
 11 34  1  0
 12 16  1  0
 12 13  2  0
 13 14  1  0
 13 35  1  0
 14 15  2  0
 15 16  1  0
 15 36  1  0
 16 24  1  0
 17 18  1  0
 17 37  1  0
 17 38  1  0
 18 19  1  0
 18 39  1  1
 19 40  1  0
 19 41  1  0
 20 21  2  0
 20 42  1  0
 21 22  1  0
 22 23  1  0
 23 43  1  0
M  END
>  <i_m_ct_stereo_status>  (453) 
1

>  <s_m_source_file>  (453) 
/var/tmp/pbs.5076255.sched01/tmp277fsmq3/144xeprw1xa.sdf

>  <i_m_source_file_index>  (453) 
41

>  <i_lp_mmshare_version>  (453) 
48012

>  <i_f3d_flags>  (453) 
0

>  <s_epik_input>  (453) 
bjFbY0hdW2NIXVtjSF1uKGMxMiluW2NIXWMyW0NASF0oW0NIMl0zKVtDSDJdW0NASF0oW0NASF0zNClbQ0gyXU4oW0NIMl00KVtDSDJdYzVbY0hdbltjSF1bbkhdNQ==

>  <s_epik_cmdline>  (453) 
J2VwaWtfcHl0aG9uJywgJy1waHQnLCAnMi4wJywgJy1waCcsICc3LjAnLCAnLXRuJywgJzgnLCAnLW1hJywgJzIwMCcsICctaW1hZScsICc8aW5maWxlLm1hZT4nLCAnLW9tYWUnLCAnPG91dGZpbGUubWFlPic=

>  <r_lp_tautomer_probability>  (453) 
0.5

>  <r_epik_Ionization_Penalty>  (453) 
1.42637

>  <r_epik_Ionization_Penalty_Charging>  (453) 
0.424887

>  <r_epik_Ionization_Penalty_Neutral>  (453) 
1.00149

>  <r_epik_State_Penalty>  (453) 
2.04471

>  <r_epik_Charging_Adjusted_Penalty>  (453) 
2.4696

>  <i_epik_Tot_Q>  (453) 
0

>  <i_epik_Tot_abs_Q>  (453) 
0

>  <s_lp_Force_Field>  (453) 
OPLS3e

>  <r_lp_Energy>  (453) 
15.691

>  <b_lp_Chiralities_Consistent>  (453) 
1

>  <s_lp_Variant>  (453) 
107:0-8

>  <s_i_glide_gridfile>  (453) 
pfpi4k_grid

>  <i_i_glide_lignum>  (453) 
41

>  <i_i_glide_rotatable_bonds>  (453) 
3

>  <r_i_docking_score>  (453) 
-3.84887

>  <r_i_glide_ligand_efficiency>  (453) 
-0.167342

>  <r_i_glide_ligand_efficiency_sa>  (453) 
-0.475898

>  <r_i_glide_ligand_efficiency_ln>  (453) 
-0.930691

>  <r_i_glide_gscore>  (453) 
-3.84887

>  <r_i_glide_lipo>  (453) 
-0.318114

>  <r_i_glide_hbond>  (453) 
-0.169114

>  <r_i_glide_metal>  (453) 
-0

>  <r_i_glide_rewards>  (453) 
-1.75649

>  <r_i_glide_evdw>  (453) 
-28.4347

>  <r_i_glide_ecoul>  (453) 
-4.67371

>  <r_i_glide_erotb>  (453) 
0.583626

>  <r_i_glide_esite>  (453) 
-0.0659802

>  <r_i_glide_emodel>  (453) 
-42.2293

>  <r_i_glide_energy>  (453) 
-33.1084

>  <r_i_glide_einternal>  (453) 
0.156953

>  <r_i_glide_intrahb_reward>  (453) 
-0

>  <i_i_glide_confnum>  (453) 
2

>  <i_i_glide_posenum>  (453) 
17

>  <r_i_glide_eff_state_penalty>  (453) 
0

>  <ligand_id>  (453) 
107

>  <original_smiles>  (453) 
c1cnc2c(C3CC4CN(Cc5cnc[nH]5)CC4C3)cnn2c1

>  <smiles>  (453) 
[H]c1nc2c(C3([H])C([H])([H])C4([H])C([H])([H])N(C([H])([H])c5c([H])nc([H])n5[H])C([H])([H])C4([H])C3([H])[H])c([H])nn2c([H])c1[H]

$$$$
107:7:2
     RDKit          3D

 43 47  0  0  1  0  0  0  0  0999 V2000
   -0.9142   -8.9795    3.2675 C   0  0  0  0  0  0  0  0  0  0  0  0
   -0.8653   -7.8596    2.4070 C   0  0  0  0  0  0  0  0  0  0  0  0
    0.2538   -7.2952    1.9646 N   0  0  0  0  0  0  0  0  0  0  0  0
    1.4139   -7.8642    2.3565 C   0  0  0  0  0  0  0  0  0  0  0  0
    2.7358   -7.5699    2.1130 C   0  0  0  0  0  0  0  0  0  0  0  0
    3.3344   -6.4644    1.2760 C   0  0  1  0  0  0  0  0  0  0  0  0
    2.5519   -5.1535    1.3629 C   0  0  0  0  0  0  0  0  0  0  0  0
    3.5278   -4.0458    0.9605 C   0  0  2  0  0  0  0  0  0  0  0  0
    3.4561   -3.6449   -0.5149 C   0  0  0  0  0  0  0  0  0  0  0  0
    4.8475   -3.3831   -0.8594 N   0  0  0  0  0  0  0  0  0  0  0  0
    5.0470   -3.3231   -2.3043 C   0  0  0  0  0  0  0  0  0  0  0  0
    4.4138   -2.1160   -2.9252 C   0  0  0  0  0  0  0  0  0  0  0  0
    4.6099   -0.7735   -2.6857 C   0  0  0  0  0  0  0  0  0  0  0  0
    3.8158   -0.0191   -3.5499 N   0  0  0  0  0  0  0  0  0  0  0  0
    3.1257   -0.9215   -4.2358 C   0  0  0  0  0  0  0  0  0  0  0  0
    3.4443   -2.1780   -3.9188 N   0  0  0  0  0  0  0  0  0  0  0  0
    5.5555   -4.5033   -0.2555 C   0  0  0  0  0  0  0  0  0  0  0  0
    4.9300   -4.6207    1.1374 C   0  0  2  0  0  0  0  0  0  0  0  0
    4.7644   -6.0595    1.6524 C   0  0  0  0  0  0  0  0  0  0  0  0
    3.4409   -8.5608    2.8504 C   0  0  0  0  0  0  0  0  0  0  0  0
    2.6817   -9.3941    3.5216 N   0  0  0  0  0  0  0  0  0  0  0  0
    1.4190   -8.9872    3.2193 N   0  0  0  0  0  0  0  0  0  0  0  0
    0.2660   -9.5478    3.6760 C   0  0  0  0  0  0  0  0  0  0  0  0
    3.0164   -3.0091   -4.3000 H   0  0  0  0  0  0  0  0  0  0  0  0
   -1.8523   -9.4007    3.6081 H   0  0  0  0  0  0  0  0  0  0  0  0
   -1.7943   -7.4041    2.0834 H   0  0  0  0  0  0  0  0  0  0  0  0
    3.3649   -6.7667    0.2314 H   0  0  0  0  0  0  0  0  0  0  0  0
    1.6517   -5.1730    0.7488 H   0  0  0  0  0  0  0  0  0  0  0  0
    2.2502   -4.9840    2.3977 H   0  0  0  0  0  0  0  0  0  0  0  0
    3.3869   -3.1641    1.5844 H   0  0  0  0  0  0  0  0  0  0  0  0
    3.0756   -4.4721   -1.1154 H   0  0  0  0  0  0  0  0  0  0  0  0
    2.8164   -2.7784   -0.6875 H   0  0  0  0  0  0  0  0  0  0  0  0
    6.1180   -3.3012   -2.5105 H   0  0  0  0  0  0  0  0  0  0  0  0
    4.6616   -4.2240   -2.7776 H   0  0  0  0  0  0  0  0  0  0  0  0
    5.2817   -0.2904   -1.9835 H   0  0  0  0  0  0  0  0  0  0  0  0
    2.3760   -0.6461   -4.9667 H   0  0  0  0  0  0  0  0  0  0  0  0
    5.3821   -5.4152   -0.8299 H   0  0  0  0  0  0  0  0  0  0  0  0
    6.6295   -4.3212   -0.2131 H   0  0  0  0  0  0  0  0  0  0  0  0
    5.4982   -4.0214    1.8473 H   0  0  0  0  0  0  0  0  0  0  0  0
    4.8684   -6.0467    2.7362 H   0  0  0  0  0  0  0  0  0  0  0  0
    5.5152   -6.7462    1.2583 H   0  0  0  0  0  0  0  0  0  0  0  0
    4.5137   -8.6659    2.9219 H   0  0  0  0  0  0  0  0  0  0  0  0
    0.3297  -10.4075    4.3420 H   0  0  0  0  0  0  0  0  0  0  0  0
  1 23  2  0
  1  2  1  0
  1 25  1  0
  2  3  2  0
  2 26  1  0
  3  4  1  0
  4 22  1  0
  4  5  2  0
  5  6  1  0
  5 20  1  0
  6 19  1  0
  6  7  1  0
  6 27  1  6
  7  8  1  0
  7 28  1  0
  7 29  1  0
  8 18  1  0
  8  9  1  0
  8 30  1  1
  9 10  1  0
  9 31  1  0
  9 32  1  0
 10 11  1  0
 10 17  1  0
 11 12  1  0
 11 33  1  0
 11 34  1  0
 12 16  1  0
 12 13  2  0
 13 14  1  0
 13 35  1  0
 14 15  2  0
 15 16  1  0
 15 36  1  0
 16 24  1  0
 17 18  1  0
 17 37  1  0
 17 38  1  0
 18 19  1  0
 18 39  1  1
 19 40  1  0
 19 41  1  0
 20 21  2  0
 20 42  1  0
 21 22  1  0
 22 23  1  0
 23 43  1  0
M  END
>  <i_m_ct_stereo_status>  (454) 
1

>  <s_m_source_file>  (454) 
/var/tmp/pbs.5076255.sched01/tmp277fsmq3/144xeprw1xa.sdf

>  <i_m_source_file_index>  (454) 
41

>  <i_lp_mmshare_version>  (454) 
48012

>  <i_f3d_flags>  (454) 
0

>  <s_epik_input>  (454) 
bjFbY0hdW2NIXVtjSF1uKGMxMiluW2NIXWMyW0NASF0oW0NIMl0zKVtDSDJdW0NASF0oW0NASF0zNClbQ0gyXU4oW0NIMl00KVtDSDJdYzVbY0hdbltjSF1bbkhdNQ==

>  <s_epik_cmdline>  (454) 
J2VwaWtfcHl0aG9uJywgJy1waHQnLCAnMi4wJywgJy1waCcsICc3LjAnLCAnLXRuJywgJzgnLCAnLW1hJywgJzIwMCcsICctaW1hZScsICc8aW5maWxlLm1hZT4nLCAnLW9tYWUnLCAnPG91dGZpbGUubWFlPic=

>  <r_lp_tautomer_probability>  (454) 
0.5

>  <r_epik_Ionization_Penalty>  (454) 
1.42637

>  <r_epik_Ionization_Penalty_Charging>  (454) 
0.424887

>  <r_epik_Ionization_Penalty_Neutral>  (454) 
1.00149

>  <r_epik_State_Penalty>  (454) 
2.04471

>  <r_epik_Charging_Adjusted_Penalty>  (454) 
2.4696

>  <i_epik_Tot_Q>  (454) 
0

>  <i_epik_Tot_abs_Q>  (454) 
0

>  <s_lp_Force_Field>  (454) 
OPLS3e

>  <r_lp_Energy>  (454) 
15.691

>  <b_lp_Chiralities_Consistent>  (454) 
1

>  <s_lp_Variant>  (454) 
107:0-8

>  <s_i_glide_gridfile>  (454) 
pfpi4k_grid

>  <i_i_glide_lignum>  (454) 
41

>  <i_i_glide_rotatable_bonds>  (454) 
3

>  <r_i_docking_score>  (454) 
-3.32783

>  <r_i_glide_ligand_efficiency>  (454) 
-0.144688

>  <r_i_glide_ligand_efficiency_sa>  (454) 
-0.411474

>  <r_i_glide_ligand_efficiency_ln>  (454) 
-0.804699

>  <r_i_glide_gscore>  (454) 
-3.32783

>  <r_i_glide_lipo>  (454) 
-0.433368

>  <r_i_glide_hbond>  (454) 
0

>  <r_i_glide_metal>  (454) 
-0

>  <r_i_glide_rewards>  (454) 
-1.48527

>  <r_i_glide_evdw>  (454) 
-33.4685

>  <r_i_glide_ecoul>  (454) 
-1.90684

>  <r_i_glide_erotb>  (454) 
0.583626

>  <r_i_glide_esite>  (454) 
-0.0333607

>  <r_i_glide_emodel>  (454) 
-43.1447

>  <r_i_glide_energy>  (454) 
-35.3754

>  <r_i_glide_einternal>  (454) 
0.357532

>  <r_i_glide_intrahb_reward>  (454) 
-0

>  <i_i_glide_confnum>  (454) 
4

>  <i_i_glide_posenum>  (454) 
34

>  <r_i_glide_eff_state_penalty>  (454) 
0

>  <ligand_id>  (454) 
107

>  <original_smiles>  (454) 
c1cnc2c(C3CC4CN(Cc5cnc[nH]5)CC4C3)cnn2c1

>  <smiles>  (454) 
[H]c1nc2c(C3([H])C([H])([H])C4([H])C([H])([H])N(C([H])([H])c5c([H])nc([H])n5[H])C([H])([H])C4([H])C3([H])[H])c([H])nn2c([H])c1[H]

$$$$
109:0:0
     RDKit          3D

 67 71  0  0  1  0  0  0  0  0999 V2000
    2.6180   -4.1915    6.7876 C   0  0  0  0  0  0  0  0  0  0  0  0
    3.3983   -5.3951    6.2163 C   0  0  2  0  0  0  0  0  0  0  0  0
    4.4920   -4.8433    5.1803 C   0  0  1  0  0  0  0  0  0  0  0  0
    5.6726   -5.6241    5.1575 O   0  0  0  0  0  0  0  0  0  0  0  0
    4.1736   -4.3926    3.7067 C   0  0  0  0  0  0  0  0  0  0  0  0
    2.9879   -5.0137    2.9306 C   0  0  0  0  0  0  0  0  0  0  0  0
    3.1551   -6.1193    1.8372 C   0  0  1  0  0  0  0  0  0  0  0  0
    3.4582   -5.4342    0.4980 C   0  0  0  0  0  0  0  0  0  0  0  0
    4.1436   -7.3132    2.0835 C   0  0  0  0  0  0  0  0  0  0  0  0
    5.3625   -7.4465    1.9878 O   0  0  0  0  0  0  0  0  0  0  0  0
    2.9693   -8.3117    2.4088 C   0  0  2  0  0  0  0  0  0  0  0  0
    3.1063   -9.5661    1.5126 C   0  0  0  0  0  0  0  0  0  0  0  0
    2.0579   -7.2209    1.7899 C   0  0  1  0  0  0  0  0  0  0  0  0
    0.6718   -7.0639    2.3803 C   0  0  1  0  0  0  0  0  0  0  0  0
   -0.1959   -6.6727    1.3407 O   0  0  0  0  0  0  0  0  0  0  0  0
    0.2138   -8.3814    3.0160 C   0  0  0  0  0  0  0  0  0  0  0  0
    1.1484   -8.9449    4.1341 C   0  0  2  0  0  0  0  0  0  0  0  0
    0.5659   -9.0867    5.5850 C   0  0  0  0  0  0  0  0  0  0  0  0
    0.5805   -7.9237    6.6268 C   0  0  1  0  0  0  0  0  0  0  0  0
    1.9917   -7.5386    7.0627 C   0  0  0  0  0  0  0  0  0  0  0  0
    2.4805   -6.6717    5.8871 C   0  0  1  0  0  0  0  0  0  0  0  0
    1.2155   -6.1708    5.3810 O   0  0  0  0  0  0  0  0  0  0  0  0
    0.0617   -6.5718    6.1334 C   0  0  0  0  0  0  0  0  0  0  0  0
   -1.2128   -6.6049    5.2589 C   0  0  0  0  0  0  0  0  0  0  0  0
   -0.2614   -5.5919    7.2916 C   0  0  0  0  0  0  0  0  0  0  0  0
    3.2933   -7.6318    4.9540 C   0  0  1  0  0  0  0  0  0  0  0  0
    4.4227   -8.1140    5.6755 O   0  0  0  0  0  0  0  0  0  0  0  0
    2.6968   -8.7105    3.9457 C   0  0  2  0  0  0  0  0  0  0  0  0
    3.3785  -10.0879    4.2824 C   0  0  0  0  0  0  0  0  0  0  0  0
    1.8495   -3.8347    6.1000 H   0  0  0  0  0  0  0  0  0  0  0  0
    3.2758   -3.3484    6.9921 H   0  0  0  0  0  0  0  0  0  0  0  0
    2.1603   -4.4293    7.7438 H   0  0  0  0  0  0  0  0  0  0  0  0
    4.0087   -5.7321    7.0538 H   0  0  0  0  0  0  0  0  0  0  0  0
    4.8803   -3.9366    5.6425 H   0  0  0  0  0  0  0  0  0  0  0  0
    5.4503   -6.5029    4.8782 H   0  0  0  0  0  0  0  0  0  0  0  0
    3.8985   -3.3399    3.7986 H   0  0  0  0  0  0  0  0  0  0  0  0
    5.0763   -4.3695    3.0924 H   0  0  0  0  0  0  0  0  0  0  0  0
    2.2977   -5.3088    3.6836 H   0  0  0  0  0  0  0  0  0  0  0  0
    2.4625   -4.1774    2.4640 H   0  0  0  0  0  0  0  0  0  0  0  0
    2.5743   -4.9119    0.1197 H   0  0  0  0  0  0  0  0  0  0  0  0
    3.7584   -6.1408   -0.2803 H   0  0  0  0  0  0  0  0  0  0  0  0
    4.2539   -4.6953    0.5905 H   0  0  0  0  0  0  0  0  0  0  0  0
    2.2096  -10.1916    1.5410 H   0  0  0  0  0  0  0  0  0  0  0  0
    3.9521  -10.2006    1.7730 H   0  0  0  0  0  0  0  0  0  0  0  0
    3.2656   -9.3093    0.4687 H   0  0  0  0  0  0  0  0  0  0  0  0
    1.9250   -7.4871    0.7436 H   0  0  0  0  0  0  0  0  0  0  0  0
    0.6166   -6.2731    3.1071 H   0  0  0  0  0  0  0  0  0  0  0  0
   -0.3097   -7.4270    0.7726 H   0  0  0  0  0  0  0  0  0  0  0  0
   -0.8143   -8.3165    3.3431 H   0  0  0  0  0  0  0  0  0  0  0  0
    0.1582   -9.1174    2.2151 H   0  0  0  0  0  0  0  0  0  0  0  0
    1.0414   -9.9923    3.8556 H   0  0  0  0  0  0  0  0  0  0  0  0
   -0.4547   -9.4522    5.4900 H   0  0  0  0  0  0  0  0  0  0  0  0
    1.0683   -9.9315    6.0544 H   0  0  0  0  0  0  0  0  0  0  0  0
    0.0034   -8.2517    7.4950 H   0  0  0  0  0  0  0  0  0  0  0  0
    1.9942   -6.9712    7.9875 H   0  0  0  0  0  0  0  0  0  0  0  0
    2.5900   -8.4240    7.2782 H   0  0  0  0  0  0  0  0  0  0  0  0
   -2.0085   -5.9862    5.6715 H   0  0  0  0  0  0  0  0  0  0  0  0
   -1.6354   -7.6005    5.1728 H   0  0  0  0  0  0  0  0  0  0  0  0
   -1.0688   -6.2074    4.2649 H   0  0  0  0  0  0  0  0  0  0  0  0
   -1.2185   -5.8362    7.7522 H   0  0  0  0  0  0  0  0  0  0  0  0
   -0.3314   -4.5683    6.9221 H   0  0  0  0  0  0  0  0  0  0  0  0
    0.4457   -5.6021    8.1126 H   0  0  0  0  0  0  0  0  0  0  0  0
    3.7887   -6.9315    4.3544 H   0  0  0  0  0  0  0  0  0  0  0  0
    4.1268   -8.8120    6.2383 H   0  0  0  0  0  0  0  0  0  0  0  0
    3.2435  -10.3661    5.3299 H   0  0  0  0  0  0  0  0  0  0  0  0
    4.4529  -10.0782    4.0837 H   0  0  0  0  0  0  0  0  0  0  0  0
    2.9740  -10.9264    3.7133 H   0  0  0  0  0  0  0  0  0  0  0  0
  1  2  1  0
  1 30  1  0
  1 31  1  0
  1 32  1  0
  2 21  1  0
  2  3  1  0
  2 33  1  1
  3  4  1  0
  3  5  1  0
  3 34  1  1
  4 35  1  0
  5  6  1  0
  5 36  1  0
  5 37  1  0
  6  7  1  0
  6 38  1  0
  6 39  1  0
  7 13  1  0
  7  8  1  6
  7  9  1  0
  8 40  1  0
  8 41  1  0
  8 42  1  0
  9 10  2  0
  9 11  1  0
 11 28  1  0
 11 12  1  6
 11 13  1  0
 12 43  1  0
 12 44  1  0
 12 45  1  0
 13 14  1  0
 13 46  1  6
 14 15  1  0
 14 16  1  0
 14 47  1  1
 15 48  1  0
 16 17  1  0
 16 49  1  0
 16 50  1  0
 17 28  1  0
 17 18  1  0
 17 51  1  6
 18 19  1  0
 18 52  1  0
 18 53  1  0
 19 23  1  0
 19 20  1  0
 19 54  1  1
 20 21  1  0
 20 55  1  0
 20 56  1  0
 21 22  1  6
 21 26  1  0
 22 23  1  0
 23 24  1  0
 23 25  1  0
 24 57  1  0
 24 58  1  0
 24 59  1  0
 25 60  1  0
 25 61  1  0
 25 62  1  0
 26 27  1  0
 26 28  1  0
 26 63  1  6
 27 64  1  0
 28 29  1  1
 29 65  1  0
 29 66  1  0
 29 67  1  0
M  END
>  <i_m_ct_stereo_status>  (455) 
1

>  <s_m_source_file>  (455) 
/var/tmp/pbs.5076255.sched01/tmp277fsmq3/144xeprw1xa.sdf

>  <i_m_source_file_index>  (455) 
44

>  <i_lp_mmshare_version>  (455) 
48012

>  <i_f3d_flags>  (455) 
0

>  <s_epik_input>  (455) 
W0NIM11bQ0BASF0oW0NAQF0xMjMpW0NAQEhdKFtPSF0pW0NIMl1bQ0gyXVtDQF00KFtDSDNdKVtDQEhdNVtDQF0oQzQ9TykoW0NIM10pW0NAQF0oW0NIM10pKFtDQEBIXTNbT0hdKVtDQEhdKFtDSDJdW0NAQEhdNVtPSF0pW0NIMl1bQ0BASF0oW0NIMl0xKUMoTzIpKFtDSDNdKVtDSDNd

>  <s_epik_cmdline>  (455) 
J2VwaWtfcHl0aG9uJywgJy1waHQnLCAnMi4wJywgJy1waCcsICc3LjAnLCAnLXRuJywgJzgnLCAnLW1hJywgJzIwMCcsICctaW1hZScsICc8aW5maWxlLm1hZT4nLCAnLW9tYWUnLCAnPG91dGZpbGUubWFlPic=

>  <r_lp_tautomer_probability>  (455) 
1

>  <r_epik_Ionization_Penalty>  (455) 
6.90578e-07

>  <r_epik_Ionization_Penalty_Charging>  (455) 
0

>  <r_epik_Ionization_Penalty_Neutral>  (455) 
6.90578e-07

>  <r_epik_State_Penalty>  (455) 
-0

>  <r_epik_Charging_Adjusted_Penalty>  (455) 
0

>  <i_epik_Tot_Q>  (455) 
0

>  <i_epik_Tot_abs_Q>  (455) 
0

>  <s_lp_Force_Field>  (455) 
OPLS3e

>  <r_lp_Energy>  (455) 
116.898

>  <b_lp_Chiralities_Consistent>  (455) 
1

>  <s_lp_Variant>  (455) 
109:0-1

>  <s_i_glide_gridfile>  (455) 
pfpi4k_grid

>  <i_i_glide_lignum>  (455) 
44

>  <i_i_glide_rotatable_bonds>  (455) 
3

>  <r_i_docking_score>  (455) 
-2.57962

>  <r_i_glide_ligand_efficiency>  (455) 
-0.0889525

>  <r_i_glide_ligand_efficiency_sa>  (455) 
-0.27329

>  <r_i_glide_ligand_efficiency_ln>  (455) 
-0.590668

>  <r_i_glide_gscore>  (455) 
-2.57962

>  <r_i_glide_lipo>  (455) 
-0.0545183

>  <r_i_glide_hbond>  (455) 
-0.218277

>  <r_i_glide_metal>  (455) 
-0

>  <r_i_glide_rewards>  (455) 
-0.671774

>  <r_i_glide_evdw>  (455) 
-16.6697

>  <r_i_glide_ecoul>  (455) 
-5.34378

>  <r_i_glide_erotb>  (455) 
0

>  <r_i_glide_esite>  (455) 
0

>  <r_i_glide_emodel>  (455) 
-25.6027

>  <r_i_glide_energy>  (455) 
-22.0135

>  <r_i_glide_einternal>  (455) 
0.0947804

>  <r_i_glide_intrahb_reward>  (455) 
-0

>  <i_i_glide_confnum>  (455) 
1

>  <i_i_glide_posenum>  (455) 
35

>  <r_i_glide_eff_state_penalty>  (455) 
0

>  <ligand_id>  (455) 
109

>  <original_smiles>  (455) 
CC1C(O)CCC2(C)C(=O)C3(C)C2C(O)CC2CC4CC1(OC4(C)C)C(O)C23C

>  <smiles>  (455) 
[H]OC1([H])C([H])([H])C([H])([H])C2(C([H])([H])[H])C(=O)C3(C([H])([H])[H])C2([H])C([H])(O[H])C([H])([H])C2([H])C([H])([H])C4([H])C([H])([H])C(OC4(C([H])([H])[H])C([H])([H])[H])(C([H])(O[H])C23C([H])([H])[H])C1([H])C([H])([H])[H]

$$$$
110:0:0
     RDKit          3D

 74 79  0  0  1  0  0  0  0  0999 V2000
    4.8810   -3.8568   -1.5118 C   0  0  0  0  0  0  0  0  0  0  0  0
    5.3658   -3.2159   -0.1873 C   0  0  0  0  0  0  0  0  0  0  0  0
    6.8432   -3.6465    0.0296 C   0  0  0  0  0  0  0  0  0  0  0  0
    5.4093   -1.7035   -0.4540 C   0  0  0  0  0  0  0  0  0  0  0  0
    5.8153   -0.8870    0.7735 C   0  0  0  0  0  0  0  0  0  0  0  0
    5.3490   -1.4770    2.1205 C   0  0  1  0  0  0  0  0  0  0  0  0
    5.1927   -0.3728    2.9938 O   0  0  0  0  0  0  0  0  0  0  0  0
    4.0775   -2.4125    2.0736 C   0  0  1  0  0  0  0  0  0  0  0  0
    2.9515   -1.5017    1.4959 C   0  0  0  0  0  0  0  0  0  0  0  0
    4.3766   -3.6097    1.0139 C   0  0  2  0  0  0  0  0  0  0  0  0
    4.6734   -5.1097    1.4501 C   0  0  1  0  0  0  0  0  0  0  0  0
    5.8326   -5.2379    2.2353 O   0  0  0  0  0  0  0  0  0  0  0  0
    3.5243   -6.1083    1.8480 C   0  0  2  0  0  0  0  0  0  0  0  0
    2.6981   -5.7122    3.0948 C   0  0  2  0  0  0  0  0  0  0  0  0
    1.8177   -4.4733    2.9222 C   0  0  0  0  0  0  0  0  0  0  0  0
    2.1358   -3.3365    3.8854 C   0  0  2  0  0  0  0  0  0  0  0  0
    1.0451   -2.2345    3.7327 C   0  0  0  0  0  0  0  0  0  0  0  0
    3.6211   -2.8059    3.5859 C   0  0  1  0  0  0  0  0  0  0  0  0
    4.7691   -3.4876    4.4032 C   0  0  1  0  0  0  0  0  0  0  0  0
    5.2163   -2.6373    5.4551 O   0  0  0  0  0  0  0  0  0  0  0  0
    4.5587   -4.9292    4.9487 C   0  0  1  0  0  0  0  0  0  0  0  0
    5.8338   -5.5124    5.0758 O   0  0  0  0  0  0  0  0  0  0  0  0
    3.8921   -4.7963    6.2281 O   0  0  0  0  0  0  0  0  0  0  0  0
    2.6519   -5.2053    5.6297 C   0  0  1  0  0  0  0  0  0  0  0  0
    1.8533   -6.0702    6.3981 O   0  0  0  0  0  0  0  0  0  0  0  0
    1.8631   -3.9201    5.3131 C   0  0  1  0  0  0  0  0  0  0  0  0
    1.9990   -2.9332    6.3210 O   0  0  0  0  0  0  0  0  0  0  0  0
    3.4136   -5.8762    4.4601 C   0  0  1  0  0  0  0  0  0  0  0  0
    3.7147   -7.3810    4.5775 C   0  0  0  0  0  0  0  0  0  0  0  0
    4.5184   -7.8948    3.3801 C   0  0  0  0  0  0  0  0  0  0  0  0
    5.5765   -8.4986    3.5468 O   0  0  0  0  0  0  0  0  0  0  0  0
    3.9421   -7.6304    1.9687 C   0  0  0  0  0  0  0  0  0  0  0  0
    2.7295   -8.5765    1.8028 C   0  0  0  0  0  0  0  0  0  0  0  0
    4.9518   -8.0656    0.8898 C   0  0  0  0  0  0  0  0  0  0  0  0
    5.5155   -3.5606   -2.3460 H   0  0  0  0  0  0  0  0  0  0  0  0
    3.8645   -3.5438   -1.7485 H   0  0  0  0  0  0  0  0  0  0  0  0
    4.8882   -4.9460   -1.4896 H   0  0  0  0  0  0  0  0  0  0  0  0
    7.2242   -3.3375    1.0022 H   0  0  0  0  0  0  0  0  0  0  0  0
    7.5018   -3.2083   -0.7244 H   0  0  0  0  0  0  0  0  0  0  0  0
    6.9799   -4.7241   -0.0433 H   0  0  0  0  0  0  0  0  0  0  0  0
    6.1037   -1.4861   -1.2663 H   0  0  0  0  0  0  0  0  0  0  0  0
    4.4517   -1.3828   -0.8598 H   0  0  0  0  0  0  0  0  0  0  0  0
    6.8971   -0.8135    0.8108 H   0  0  0  0  0  0  0  0  0  0  0  0
    5.4610    0.1301    0.6372 H   0  0  0  0  0  0  0  0  0  0  0  0
    6.1996   -2.0410    2.4978 H   0  0  0  0  0  0  0  0  0  0  0  0
    4.4469    0.1334    2.7022 H   0  0  0  0  0  0  0  0  0  0  0  0
    2.1195   -2.0685    1.0917 H   0  0  0  0  0  0  0  0  0  0  0  0
    3.2462   -0.8451    0.6920 H   0  0  0  0  0  0  0  0  0  0  0  0
    2.5771   -0.8034    2.2386 H   0  0  0  0  0  0  0  0  0  0  0  0
    3.4264   -3.7277    0.5019 H   0  0  0  0  0  0  0  0  0  0  0  0
    5.0055   -5.5659    0.5241 H   0  0  0  0  0  0  0  0  0  0  0  0
    6.0717   -6.1514    2.3040 H   0  0  0  0  0  0  0  0  0  0  0  0
    2.8291   -6.0673    1.0086 H   0  0  0  0  0  0  0  0  0  0  0  0
    1.9143   -6.4641    3.1168 H   0  0  0  0  0  0  0  0  0  0  0  0
    1.8542   -4.1227    1.8954 H   0  0  0  0  0  0  0  0  0  0  0  0
    0.7781   -4.7682    3.0815 H   0  0  0  0  0  0  0  0  0  0  0  0
    1.3530   -1.2968    4.1996 H   0  0  0  0  0  0  0  0  0  0  0  0
    0.1101   -2.5278    4.2144 H   0  0  0  0  0  0  0  0  0  0  0  0
    0.7596   -2.0397    2.7022 H   0  0  0  0  0  0  0  0  0  0  0  0
    3.5463   -1.8315    4.0687 H   0  0  0  0  0  0  0  0  0  0  0  0
    5.6623   -3.5057    3.7970 H   0  0  0  0  0  0  0  0  0  0  0  0
    4.6101   -2.7140    6.1744 H   0  0  0  0  0  0  0  0  0  0  0  0
    5.7338   -6.3006    5.5934 H   0  0  0  0  0  0  0  0  0  0  0  0
    2.4068   -6.7925    6.6617 H   0  0  0  0  0  0  0  0  0  0  0  0
    0.8018   -4.1943    5.3452 H   0  0  0  0  0  0  0  0  0  0  0  0
    2.9190   -2.7643    6.4290 H   0  0  0  0  0  0  0  0  0  0  0  0
    4.2790   -7.5950    5.4747 H   0  0  0  0  0  0  0  0  0  0  0  0
    2.8026   -7.9634    4.6569 H   0  0  0  0  0  0  0  0  0  0  0  0
    2.1632   -8.3554    0.8858 H   0  0  0  0  0  0  0  0  0  0  0  0
    2.0071   -8.5212    2.6049 H   0  0  0  0  0  0  0  0  0  0  0  0
    3.0349   -9.6154    1.7318 H   0  0  0  0  0  0  0  0  0  0  0  0
    4.5846   -7.8226   -0.1196 H   0  0  0  0  0  0  0  0  0  0  0  0
    5.1293   -9.1390    0.9034 H   0  0  0  0  0  0  0  0  0  0  0  0
    5.9231   -7.5956    0.9999 H   0  0  0  0  0  0  0  0  0  0  0  0
  1  2  1  0
  1 35  1  0
  1 36  1  0
  1 37  1  0
  2 10  1  0
  2  3  1  0
  2  4  1  0
  3 38  1  0
  3 39  1  0
  3 40  1  0
  4  5  1  0
  4 41  1  0
  4 42  1  0
  5  6  1  0
  5 43  1  0
  5 44  1  0
  6  7  1  0
  6  8  1  0
  6 45  1  1
  7 46  1  0
  8 18  1  0
  8  9  1  6
  8 10  1  0
  9 47  1  0
  9 48  1  0
  9 49  1  0
 10 11  1  0
 10 50  1  6
 11 12  1  0
 11 13  1  0
 11 51  1  6
 12 52  1  0
 13 32  1  0
 13 14  1  0
 13 53  1  6
 14 28  1  0
 14 15  1  0
 14 54  1  1
 15 16  1  0
 15 55  1  0
 15 56  1  0
 16 26  1  0
 16 17  1  6
 16 18  1  0
 17 57  1  0
 17 58  1  0
 17 59  1  0
 18 19  1  0
 18 60  1  1
 19 20  1  0
 19 21  1  0
 19 61  1  6
 20 62  1  0
 21 28  1  0
 21 22  1  1
 21 23  1  0
 22 63  1  0
 23 24  1  0
 24 25  1  1
 24 26  1  0
 24 28  1  0
 25 64  1  0
 26 27  1  0
 26 65  1  6
 27 66  1  0
 28 29  1  1
 29 30  1  0
 29 67  1  0
 29 68  1  0
 30 31  2  0
 30 32  1  0
 32 33  1  0
 32 34  1  0
 33 69  1  0
 33 70  1  0
 33 71  1  0
 34 72  1  0
 34 73  1  0
 34 74  1  0
M  END
>  <i_m_ct_stereo_status>  (456) 
1

>  <s_m_source_file>  (456) 
/var/tmp/pbs.5076255.sched01/tmp277fsmq3/144xeprw1xa.sdf

>  <i_m_source_file_index>  (456) 
45

>  <i_lp_mmshare_version>  (456) 
48012

>  <i_f3d_flags>  (456) 
0

>  <s_epik_input>  (456) 
W0NIMl0xQyg9TylDKFtDSDNdKShbQ0gzXSlbQ0BASF0oW0NASF0yW0NAQF0xMzQpW0NASF0oW09IXSlbQ0BIXTVbQ0BdKFtDSDNdKShbQ0BIXShbT0hdKVtDSDJdW0NIMl1DNShbQ0gzXSlbQ0gzXSlbQ0BIXTZbQ0BdKFtDSDJdMikoW0NIM10pW0NASF0oW09IXSlbQ0BdNChbT0hdKU9bQ0BdMyhbT0hdKVtDQEBIXTZbT0hd

>  <s_epik_cmdline>  (456) 
J2VwaWtfcHl0aG9uJywgJy1waHQnLCAnMi4wJywgJy1waCcsICc3LjAnLCAnLXRuJywgJzgnLCAnLW1hJywgJzIwMCcsICctaW1hZScsICc8aW5maWxlLm1hZT4nLCAnLW9tYWUnLCAnPG91dGZpbGUubWFlPic=

>  <r_lp_tautomer_probability>  (456) 
1

>  <r_epik_Ionization_Penalty>  (456) 
1.63885e-05

>  <r_epik_Ionization_Penalty_Charging>  (456) 
0

>  <r_epik_Ionization_Penalty_Neutral>  (456) 
1.63885e-05

>  <r_epik_State_Penalty>  (456) 
-0

>  <r_epik_Charging_Adjusted_Penalty>  (456) 
0

>  <i_epik_Tot_Q>  (456) 
0

>  <i_epik_Tot_abs_Q>  (456) 
0

>  <s_lp_Force_Field>  (456) 
OPLS3e

>  <r_lp_Energy>  (456) 
122.982

>  <b_lp_Chiralities_Consistent>  (456) 
1

>  <s_lp_Variant>  (456) 
110:0-1

>  <s_i_glide_gridfile>  (456) 
pfpi4k_grid

>  <i_i_glide_lignum>  (456) 
45

>  <i_i_glide_rotatable_bonds>  (456) 
6

>  <r_i_docking_score>  (456) 
-2.53739

>  <r_i_glide_ligand_efficiency>  (456) 
-0.074629

>  <r_i_glide_ligand_efficiency_sa>  (456) 
-0.241769

>  <r_i_glide_ligand_efficiency_ln>  (456) 
-0.56058

>  <r_i_glide_gscore>  (456) 
-2.53739

>  <r_i_glide_lipo>  (456) 
-0.564883

>  <r_i_glide_hbond>  (456) 
0

>  <r_i_glide_metal>  (456) 
-0

>  <r_i_glide_rewards>  (456) 
-0.13243

>  <r_i_glide_evdw>  (456) 
-28.8915

>  <r_i_glide_ecoul>  (456) 
-2.63666

>  <r_i_glide_erotb>  (456) 
0

>  <r_i_glide_esite>  (456) 
0

>  <r_i_glide_emodel>  (456) 
-35.6065

>  <r_i_glide_energy>  (456) 
-31.5282

>  <r_i_glide_einternal>  (456) 
0.362482

>  <r_i_glide_intrahb_reward>  (456) 
-0

>  <i_i_glide_confnum>  (456) 
2

>  <i_i_glide_posenum>  (456) 
31

>  <r_i_glide_eff_state_penalty>  (456) 
0

>  <ligand_id>  (456) 
110

>  <original_smiles>  (456) 
CC1(C)CCC(O)C2(C)C1C(O)C1C3CC4(C)C2C(O)C2(O)OC(O)(C4O)C32CC(=O)C1(C)C

>  <smiles>  (456) 
[H]OC1([H])C2([H])C3([H])C([H])([H])C4(C([H])([H])[H])C([H])(O[H])C5(O[H])OC(O[H])(C([H])(O[H])C4([H])C4(C([H])([H])[H])C([H])(O[H])C([H])([H])C([H])([H])C(C([H])([H])[H])(C([H])([H])[H])C14[H])C53C([H])([H])C(=O)C2(C([H])([H])[H])C([H])([H])[H]

$$$$
110:0:1
     RDKit          3D

 74 79  0  0  1  0  0  0  0  0999 V2000
    2.7948   -3.6087   -0.9039 C   0  0  0  0  0  0  0  0  0  0  0  0
    3.7484   -3.0731    0.1890 C   0  0  0  0  0  0  0  0  0  0  0  0
    5.0832   -3.8665    0.0835 C   0  0  0  0  0  0  0  0  0  0  0  0
    4.0855   -1.6361   -0.2361 C   0  0  0  0  0  0  0  0  0  0  0  0
    4.9767   -0.9087    0.7743 C   0  0  0  0  0  0  0  0  0  0  0  0
    4.7363   -1.3131    2.2480 C   0  0  1  0  0  0  0  0  0  0  0  0
    5.0774   -0.1855    3.0269 O   0  0  0  0  0  0  0  0  0  0  0  0
    3.3074   -1.8869    2.5945 C   0  0  1  0  0  0  0  0  0  0  0  0
    2.3177   -0.7400    2.2073 C   0  0  0  0  0  0  0  0  0  0  0  0
    3.0366   -3.1558    1.6224 C   0  0  2  0  0  0  0  0  0  0  0  0
    3.0676   -4.6604    2.1266 C   0  0  1  0  0  0  0  0  0  0  0  0
    4.3105   -5.0633    2.6352 O   0  0  0  0  0  0  0  0  0  0  0  0
    1.8584   -5.3211    2.8783 C   0  0  2  0  0  0  0  0  0  0  0  0
    1.4880   -4.6806    4.2389 C   0  0  2  0  0  0  0  0  0  0  0  0
    0.9013   -3.2638    4.1627 C   0  0  0  0  0  0  0  0  0  0  0  0
    1.7306   -2.2173    4.8952 C   0  0  2  0  0  0  0  0  0  0  0  0
    0.9320   -0.8786    4.9021 C   0  0  0  0  0  0  0  0  0  0  0  0
    3.1658   -2.0948    4.2020 C   0  0  1  0  0  0  0  0  0  0  0  0
    4.2804   -3.0158    4.8092 C   0  0  1  0  0  0  0  0  0  0  0  0
    5.0981   -2.2837    5.7064 O   0  0  0  0  0  0  0  0  0  0  0  0
    3.8898   -4.3406    5.5188 C   0  0  1  0  0  0  0  0  0  0  0  0
    4.9941   -5.2097    5.3973 O   0  0  0  0  0  0  0  0  0  0  0  0
    3.6241   -4.0200    6.9022 O   0  0  0  0  0  0  0  0  0  0  0  0
    2.2155   -4.1012    6.6442 C   0  0  1  0  0  0  0  0  0  0  0  0
    1.4489   -4.7113    7.6526 O   0  0  0  0  0  0  0  0  0  0  0  0
    1.7375   -2.6592    6.3988 C   0  0  1  0  0  0  0  0  0  0  0  0
    2.4406   -1.7268    7.2022 O   0  0  0  0  0  0  0  0  0  0  0  0
    2.4674   -4.9774    5.4049 C   0  0  1  0  0  0  0  0  0  0  0  0
    2.4313   -6.5045    5.5894 C   0  0  0  0  0  0  0  0  0  0  0  0
    2.7589   -7.2494    4.2927 C   0  0  0  0  0  0  0  0  0  0  0  0
    3.6215   -8.1229    4.2778 O   0  0  0  0  0  0  0  0  0  0  0  0
    1.9206   -6.8965    3.0431 C   0  0  0  0  0  0  0  0  0  0  0  0
    0.5013   -7.4969    3.2504 C   0  0  0  0  0  0  0  0  0  0  0  0
    2.4833   -7.6115    1.7886 C   0  0  0  0  0  0  0  0  0  0  0  0
    3.2394   -3.5267   -1.8959 H   0  0  0  0  0  0  0  0  0  0  0  0
    1.8582   -3.0551   -0.9327 H   0  0  0  0  0  0  0  0  0  0  0  0
    2.5408   -4.6567   -0.7668 H   0  0  0  0  0  0  0  0  0  0  0  0
    5.7688   -3.6277    0.8957 H   0  0  0  0  0  0  0  0  0  0  0  0
    5.6157   -3.6311   -0.8415 H   0  0  0  0  0  0  0  0  0  0  0  0
    4.9401   -4.9489    0.0682 H   0  0  0  0  0  0  0  0  0  0  0  0
    4.5786   -1.6280   -1.2101 H   0  0  0  0  0  0  0  0  0  0  0  0
    3.1623   -1.0954   -0.4276 H   0  0  0  0  0  0  0  0  0  0  0  0
    6.0197   -1.1153    0.5400 H   0  0  0  0  0  0  0  0  0  0  0  0
    4.8585    0.1634    0.6202 H   0  0  0  0  0  0  0  0  0  0  0  0
    5.4957   -2.0579    2.4703 H   0  0  0  0  0  0  0  0  0  0  0  0
    4.4276    0.4878    2.8827 H   0  0  0  0  0  0  0  0  0  0  0  0
    1.2978   -1.0883    2.0650 H   0  0  0  0  0  0  0  0  0  0  0  0
    2.5465   -0.2094    1.2964 H   0  0  0  0  0  0  0  0  0  0  0  0
    2.3181    0.0599    2.9446 H   0  0  0  0  0  0  0  0  0  0  0  0
    1.9869   -3.0438    1.3695 H   0  0  0  0  0  0  0  0  0  0  0  0
    3.0380   -5.2222    1.2012 H   0  0  0  0  0  0  0  0  0  0  0  0
    4.9715   -4.9087    1.9778 H   0  0  0  0  0  0  0  0  0  0  0  0
    1.0059   -5.1399    2.2242 H   0  0  0  0  0  0  0  0  0  0  0  0
    0.5765   -5.2007    4.5170 H   0  0  0  0  0  0  0  0  0  0  0  0
    0.7331   -2.9672    3.1303 H   0  0  0  0  0  0  0  0  0  0  0  0
   -0.1002   -3.2693    4.6020 H   0  0  0  0  0  0  0  0  0  0  0  0
    1.5579   -0.0297    5.1822 H   0  0  0  0  0  0  0  0  0  0  0  0
    0.1127   -0.9014    5.6207 H   0  0  0  0  0  0  0  0  0  0  0  0
    0.4421   -0.6542    3.9579 H   0  0  0  0  0  0  0  0  0  0  0  0
    3.4565   -1.1190    4.5898 H   0  0  0  0  0  0  0  0  0  0  0  0
    4.9931   -3.2638    4.0299 H   0  0  0  0  0  0  0  0  0  0  0  0
    5.7867   -2.8746    5.9759 H   0  0  0  0  0  0  0  0  0  0  0  0
    4.8304   -5.9524    5.9604 H   0  0  0  0  0  0  0  0  0  0  0  0
    1.9209   -5.4896    7.9101 H   0  0  0  0  0  0  0  0  0  0  0  0
    0.6994   -2.6233    6.7397 H   0  0  0  0  0  0  0  0  0  0  0  0
    3.3631   -1.8247    6.9998 H   0  0  0  0  0  0  0  0  0  0  0  0
    3.1410   -6.8198    6.3474 H   0  0  0  0  0  0  0  0  0  0  0  0
    1.4585   -6.8380    5.9411 H   0  0  0  0  0  0  0  0  0  0  0  0
   -0.1909   -7.1858    2.4646 H   0  0  0  0  0  0  0  0  0  0  0  0
    0.0518   -7.2319    4.2059 H   0  0  0  0  0  0  0  0  0  0  0  0
    0.5271   -8.5878    3.2391 H   0  0  0  0  0  0  0  0  0  0  0  0
    1.9429   -7.3190    0.8889 H   0  0  0  0  0  0  0  0  0  0  0  0
    2.4103   -8.6957    1.8715 H   0  0  0  0  0  0  0  0  0  0  0  0
    3.5373   -7.3957    1.6325 H   0  0  0  0  0  0  0  0  0  0  0  0
  1  2  1  0
  1 35  1  0
  1 36  1  0
  1 37  1  0
  2 10  1  0
  2  3  1  0
  2  4  1  0
  3 38  1  0
  3 39  1  0
  3 40  1  0
  4  5  1  0
  4 41  1  0
  4 42  1  0
  5  6  1  0
  5 43  1  0
  5 44  1  0
  6  7  1  0
  6  8  1  0
  6 45  1  1
  7 46  1  0
  8 18  1  0
  8  9  1  6
  8 10  1  0
  9 47  1  0
  9 48  1  0
  9 49  1  0
 10 11  1  0
 10 50  1  6
 11 12  1  0
 11 13  1  0
 11 51  1  6
 12 52  1  0
 13 32  1  0
 13 14  1  0
 13 53  1  6
 14 28  1  0
 14 15  1  0
 14 54  1  1
 15 16  1  0
 15 55  1  0
 15 56  1  0
 16 26  1  0
 16 17  1  1
 16 18  1  0
 17 57  1  0
 17 58  1  0
 17 59  1  0
 18 19  1  0
 18 60  1  1
 19 20  1  0
 19 21  1  0
 19 61  1  6
 20 62  1  0
 21 28  1  0
 21 22  1  1
 21 23  1  0
 22 63  1  0
 23 24  1  0
 24 25  1  1
 24 26  1  0
 24 28  1  0
 25 64  1  0
 26 27  1  0
 26 65  1  1
 27 66  1  0
 28 29  1  1
 29 30  1  0
 29 67  1  0
 29 68  1  0
 30 31  2  0
 30 32  1  0
 32 33  1  0
 32 34  1  0
 33 69  1  0
 33 70  1  0
 33 71  1  0
 34 72  1  0
 34 73  1  0
 34 74  1  0
M  END
>  <i_m_ct_stereo_status>  (457) 
1

>  <s_m_source_file>  (457) 
/var/tmp/pbs.5076255.sched01/tmp277fsmq3/144xeprw1xa.sdf

>  <i_m_source_file_index>  (457) 
45

>  <i_lp_mmshare_version>  (457) 
48012

>  <i_f3d_flags>  (457) 
0

>  <s_epik_input>  (457) 
W0NIMl0xQyg9TylDKFtDSDNdKShbQ0gzXSlbQ0BASF0oW0NASF0yW0NAQF0xMzQpW0NASF0oW09IXSlbQ0BIXTVbQ0BdKFtDSDNdKShbQ0BIXShbT0hdKVtDSDJdW0NIMl1DNShbQ0gzXSlbQ0gzXSlbQ0BIXTZbQ0BdKFtDSDJdMikoW0NIM10pW0NASF0oW09IXSlbQ0BdNChbT0hdKU9bQ0BdMyhbT0hdKVtDQEBIXTZbT0hd

>  <s_epik_cmdline>  (457) 
J2VwaWtfcHl0aG9uJywgJy1waHQnLCAnMi4wJywgJy1waCcsICc3LjAnLCAnLXRuJywgJzgnLCAnLW1hJywgJzIwMCcsICctaW1hZScsICc8aW5maWxlLm1hZT4nLCAnLW9tYWUnLCAnPG91dGZpbGUubWFlPic=

>  <r_lp_tautomer_probability>  (457) 
1

>  <r_epik_Ionization_Penalty>  (457) 
1.63885e-05

>  <r_epik_Ionization_Penalty_Charging>  (457) 
0

>  <r_epik_Ionization_Penalty_Neutral>  (457) 
1.63885e-05

>  <r_epik_State_Penalty>  (457) 
-0

>  <r_epik_Charging_Adjusted_Penalty>  (457) 
0

>  <i_epik_Tot_Q>  (457) 
0

>  <i_epik_Tot_abs_Q>  (457) 
0

>  <s_lp_Force_Field>  (457) 
OPLS3e

>  <r_lp_Energy>  (457) 
122.982

>  <b_lp_Chiralities_Consistent>  (457) 
1

>  <s_lp_Variant>  (457) 
110:0-1

>  <s_i_glide_gridfile>  (457) 
pfpi4k_grid

>  <i_i_glide_lignum>  (457) 
45

>  <i_i_glide_rotatable_bonds>  (457) 
6

>  <r_i_docking_score>  (457) 
-2.51969

>  <r_i_glide_ligand_efficiency>  (457) 
-0.0741084

>  <r_i_glide_ligand_efficiency_sa>  (457) 
-0.240083

>  <r_i_glide_ligand_efficiency_ln>  (457) 
-0.55667

>  <r_i_glide_gscore>  (457) 
-2.51969

>  <r_i_glide_lipo>  (457) 
-0.257024

>  <r_i_glide_hbond>  (457) 
0

>  <r_i_glide_metal>  (457) 
-0

>  <r_i_glide_rewards>  (457) 
-0.632334

>  <r_i_glide_evdw>  (457) 
-25.7336

>  <r_i_glide_ecoul>  (457) 
-2.29031

>  <r_i_glide_erotb>  (457) 
0

>  <r_i_glide_esite>  (457) 
-0.000101608

>  <r_i_glide_emodel>  (457) 
-37.0684

>  <r_i_glide_energy>  (457) 
-28.0239

>  <r_i_glide_einternal>  (457) 
0.693303

>  <r_i_glide_intrahb_reward>  (457) 
-0.5

>  <i_i_glide_confnum>  (457) 
2

>  <i_i_glide_posenum>  (457) 
7

>  <r_i_glide_eff_state_penalty>  (457) 
0

>  <ligand_id>  (457) 
110

>  <original_smiles>  (457) 
CC1(C)CCC(O)C2(C)C1C(O)C1C3CC4(C)C2C(O)C2(O)OC(O)(C4O)C32CC(=O)C1(C)C

>  <smiles>  (457) 
[H]OC1([H])C2([H])C3([H])C([H])([H])C4(C([H])([H])[H])C([H])(O[H])C5(O[H])OC(O[H])(C([H])(O[H])C4([H])C4(C([H])([H])[H])C([H])(O[H])C([H])([H])C([H])([H])C(C([H])([H])[H])(C([H])([H])[H])C14[H])C53C([H])([H])C(=O)C2(C([H])([H])[H])C([H])([H])[H]

$$$$
110:0:2
     RDKit          3D

 74 79  0  0  1  0  0  0  0  0999 V2000
    2.4611   -3.6947   -0.9780 C   0  0  0  0  0  0  0  0  0  0  0  0
    3.5283   -3.2083    0.0300 C   0  0  0  0  0  0  0  0  0  0  0  0
    4.7914   -4.0873   -0.1662 C   0  0  0  0  0  0  0  0  0  0  0  0
    3.9190   -1.7969   -0.4424 C   0  0  0  0  0  0  0  0  0  0  0  0
    4.9287   -1.1127    0.4836 C   0  0  0  0  0  0  0  0  0  0  0  0
    4.7817   -1.4810    1.9761 C   0  0  1  0  0  0  0  0  0  0  0  0
    5.2417   -0.3592    2.7070 O   0  0  0  0  0  0  0  0  0  0  0  0
    3.3529   -1.9634    2.4447 C   0  0  1  0  0  0  0  0  0  0  0  0
    2.4107   -0.7590    2.1126 C   0  0  0  0  0  0  0  0  0  0  0  0
    2.9304   -3.2289    1.5175 C   0  0  2  0  0  0  0  0  0  0  0  0
    2.8955   -4.7300    2.0392 C   0  0  1  0  0  0  0  0  0  0  0  0
    4.1405   -5.2023    2.4779 O   0  0  0  0  0  0  0  0  0  0  0  0
    1.7110   -5.2920    2.8960 C   0  0  2  0  0  0  0  0  0  0  0  0
    1.4897   -4.6084    4.2671 C   0  0  2  0  0  0  0  0  0  0  0  0
    0.9886   -3.1620    4.2129 C   0  0  0  0  0  0  0  0  0  0  0  0
    1.9387   -2.1617    4.8594 C   0  0  2  0  0  0  0  0  0  0  0  0
    1.2296   -0.7714    4.9088 C   0  0  0  0  0  0  0  0  0  0  0  0
    3.3244   -2.1407    4.0584 C   0  0  1  0  0  0  0  0  0  0  0  0
    4.4313   -3.1137    4.5934 C   0  0  1  0  0  0  0  0  0  0  0  0
    5.3450   -2.4075    5.4100 O   0  0  0  0  0  0  0  0  0  0  0  0
    4.0138   -4.4148    5.3418 C   0  0  1  0  0  0  0  0  0  0  0  0
    5.0326   -5.3821    5.1815 O   0  0  0  0  0  0  0  0  0  0  0  0
    3.8734   -4.0616    6.7351 O   0  0  0  0  0  0  0  0  0  0  0  0
    2.4431   -4.0515    6.5921 C   0  0  1  0  0  0  0  0  0  0  0  0
    1.7194   -4.5940    7.6646 O   0  0  0  0  0  0  0  0  0  0  0  0
    2.0388   -2.5842    6.3629 C   0  0  1  0  0  0  0  0  0  0  0  0
    2.8837   -1.6940    7.0702 O   0  0  0  0  0  0  0  0  0  0  0  0
    2.5436   -4.9564    5.3502 C   0  0  1  0  0  0  0  0  0  0  0  0
    2.4178   -6.4750    5.5753 C   0  0  0  0  0  0  0  0  0  0  0  0
    2.5841   -7.2584    4.2743 C   0  0  0  0  0  0  0  0  0  0  0  0
    3.3956   -8.1797    4.1993 O   0  0  0  0  0  0  0  0  0  0  0  0
    1.6757   -6.8663    3.0843 C   0  0  0  0  0  0  0  0  0  0  0  0
    0.2438   -7.3667    3.4077 C   0  0  0  0  0  0  0  0  0  0  0  0
    2.0921   -7.6318    1.8021 C   0  0  0  0  0  0  0  0  0  0  0  0
    2.8409   -3.6571   -2.0007 H   0  0  0  0  0  0  0  0  0  0  0  0
    1.5731   -3.0687   -0.9548 H   0  0  0  0  0  0  0  0  0  0  0  0
    2.1431   -4.7209   -0.8024 H   0  0  0  0  0  0  0  0  0  0  0  0
    5.5457   -3.8918    0.5930 H   0  0  0  0  0  0  0  0  0  0  0  0
    5.2603   -3.9024   -1.1350 H   0  0  0  0  0  0  0  0  0  0  0  0
    4.5727   -5.1559   -0.1427 H   0  0  0  0  0  0  0  0  0  0  0  0
    4.3362   -1.8381   -1.4503 H   0  0  0  0  0  0  0  0  0  0  0  0
    3.0176   -1.2023   -0.5779 H   0  0  0  0  0  0  0  0  0  0  0  0
    5.9335   -1.3899    0.1756 H   0  0  0  0  0  0  0  0  0  0  0  0
    4.8645   -0.0385    0.3234 H   0  0  0  0  0  0  0  0  0  0  0  0
    5.5117   -2.2697    2.1447 H   0  0  0  0  0  0  0  0  0  0  0  0
    4.5794    0.3170    2.6573 H   0  0  0  0  0  0  0  0  0  0  0  0
    1.3642   -1.0435    2.0575 H   0  0  0  0  0  0  0  0  0  0  0  0
    2.6005   -0.2587    1.1750 H   0  0  0  0  0  0  0  0  0  0  0  0
    2.5191    0.0510    2.8310 H   0  0  0  0  0  0  0  0  0  0  0  0
    1.8750   -3.0466    1.3454 H   0  0  0  0  0  0  0  0  0  0  0  0
    2.7637   -5.2992    1.1258 H   0  0  0  0  0  0  0  0  0  0  0  0
    4.3983   -4.6486    3.1944 H   0  0  0  0  0  0  0  0  0  0  0  0
    0.8177   -5.0618    2.3158 H   0  0  0  0  0  0  0  0  0  0  0  0
    0.5783   -5.0704    4.6277 H   0  0  0  0  0  0  0  0  0  0  0  0
    0.7650   -2.8691    3.1923 H   0  0  0  0  0  0  0  0  0  0  0  0
    0.0234   -3.1016    4.7264 H   0  0  0  0  0  0  0  0  0  0  0  0
    1.9322    0.0409    5.1156 H   0  0  0  0  0  0  0  0  0  0  0  0
    0.4669   -0.7296    5.6853 H   0  0  0  0  0  0  0  0  0  0  0  0
    0.6856   -0.5309    3.9978 H   0  0  0  0  0  0  0  0  0  0  0  0
    3.6935   -1.1734    4.4019 H   0  0  0  0  0  0  0  0  0  0  0  0
    5.0648   -3.4006    3.7643 H   0  0  0  0  0  0  0  0  0  0  0  0
    4.8888   -2.2272    6.2241 H   0  0  0  0  0  0  0  0  0  0  0  0
    5.0256   -5.7242    4.2969 H   0  0  0  0  0  0  0  0  0  0  0  0
    2.1764   -5.3801    7.9262 H   0  0  0  0  0  0  0  0  0  0  0  0
    1.0384   -2.4688    6.7966 H   0  0  0  0  0  0  0  0  0  0  0  0
    2.4991   -0.8282    7.0422 H   0  0  0  0  0  0  0  0  0  0  0  0
    3.1660   -6.8220    6.2776 H   0  0  0  0  0  0  0  0  0  0  0  0
    1.4557   -6.7314    6.0141 H   0  0  0  0  0  0  0  0  0  0  0  0
   -0.4836   -7.0268    2.6675 H   0  0  0  0  0  0  0  0  0  0  0  0
   -0.1127   -7.0592    4.3879 H   0  0  0  0  0  0  0  0  0  0  0  0
    0.2032   -8.4575    3.4154 H   0  0  0  0  0  0  0  0  0  0  0  0
    1.5015   -7.3205    0.9395 H   0  0  0  0  0  0  0  0  0  0  0  0
    1.9538   -8.7082    1.9121 H   0  0  0  0  0  0  0  0  0  0  0  0
    3.1423   -7.4900    1.5612 H   0  0  0  0  0  0  0  0  0  0  0  0
  1  2  1  0
  1 35  1  0
  1 36  1  0
  1 37  1  0
  2 10  1  0
  2  3  1  0
  2  4  1  0
  3 38  1  0
  3 39  1  0
  3 40  1  0
  4  5  1  0
  4 41  1  0
  4 42  1  0
  5  6  1  0
  5 43  1  0
  5 44  1  0
  6  7  1  0
  6  8  1  0
  6 45  1  6
  7 46  1  0
  8 18  1  0
  8  9  1  1
  8 10  1  0
  9 47  1  0
  9 48  1  0
  9 49  1  0
 10 11  1  0
 10 50  1  6
 11 12  1  0
 11 13  1  0
 11 51  1  6
 12 52  1  0
 13 32  1  0
 13 14  1  0
 13 53  1  6
 14 28  1  0
 14 15  1  0
 14 54  1  1
 15 16  1  0
 15 55  1  0
 15 56  1  0
 16 26  1  0
 16 17  1  1
 16 18  1  0
 17 57  1  0
 17 58  1  0
 17 59  1  0
 18 19  1  0
 18 60  1  1
 19 20  1  0
 19 21  1  0
 19 61  1  6
 20 62  1  0
 21 28  1  0
 21 22  1  1
 21 23  1  0
 22 63  1  0
 23 24  1  0
 24 25  1  1
 24 26  1  0
 24 28  1  0
 25 64  1  0
 26 27  1  0
 26 65  1  1
 27 66  1  0
 28 29  1  1
 29 30  1  0
 29 67  1  0
 29 68  1  0
 30 31  2  0
 30 32  1  0
 32 33  1  0
 32 34  1  0
 33 69  1  0
 33 70  1  0
 33 71  1  0
 34 72  1  0
 34 73  1  0
 34 74  1  0
M  END
>  <i_m_ct_stereo_status>  (458) 
1

>  <s_m_source_file>  (458) 
/var/tmp/pbs.5076255.sched01/tmp277fsmq3/144xeprw1xa.sdf

>  <i_m_source_file_index>  (458) 
45

>  <i_lp_mmshare_version>  (458) 
48012

>  <i_f3d_flags>  (458) 
0

>  <s_epik_input>  (458) 
W0NIMl0xQyg9TylDKFtDSDNdKShbQ0gzXSlbQ0BASF0oW0NASF0yW0NAQF0xMzQpW0NASF0oW09IXSlbQ0BIXTVbQ0BdKFtDSDNdKShbQ0BIXShbT0hdKVtDSDJdW0NIMl1DNShbQ0gzXSlbQ0gzXSlbQ0BIXTZbQ0BdKFtDSDJdMikoW0NIM10pW0NASF0oW09IXSlbQ0BdNChbT0hdKU9bQ0BdMyhbT0hdKVtDQEBIXTZbT0hd

>  <s_epik_cmdline>  (458) 
J2VwaWtfcHl0aG9uJywgJy1waHQnLCAnMi4wJywgJy1waCcsICc3LjAnLCAnLXRuJywgJzgnLCAnLW1hJywgJzIwMCcsICctaW1hZScsICc8aW5maWxlLm1hZT4nLCAnLW9tYWUnLCAnPG91dGZpbGUubWFlPic=

>  <r_lp_tautomer_probability>  (458) 
1

>  <r_epik_Ionization_Penalty>  (458) 
1.63885e-05

>  <r_epik_Ionization_Penalty_Charging>  (458) 
0

>  <r_epik_Ionization_Penalty_Neutral>  (458) 
1.63885e-05

>  <r_epik_State_Penalty>  (458) 
-0

>  <r_epik_Charging_Adjusted_Penalty>  (458) 
0

>  <i_epik_Tot_Q>  (458) 
0

>  <i_epik_Tot_abs_Q>  (458) 
0

>  <s_lp_Force_Field>  (458) 
OPLS3e

>  <r_lp_Energy>  (458) 
122.982

>  <b_lp_Chiralities_Consistent>  (458) 
1

>  <s_lp_Variant>  (458) 
110:0-1

>  <s_i_glide_gridfile>  (458) 
pfpi4k_grid

>  <i_i_glide_lignum>  (458) 
45

>  <i_i_glide_rotatable_bonds>  (458) 
6

>  <r_i_docking_score>  (458) 
-2.43796

>  <r_i_glide_ligand_efficiency>  (458) 
-0.0717046

>  <r_i_glide_ligand_efficiency_sa>  (458) 
-0.232295

>  <r_i_glide_ligand_efficiency_ln>  (458) 
-0.538613

>  <r_i_glide_gscore>  (458) 
-2.43796

>  <r_i_glide_lipo>  (458) 
-0.204077

>  <r_i_glide_hbond>  (458) 
0

>  <r_i_glide_metal>  (458) 
-0

>  <r_i_glide_rewards>  (458) 
-0.632334

>  <r_i_glide_evdw>  (458) 
-25.638

>  <r_i_glide_ecoul>  (458) 
-2.12972

>  <r_i_glide_erotb>  (458) 
0

>  <r_i_glide_esite>  (458) 
-0.000184542

>  <r_i_glide_emodel>  (458) 
-36.3859

>  <r_i_glide_energy>  (458) 
-27.7678

>  <r_i_glide_einternal>  (458) 
1.19068

>  <r_i_glide_intrahb_reward>  (458) 
-0.5

>  <i_i_glide_confnum>  (458) 
1

>  <i_i_glide_posenum>  (458) 
3

>  <r_i_glide_eff_state_penalty>  (458) 
0

>  <ligand_id>  (458) 
110

>  <original_smiles>  (458) 
CC1(C)CCC(O)C2(C)C1C(O)C1C3CC4(C)C2C(O)C2(O)OC(O)(C4O)C32CC(=O)C1(C)C

>  <smiles>  (458) 
[H]OC1([H])C2([H])C3([H])C([H])([H])C4(C([H])([H])[H])C([H])(O[H])C5(O[H])OC(O[H])(C([H])(O[H])C4([H])C4(C([H])([H])[H])C([H])(O[H])C([H])([H])C([H])([H])C(C([H])([H])[H])(C([H])([H])[H])C14[H])C53C([H])([H])C(=O)C2(C([H])([H])[H])C([H])([H])[H]

$$$$
111:0:0
     RDKit          3D

 30 33  0  0  1  0  0  0  0  0999 V2000
    5.6662   -5.9180    1.0979 C   0  0  0  0  0  0  0  0  0  0  0  0
    5.8514   -5.1306    2.2545 O   0  0  0  0  0  0  0  0  0  0  0  0
    5.1653   -3.8329    1.9396 O   0  0  0  0  0  0  0  0  0  0  0  0
    4.8298   -3.9379    0.5719 C   0  0  1  0  0  0  0  0  0  0  0  0
    4.6689   -5.3186    0.2960 O   0  0  0  0  0  0  0  0  0  0  0  0
    3.5246   -3.1440    0.2842 C   0  0  1  0  0  0  0  0  0  0  0  0
    3.7386   -1.6548    0.6537 C   0  0  0  0  0  0  0  0  0  0  0  0
    4.8934   -1.0740   -0.1898 C   0  0  2  0  0  0  0  0  0  0  0  0
    4.5387   -1.1700   -1.6927 C   0  0  0  0  0  0  0  0  0  0  0  0
    4.3187   -2.6517   -2.0620 C   0  0  2  0  0  0  0  0  0  0  0  0
    3.1597   -3.2243   -1.2190 C   0  0  0  0  0  0  0  0  0  0  0  0
    5.6031   -3.4540   -1.7881 C   0  0  0  0  0  0  0  0  0  0  0  0
    5.9751   -3.3428   -0.2923 C   0  0  1  0  0  0  0  0  0  0  0  0
    6.1858   -1.8629    0.0861 C   0  0  0  0  0  0  0  0  0  0  0  0
    5.3954   -6.9420    1.3658 H   0  0  0  0  0  0  0  0  0  0  0  0
    6.6103   -5.9679    0.5496 H   0  0  0  0  0  0  0  0  0  0  0  0
    2.7060   -3.5577    0.8760 H   0  0  0  0  0  0  0  0  0  0  0  0
    2.8229   -1.0910    0.4752 H   0  0  0  0  0  0  0  0  0  0  0  0
    3.9634   -1.5505    1.7147 H   0  0  0  0  0  0  0  0  0  0  0  0
    5.0460   -0.0301    0.0799 H   0  0  0  0  0  0  0  0  0  0  0  0
    3.6297   -0.6118   -1.9103 H   0  0  0  0  0  0  0  0  0  0  0  0
    5.3303   -0.7304   -2.3001 H   0  0  0  0  0  0  0  0  0  0  0  0
    4.0646   -2.7188   -3.1190 H   0  0  0  0  0  0  0  0  0  0  0  0
    2.9562   -4.2559   -1.5093 H   0  0  0  0  0  0  0  0  0  0  0  0
    2.2470   -2.6623   -1.4145 H   0  0  0  0  0  0  0  0  0  0  0  0
    5.4265   -4.4940   -2.0600 H   0  0  0  0  0  0  0  0  0  0  0  0
    6.4227   -3.0899   -2.4096 H   0  0  0  0  0  0  0  0  0  0  0  0
    6.9145   -3.8624   -0.1216 H   0  0  0  0  0  0  0  0  0  0  0  0
    7.0170   -1.4594   -0.4865 H   0  0  0  0  0  0  0  0  0  0  0  0
    6.4584   -1.7728    1.1384 H   0  0  0  0  0  0  0  0  0  0  0  0
  1  5  1  0
  1  2  1  0
  1 15  1  0
  1 16  1  0
  2  3  1  0
  4  3  1  1
  4 13  1  0
  4  5  1  0
  4  6  1  0
  6 11  1  0
  6  7  1  0
  6 17  1  1
  7  8  1  0
  7 18  1  0
  7 19  1  0
  8 14  1  0
  8  9  1  0
  8 20  1  1
  9 10  1  0
  9 21  1  0
  9 22  1  0
 10 11  1  0
 10 12  1  0
 10 23  1  6
 11 24  1  0
 11 25  1  0
 12 13  1  0
 12 26  1  0
 12 27  1  0
 13 14  1  0
 13 28  1  6
 14 29  1  0
 14 30  1  0
M  END
>  <i_m_ct_stereo_status>  (459) 
1

>  <s_m_source_file>  (459) 
/var/tmp/pbs.5076255.sched01/tmp277fsmq3/144xeprw1xa.sdf

>  <i_m_source_file_index>  (459) 
46

>  <i_lp_mmshare_version>  (459) 
48012

>  <i_f3d_flags>  (459) 
0

>  <s_epik_input>  (459) 
TzFbQ0gyXU9PW0NAXTEyW0NASF0zW0NIMl1bQ0BASF00W0NIMl1bQ0BIXShbQ0gyXTMpW0NIMl1bQ0BIXTJbQ0gyXTQ=

>  <s_epik_cmdline>  (459) 
J2VwaWtfcHl0aG9uJywgJy1waHQnLCAnMi4wJywgJy1waCcsICc3LjAnLCAnLXRuJywgJzgnLCAnLW1hJywgJzIwMCcsICctaW1hZScsICc8aW5maWxlLm1hZT4nLCAnLW9tYWUnLCAnPG91dGZpbGUubWFlPic=

>  <r_lp_tautomer_probability>  (459) 
1

>  <r_epik_Ionization_Penalty>  (459) 
6.57791e-16

>  <r_epik_Ionization_Penalty_Charging>  (459) 
0

>  <r_epik_Ionization_Penalty_Neutral>  (459) 
6.57791e-16

>  <r_epik_State_Penalty>  (459) 
-0

>  <r_epik_Charging_Adjusted_Penalty>  (459) 
0

>  <i_epik_Tot_Q>  (459) 
0

>  <i_epik_Tot_abs_Q>  (459) 
0

>  <s_epik_Chemistry_Notes>  (459) 
This compound contains an acetal/aminal-like group ( X-CH(R)-Y where X, Y are N, S, or O) that may be acid/base labile, releasing an aldehyde.

>  <s_lp_Force_Field>  (459) 
OPLS3e

>  <r_lp_Energy>  (459) 
-1.28136

>  <b_lp_Chiralities_Consistent>  (459) 
1

>  <s_lp_Variant>  (459) 
111:0-1

>  <s_i_glide_gridfile>  (459) 
pfpi4k_grid

>  <i_i_glide_lignum>  (459) 
46

>  <i_i_glide_rotatable_bonds>  (459) 
0

>  <r_i_docking_score>  (459) 
-3.39919

>  <r_i_glide_ligand_efficiency>  (459) 
-0.242799

>  <r_i_glide_ligand_efficiency_sa>  (459) 
-0.58518

>  <r_i_glide_ligand_efficiency_ln>  (459) 
-0.934084

>  <r_i_glide_gscore>  (459) 
-3.39919

>  <r_i_glide_lipo>  (459) 
-0.276569

>  <r_i_glide_hbond>  (459) 
0

>  <r_i_glide_metal>  (459) 
-0

>  <r_i_glide_rewards>  (459) 
-2.23691

>  <r_i_glide_evdw>  (459) 
-17.9559

>  <r_i_glide_ecoul>  (459) 
0.0806052

>  <r_i_glide_erotb>  (459) 
0

>  <r_i_glide_esite>  (459) 
0

>  <r_i_glide_emodel>  (459) 
-21.5145

>  <r_i_glide_energy>  (459) 
-17.8753

>  <r_i_glide_einternal>  (459) 
0

>  <r_i_glide_intrahb_reward>  (459) 
-0

>  <i_i_glide_confnum>  (459) 
4

>  <i_i_glide_posenum>  (459) 
26

>  <r_i_glide_eff_state_penalty>  (459) 
0

>  <ligand_id>  (459) 
111

>  <original_smiles>  (459) 
C1OOC2(O1)C1CC3CC(C1)CC2C3

>  <smiles>  (459) 
[H]C1([H])OOC2(O1)C1([H])C([H])([H])C3([H])C([H])([H])C([H])(C1([H])[H])C([H])([H])C2([H])C3([H])[H]

$$$$
111:0:1
     RDKit          3D

 30 33  0  0  1  0  0  0  0  0999 V2000
    5.0886   -5.5738    2.1688 C   0  0  0  0  0  0  0  0  0  0  0  0
    4.1684   -6.1987    1.3031 O   0  0  0  0  0  0  0  0  0  0  0  0
    4.4278   -5.4869    0.0238 O   0  0  0  0  0  0  0  0  0  0  0  0
    4.7819   -4.1799    0.4371 C   0  0  1  0  0  0  0  0  0  0  0  0
    5.2188   -4.2232    1.7926 O   0  0  0  0  0  0  0  0  0  0  0  0
    5.9086   -3.6177   -0.4708 C   0  0  1  0  0  0  0  0  0  0  0  0
    5.4122   -3.6125   -1.9427 C   0  0  0  0  0  0  0  0  0  0  0  0
    4.1616   -2.7262   -2.0680 C   0  0  2  0  0  0  0  0  0  0  0  0
    4.5052   -1.2844   -1.6674 C   0  0  0  0  0  0  0  0  0  0  0  0
    4.9879   -1.2743   -0.2022 C   0  0  2  0  0  0  0  0  0  0  0  0
    6.2446   -2.1624   -0.0636 C   0  0  0  0  0  0  0  0  0  0  0  0
    3.8816   -1.8179    0.7274 C   0  0  0  0  0  0  0  0  0  0  0  0
    3.5335   -3.2668    0.3221 C   0  0  1  0  0  0  0  0  0  0  0  0
    3.0527   -3.2719   -1.1454 C   0  0  0  0  0  0  0  0  0  0  0  0
    6.0609   -6.0675    2.0454 H   0  0  0  0  0  0  0  0  0  0  0  0
    4.7798   -5.6567    3.2118 H   0  0  0  0  0  0  0  0  0  0  0  0
    6.7973   -4.2465   -0.3704 H   0  0  0  0  0  0  0  0  0  0  0  0
    6.1962   -3.2504   -2.6024 H   0  0  0  0  0  0  0  0  0  0  0  0
    5.1645   -4.6193   -2.2691 H   0  0  0  0  0  0  0  0  0  0  0  0
    3.7979   -2.7290   -3.0935 H   0  0  0  0  0  0  0  0  0  0  0  0
    5.2771   -0.8760   -2.3239 H   0  0  0  0  0  0  0  0  0  0  0  0
    3.6216   -0.6603   -1.8023 H   0  0  0  0  0  0  0  0  0  0  0  0
    5.2207   -0.2519    0.0843 H   0  0  0  0  0  0  0  0  0  0  0  0
    6.6170   -2.1128    0.9593 H   0  0  0  0  0  0  0  0  0  0  0  0
    7.0346   -1.7842   -0.7059 H   0  0  0  0  0  0  0  0  0  0  0  0
    4.2228   -1.7818    1.7626 H   0  0  0  0  0  0  0  0  0  0  0  0
    2.9972   -1.1917    0.6592 H   0  0  0  0  0  0  0  0  0  0  0  0
    2.7406   -3.6464    0.9671 H   0  0  0  0  0  0  0  0  0  0  0  0
    2.1574   -2.6573   -1.2443 H   0  0  0  0  0  0  0  0  0  0  0  0
    2.7536   -4.2566   -1.4624 H   0  0  0  0  0  0  0  0  0  0  0  0
  1  5  1  0
  1  2  1  0
  1 15  1  0
  1 16  1  0
  2  3  1  0
  4  3  1  6
  4 13  1  0
  4  5  1  0
  4  6  1  0
  6 11  1  0
  6  7  1  0
  6 17  1  6
  7  8  1  0
  7 18  1  0
  7 19  1  0
  8 14  1  0
  8  9  1  0
  8 20  1  6
  9 10  1  0
  9 21  1  0
  9 22  1  0
 10 11  1  0
 10 12  1  0
 10 23  1  1
 11 24  1  0
 11 25  1  0
 12 13  1  0
 12 26  1  0
 12 27  1  0
 13 14  1  0
 13 28  1  1
 14 29  1  0
 14 30  1  0
M  END
>  <i_m_ct_stereo_status>  (460) 
1

>  <s_m_source_file>  (460) 
/var/tmp/pbs.5076255.sched01/tmp277fsmq3/144xeprw1xa.sdf

>  <i_m_source_file_index>  (460) 
46

>  <i_lp_mmshare_version>  (460) 
48012

>  <i_f3d_flags>  (460) 
0

>  <s_epik_input>  (460) 
TzFbQ0gyXU9PW0NAXTEyW0NASF0zW0NIMl1bQ0BASF00W0NIMl1bQ0BIXShbQ0gyXTMpW0NIMl1bQ0BIXTJbQ0gyXTQ=

>  <s_epik_cmdline>  (460) 
J2VwaWtfcHl0aG9uJywgJy1waHQnLCAnMi4wJywgJy1waCcsICc3LjAnLCAnLXRuJywgJzgnLCAnLW1hJywgJzIwMCcsICctaW1hZScsICc8aW5maWxlLm1hZT4nLCAnLW9tYWUnLCAnPG91dGZpbGUubWFlPic=

>  <r_lp_tautomer_probability>  (460) 
1

>  <r_epik_Ionization_Penalty>  (460) 
6.57791e-16

>  <r_epik_Ionization_Penalty_Charging>  (460) 
0

>  <r_epik_Ionization_Penalty_Neutral>  (460) 
6.57791e-16

>  <r_epik_State_Penalty>  (460) 
-0

>  <r_epik_Charging_Adjusted_Penalty>  (460) 
0

>  <i_epik_Tot_Q>  (460) 
0

>  <i_epik_Tot_abs_Q>  (460) 
0

>  <s_epik_Chemistry_Notes>  (460) 
This compound contains an acetal/aminal-like group ( X-CH(R)-Y where X, Y are N, S, or O) that may be acid/base labile, releasing an aldehyde.

>  <s_lp_Force_Field>  (460) 
OPLS3e

>  <r_lp_Energy>  (460) 
-1.28136

>  <b_lp_Chiralities_Consistent>  (460) 
1

>  <s_lp_Variant>  (460) 
111:0-1

>  <s_i_glide_gridfile>  (460) 
pfpi4k_grid

>  <i_i_glide_lignum>  (460) 
46

>  <i_i_glide_rotatable_bonds>  (460) 
0

>  <r_i_docking_score>  (460) 
-3.25453

>  <r_i_glide_ligand_efficiency>  (460) 
-0.232467

>  <r_i_glide_ligand_efficiency_sa>  (460) 
-0.560278

>  <r_i_glide_ligand_efficiency_ln>  (460) 
-0.894335

>  <r_i_glide_gscore>  (460) 
-3.25453

>  <r_i_glide_lipo>  (460) 
-0.231123

>  <r_i_glide_hbond>  (460) 
0

>  <r_i_glide_metal>  (460) 
-0

>  <r_i_glide_rewards>  (460) 
-2.14217

>  <r_i_glide_evdw>  (460) 
-17.5368

>  <r_i_glide_ecoul>  (460) 
-0.0293662

>  <r_i_glide_erotb>  (460) 
0

>  <r_i_glide_esite>  (460) 
0

>  <r_i_glide_emodel>  (460) 
-21.1104

>  <r_i_glide_energy>  (460) 
-17.5662

>  <r_i_glide_einternal>  (460) 
0

>  <r_i_glide_intrahb_reward>  (460) 
-0

>  <i_i_glide_confnum>  (460) 
3

>  <i_i_glide_posenum>  (460) 
14

>  <r_i_glide_eff_state_penalty>  (460) 
0

>  <ligand_id>  (460) 
111

>  <original_smiles>  (460) 
C1OOC2(O1)C1CC3CC(C1)CC2C3

>  <smiles>  (460) 
[H]C1([H])OOC2(O1)C1([H])C([H])([H])C3([H])C([H])([H])C([H])(C1([H])[H])C([H])([H])C2([H])C3([H])[H]

$$$$
111:0:2
     RDKit          3D

 30 33  0  0  1  0  0  0  0  0999 V2000
    4.6894   -5.5530    1.0768 C   0  0  0  0  0  0  0  0  0  0  0  0
    5.7028   -4.6973    1.5284 O   0  0  0  0  0  0  0  0  0  0  0  0
    5.2727   -3.3916    0.9839 O   0  0  0  0  0  0  0  0  0  0  0  0
    4.6298   -3.7339   -0.2408 C   0  0  1  0  0  0  0  0  0  0  0  0
    4.2526   -5.1016   -0.1845 O   0  0  0  0  0  0  0  0  0  0  0  0
    3.3944   -2.8215   -0.4759 C   0  0  1  0  0  0  0  0  0  0  0  0
    3.8622   -1.3552   -0.4934 C   0  0  0  0  0  0  0  0  0  0  0  0
    4.8760   -1.1467   -1.6387 C   0  0  2  0  0  0  0  0  0  0  0  0
    4.2137   -1.4578   -2.9960 C   0  0  0  0  0  0  0  0  0  0  0  0
    3.7778   -2.9347   -2.9841 C   0  0  2  0  0  0  0  0  0  0  0  0
    2.7519   -3.1470   -1.8502 C   0  0  0  0  0  0  0  0  0  0  0  0
    5.0080   -3.8342   -2.7596 C   0  0  0  0  0  0  0  0  0  0  0  0
    5.6488   -3.5162   -1.3895 C   0  0  1  0  0  0  0  0  0  0  0  0
    6.0990   -2.0555   -1.4139 C   0  0  0  0  0  0  0  0  0  0  0  0
    3.8527   -5.4945    1.7707 H   0  0  0  0  0  0  0  0  0  0  0  0
    5.0230   -6.5894    1.0160 H   0  0  0  0  0  0  0  0  0  0  0  0
    2.6697   -2.9814    0.3223 H   0  0  0  0  0  0  0  0  0  0  0  0
    3.0150   -0.6995   -0.6281 H   0  0  0  0  0  0  0  0  0  0  0  0
    4.3196   -1.0749    0.4580 H   0  0  0  0  0  0  0  0  0  0  0  0
    5.2021   -0.1134   -1.6704 H   0  0  0  0  0  0  0  0  0  0  0  0
    3.3550   -0.8011   -3.1544 H   0  0  0  0  0  0  0  0  0  0  0  0
    4.9046   -1.2637   -3.8139 H   0  0  0  0  0  0  0  0  0  0  0  0
    3.3151   -3.1693   -3.9478 H   0  0  0  0  0  0  0  0  0  0  0  0
    2.3779   -4.1682   -1.8640 H   0  0  0  0  0  0  0  0  0  0  0  0
    1.8881   -2.5183   -2.0295 H   0  0  0  0  0  0  0  0  0  0  0  0
    4.7019   -4.8751   -2.7966 H   0  0  0  0  0  0  0  0  0  0  0  0
    5.7334   -3.7035   -3.5604 H   0  0  0  0  0  0  0  0  0  0  0  0
    6.5070   -4.1496   -1.2034 H   0  0  0  0  0  0  0  0  0  0  0  0
    6.8264   -1.9251   -2.2075 H   0  0  0  0  0  0  0  0  0  0  0  0
    6.5956   -1.7864   -0.4799 H   0  0  0  0  0  0  0  0  0  0  0  0
  1  5  1  0
  1  2  1  0
  1 15  1  0
  1 16  1  0
  2  3  1  0
  4  3  1  1
  4 13  1  0
  4  5  1  0
  4  6  1  0
  6 11  1  0
  6  7  1  0
  6 17  1  1
  7  8  1  0
  7 18  1  0
  7 19  1  0
  8 14  1  0
  8  9  1  0
  8 20  1  6
  9 10  1  0
  9 21  1  0
  9 22  1  0
 10 11  1  0
 10 12  1  0
 10 23  1  6
 11 24  1  0
 11 25  1  0
 12 13  1  0
 12 26  1  0
 12 27  1  0
 13 14  1  0
 13 28  1  1
 14 29  1  0
 14 30  1  0
M  END
>  <i_m_ct_stereo_status>  (461) 
1

>  <s_m_source_file>  (461) 
/var/tmp/pbs.5076255.sched01/tmp277fsmq3/144xeprw1xa.sdf

>  <i_m_source_file_index>  (461) 
46

>  <i_lp_mmshare_version>  (461) 
48012

>  <i_f3d_flags>  (461) 
0

>  <s_epik_input>  (461) 
TzFbQ0gyXU9PW0NAXTEyW0NASF0zW0NIMl1bQ0BASF00W0NIMl1bQ0BIXShbQ0gyXTMpW0NIMl1bQ0BIXTJbQ0gyXTQ=

>  <s_epik_cmdline>  (461) 
J2VwaWtfcHl0aG9uJywgJy1waHQnLCAnMi4wJywgJy1waCcsICc3LjAnLCAnLXRuJywgJzgnLCAnLW1hJywgJzIwMCcsICctaW1hZScsICc8aW5maWxlLm1hZT4nLCAnLW9tYWUnLCAnPG91dGZpbGUubWFlPic=

>  <r_lp_tautomer_probability>  (461) 
1

>  <r_epik_Ionization_Penalty>  (461) 
6.57791e-16

>  <r_epik_Ionization_Penalty_Charging>  (461) 
0

>  <r_epik_Ionization_Penalty_Neutral>  (461) 
6.57791e-16

>  <r_epik_State_Penalty>  (461) 
-0

>  <r_epik_Charging_Adjusted_Penalty>  (461) 
0

>  <i_epik_Tot_Q>  (461) 
0

>  <i_epik_Tot_abs_Q>  (461) 
0

>  <s_epik_Chemistry_Notes>  (461) 
This compound contains an acetal/aminal-like group ( X-CH(R)-Y where X, Y are N, S, or O) that may be acid/base labile, releasing an aldehyde.

>  <s_lp_Force_Field>  (461) 
OPLS3e

>  <r_lp_Energy>  (461) 
-1.28136

>  <b_lp_Chiralities_Consistent>  (461) 
1

>  <s_lp_Variant>  (461) 
111:0-1

>  <s_i_glide_gridfile>  (461) 
pfpi4k_grid

>  <i_i_glide_lignum>  (461) 
46

>  <i_i_glide_rotatable_bonds>  (461) 
0

>  <r_i_docking_score>  (461) 
-3.1838

>  <r_i_glide_ligand_efficiency>  (461) 
-0.227415

>  <r_i_glide_ligand_efficiency_sa>  (461) 
-0.548102

>  <r_i_glide_ligand_efficiency_ln>  (461) 
-0.874898

>  <r_i_glide_gscore>  (461) 
-3.1838

>  <r_i_glide_lipo>  (461) 
-0.20354

>  <r_i_glide_hbond>  (461) 
0

>  <r_i_glide_metal>  (461) 
-0

>  <r_i_glide_rewards>  (461) 
-2.19162

>  <r_i_glide_evdw>  (461) 
-16.4541

>  <r_i_glide_ecoul>  (461) 
0.227091

>  <r_i_glide_erotb>  (461) 
0

>  <r_i_glide_esite>  (461) 
0

>  <r_i_glide_emodel>  (461) 
-19.6894

>  <r_i_glide_energy>  (461) 
-16.227

>  <r_i_glide_einternal>  (461) 
0

>  <r_i_glide_intrahb_reward>  (461) 
-0

>  <i_i_glide_confnum>  (461) 
3

>  <i_i_glide_posenum>  (461) 
11

>  <r_i_glide_eff_state_penalty>  (461) 
0

>  <ligand_id>  (461) 
111

>  <original_smiles>  (461) 
C1OOC2(O1)C1CC3CC(C1)CC2C3

>  <smiles>  (461) 
[H]C1([H])OOC2(O1)C1([H])C([H])([H])C3([H])C([H])([H])C([H])(C1([H])[H])C([H])([H])C2([H])C3([H])[H]

$$$$
